MODEL 1
REMARK VINA RESULT:      -7.7      0.000      0.000
REMARK  2 active torsions:
REMARK  status: ('A' for Active; 'I' for Inactive)
REMARK       I    between atoms: C_2  and  N_1 
REMARK       I    between atoms: C_3  and  N_1 
REMARK       I    between atoms: N_4  and  C_2 
REMARK    1  A    between atoms: C_9  and  C_3 
REMARK    2  A    between atoms: C_5  and  N_4 
ROOT
ATOM      1  N   UNL d   1     -48.420  12.981  22.144  0.00  0.00    -0.140 NA
ATOM      2  C   UNL d   1     -49.015  13.493  21.903  0.00  0.00     0.424 C 
ATOM      3  C   UNL d   1     -48.175  12.956  22.928  0.00  0.00     0.284 C 
ATOM      4  N   UNL d   1     -49.390  13.997  22.423  0.00  0.00    -0.329 NA
ATOM      5  O   UNL d   1     -49.394  13.665  21.183  0.00  0.00    -0.228 OA
ATOM      6  O   UNL d   1     -48.534  13.455  23.483  0.00  0.00    -0.265 OA
ENDROOT
BRANCH   3   7
ATOM      7  C   UNL d   1     -47.579  12.442  23.165  0.00  0.00     0.058 A 
ATOM      8  C   UNL d   1     -46.796  12.676  23.108  0.00  0.00     0.005 A 
ATOM      9  C   UNL d   1     -46.192  12.166  23.344  0.00  0.00     0.000 A 
ATOM     10  C   UNL d   1     -46.380  11.413  23.641  0.00  0.00     0.000 A 
ATOM     11  C   UNL d   1     -47.163  11.180  23.698  0.00  0.00     0.000 A 
ATOM     12  C   UNL d   1     -47.770  11.697  23.459  0.00  0.00     0.005 A 
ENDBRANCH   3   7
BRANCH   4  13
ATOM     13  C   UNL d   1     -49.832  14.541  22.847  0.00  0.00     0.219 A 
ATOM     14  N   UNL d   1     -50.558  14.325  23.162  0.00  0.00    -0.214 NA
ATOM     15  C   UNL d   1     -51.001  14.881  23.592  0.00  0.00     0.102 A 
ATOM     16  C   UNL d   1     -50.706  15.645  23.698  0.00  0.00     0.021 A 
ATOM     17  C   UNL d   1     -49.981  15.861  23.383  0.00  0.00     0.006 A 
ATOM     18  C   UNL d   1     -49.538  15.310  22.955  0.00  0.00     0.052 A 
ENDBRANCH   4  13
TORSDOF 2
ENDMDL
MODEL 2
REMARK VINA RESULT:      -7.5      0.653      3.944
REMARK  2 active torsions:
REMARK  status: ('A' for Active; 'I' for Inactive)
REMARK       I    between atoms: C_2  and  N_1 
REMARK       I    between atoms: C_3  and  N_1 
REMARK       I    between atoms: N_4  and  C_2 
REMARK    1  A    between atoms: C_9  and  C_3 
REMARK    2  A    between atoms: C_5  and  N_4 
ROOT
ATOM      1  N   UNL d   1     -49.213  13.670  22.080  0.00  0.00    -0.140 NA
ATOM      2  C   UNL d   1     -48.699  13.070  21.857  0.00  0.00     0.424 C 
ATOM      3  C   UNL d   1     -49.235  13.943  22.855  0.00  0.00     0.284 C 
ATOM      4  N   UNL d   1     -48.189  12.717  22.387  0.00  0.00    -0.329 NA
ATOM      5  O   UNL d   1     -48.528  12.667  21.151  0.00  0.00    -0.228 OA
ATOM      6  O   UNL d   1     -48.731  13.607  23.419  0.00  0.00    -0.265 OA
ENDROOT
BRANCH   3   7
ATOM      7  C   UNL d   1     -49.751  14.544  23.074  0.00  0.00     0.058 A 
ATOM      8  C   UNL d   1     -50.540  14.372  23.208  0.00  0.00     0.005 A 
ATOM      9  C   UNL d   1     -51.064  14.969  23.428  0.00  0.00     0.000 A 
ATOM     10  C   UNL d   1     -50.790  15.749  23.513  0.00  0.00     0.000 A 
ATOM     11  C   UNL d   1     -50.001  15.921  23.379  0.00  0.00     0.000 A 
ATOM     12  C   UNL d   1     -49.474  15.315  23.157  0.00  0.00     0.005 A 
ENDBRANCH   3   7
BRANCH   4  13
ATOM     13  C   UNL d   1     -47.640  12.294  22.824  0.00  0.00     0.219 A 
ATOM     14  N   UNL d   1     -47.865  11.605  23.209  0.00  0.00    -0.214 NA
ATOM     15  C   UNL d   1     -47.303  11.180  23.651  0.00  0.00     0.102 A 
ATOM     16  C   UNL d   1     -46.527  11.456  23.698  0.00  0.00     0.021 A 
ATOM     17  C   UNL d   1     -46.303  12.144  23.314  0.00  0.00     0.006 A 
ATOM     18  C   UNL d   1     -46.859  12.569  22.873  0.00  0.00     0.052 A 
ENDBRANCH   4  13
TORSDOF 2
ENDMDL
MODEL 3
REMARK VINA RESULT:      -6.8      1.494      1.999
REMARK  2 active torsions:
REMARK  status: ('A' for Active; 'I' for Inactive)
REMARK       I    between atoms: C_2  and  N_1 
REMARK       I    between atoms: C_3  and  N_1 
REMARK       I    between atoms: N_4  and  C_2 
REMARK    1  A    between atoms: C_9  and  C_3 
REMARK    2  A    between atoms: C_5  and  N_4 
ROOT
ATOM      1  N   UNL d   1     -47.564  14.182  22.867  0.00  0.00    -0.140 NA
ATOM      2  C   UNL d   1     -48.344  14.428  22.947  0.00  0.00     0.424 C 
ATOM      3  C   UNL d   1     -47.378  13.385  22.790  0.00  0.00     0.284 C 
ATOM      4  N   UNL d   1     -48.966  13.901  22.953  0.00  0.00    -0.329 NA
ATOM      5  O   UNL d   1     -48.729  15.160  23.035  0.00  0.00    -0.228 OA
ATOM      6  O   UNL d   1     -47.986  12.823  22.792  0.00  0.00    -0.265 OA
ENDROOT
BRANCH   3   7
ATOM      7  C   UNL d   1     -46.597  13.143  22.710  0.00  0.00     0.058 A 
ATOM      8  C   UNL d   1     -46.327  12.499  23.139  0.00  0.00     0.005 A 
ATOM      9  C   UNL d   1     -45.544  12.250  23.065  0.00  0.00     0.000 A 
ATOM     10  C   UNL d   1     -45.028  12.654  22.553  0.00  0.00     0.000 A 
ATOM     11  C   UNL d   1     -45.299  13.297  22.125  0.00  0.00     0.000 A 
ATOM     12  C   UNL d   1     -46.090  13.546  22.202  0.00  0.00     0.005 A 
ENDBRANCH   3   7
BRANCH   4  13
ATOM     13  C   UNL d   1     -49.663  13.471  22.972  0.00  0.00     0.219 A 
ATOM     14  N   UNL d   1     -49.945  13.177  23.684  0.00  0.00    -0.214 NA
ATOM     15  C   UNL d   1     -50.653  12.741  23.698  0.00  0.00     0.102 A 
ATOM     16  C   UNL d   1     -51.064  12.609  22.994  0.00  0.00     0.021 A 
ATOM     17  C   UNL d   1     -50.783  12.903  22.283  0.00  0.00     0.006 A 
ATOM     18  C   UNL d   1     -50.079  13.337  22.266  0.00  0.00     0.052 A 
ENDBRANCH   4  13
TORSDOF 2
ENDMDL
MODEL 4
REMARK VINA RESULT:      -6.5      1.994      3.931
REMARK  2 active torsions:
REMARK  status: ('A' for Active; 'I' for Inactive)
REMARK       I    between atoms: C_2  and  N_1 
REMARK       I    between atoms: C_3  and  N_1 
REMARK       I    between atoms: N_4  and  C_2 
REMARK    1  A    between atoms: C_9  and  C_3 
REMARK    2  A    between atoms: C_5  and  N_4 
ROOT
ATOM      1  N   UNL d   1     -48.189  13.738  22.975  0.00  0.00    -0.140 NA
ATOM      2  C   UNL d   1     -47.416  14.014  22.953  0.00  0.00     0.424 C 
ATOM      3  C   UNL d   1     -48.358  12.946  22.835  0.00  0.00     0.284 C 
ATOM      4  N   UNL d   1     -46.785  13.524  22.791  0.00  0.00    -0.329 NA
ATOM      5  O   UNL d   1     -47.046  14.751  23.062  0.00  0.00    -0.228 OA
ATOM      6  O   UNL d   1     -47.741  12.420  22.668  0.00  0.00    -0.265 OA
ENDROOT
BRANCH   3   7
ATOM      7  C   UNL d   1     -49.133  12.672  22.858  0.00  0.00     0.058 A 
ATOM      8  C   UNL d   1     -49.624  12.789  22.213  0.00  0.00     0.005 A 
ATOM      9  C   UNL d   1     -50.403  12.518  22.229  0.00  0.00     0.000 A 
ATOM     10  C   UNL d   1     -50.690  12.125  22.903  0.00  0.00     0.000 A 
ATOM     11  C   UNL d   1     -50.199  12.008  23.547  0.00  0.00     0.000 A 
ATOM     12  C   UNL d   1     -49.413  12.283  23.528  0.00  0.00     0.005 A 
ENDBRANCH   3   7
BRANCH   4  13
ATOM     13  C   UNL d   1     -46.080  13.132  22.642  0.00  0.00     0.219 A 
ATOM     14  N   UNL d   1     -45.823  12.542  23.151  0.00  0.00    -0.214 NA
ATOM     15  C   UNL d   1     -45.108  12.148  22.995  0.00  0.00     0.102 A 
ATOM     16  C   UNL d   1     -44.664  12.355  22.329  0.00  0.00     0.021 A 
ATOM     17  C   UNL d   1     -44.922  12.945  21.822  0.00  0.00     0.006 A 
ATOM     18  C   UNL d   1     -45.633  13.339  21.975  0.00  0.00     0.052 A 
ENDBRANCH   4  13
TORSDOF 2
ENDMDL
MODEL 5
REMARK VINA RESULT:      -6.4      9.139     10.657
REMARK  2 active torsions:
REMARK  status: ('A' for Active; 'I' for Inactive)
REMARK       I    between atoms: C_2  and  N_1 
REMARK       I    between atoms: C_3  and  N_1 
REMARK       I    between atoms: N_4  and  C_2 
REMARK    1  A    between atoms: C_9  and  C_3 
REMARK    2  A    between atoms: C_5  and  N_4 
ROOT
ATOM      1  N   UNL d   1     -41.010  15.141  18.141  0.00  0.00    -0.140 NA
ATOM      2  C   UNL d   1     -40.846  15.098  17.338  0.00  0.00     0.424 C 
ATOM      3  C   UNL d   1     -40.407  15.102  18.699  0.00  0.00     0.284 C 
ATOM      4  N   UNL d   1     -40.086  15.015  17.055  0.00  0.00    -0.329 NA
ATOM      5  O   UNL d   1     -41.296  15.117  16.639  0.00  0.00    -0.228 OA
ATOM      6  O   UNL d   1     -39.623  15.018  18.446  0.00  0.00    -0.265 OA
ENDROOT
BRANCH   3   7
ATOM      7  C   UNL d   1     -40.575  15.145  19.502  0.00  0.00     0.058 A 
ATOM      8  C   UNL d   1     -40.576  14.462  19.954  0.00  0.00     0.005 A 
ATOM      9  C   UNL d   1     -40.744  14.497  20.760  0.00  0.00     0.000 A 
ATOM     10  C   UNL d   1     -40.913  15.229  21.116  0.00  0.00     0.000 A 
ATOM     11  C   UNL d   1     -40.912  15.912  20.664  0.00  0.00     0.000 A 
ATOM     12  C   UNL d   1     -40.742  15.873  19.849  0.00  0.00     0.005 A 
ENDBRANCH   3   7
BRANCH   4  13
ATOM     13  C   UNL d   1     -39.373  14.933  16.658  0.00  0.00     0.219 A 
ATOM     14  N   UNL d   1     -38.961  15.599  16.413  0.00  0.00    -0.214 NA
ATOM     15  C   UNL d   1     -38.239  15.510  16.011  0.00  0.00     0.102 A 
ATOM     16  C   UNL d   1     -37.944  14.753  15.863  0.00  0.00     0.021 A 
ATOM     17  C   UNL d   1     -38.357  14.088  16.108  0.00  0.00     0.006 A 
ATOM     18  C   UNL d   1     -39.075  14.174  16.508  0.00  0.00     0.052 A 
ENDBRANCH   4  13
TORSDOF 2
ENDMDL
MODEL 6
REMARK VINA RESULT:      -6.4      1.440      4.114
REMARK  2 active torsions:
REMARK  status: ('A' for Active; 'I' for Inactive)
REMARK       I    between atoms: C_2  and  N_1 
REMARK       I    between atoms: C_3  and  N_1 
REMARK       I    between atoms: N_4  and  C_2 
REMARK    1  A    between atoms: C_9  and  C_3 
REMARK    2  A    between atoms: C_5  and  N_4 
ROOT
ATOM      1  N   UNL d   1     -48.103  15.078  22.548  0.00  0.00    -0.140 NA
ATOM      2  C   UNL d   1     -47.292  14.962  22.611  0.00  0.00     0.424 C 
ATOM      3  C   UNL d   1     -48.624  14.444  22.588  0.00  0.00     0.284 C 
ATOM      4  N   UNL d   1     -46.967  14.222  22.715  0.00  0.00    -0.329 NA
ATOM      5  O   UNL d   1     -46.620  15.452  22.597  0.00  0.00    -0.228 OA
ATOM      6  O   UNL d   1     -48.329  13.679  22.693  0.00  0.00    -0.265 OA
ENDROOT
BRANCH   3   7
ATOM      7  C   UNL d   1     -49.435  14.564  22.524  0.00  0.00     0.058 A 
ATOM      8  C   UNL d   1     -49.854  14.192  21.927  0.00  0.00     0.005 A 
ATOM      9  C   UNL d   1     -50.668  14.307  21.856  0.00  0.00     0.000 A 
ATOM     10  C   UNL d   1     -51.063  14.803  22.394  0.00  0.00     0.000 A 
ATOM     11  C   UNL d   1     -50.644  15.174  22.991  0.00  0.00     0.000 A 
ATOM     12  C   UNL d   1     -49.822  15.056  23.059  0.00  0.00     0.005 A 
ENDBRANCH   3   7
BRANCH   4  13
ATOM     13  C   UNL d   1     -46.531  13.536  22.820  0.00  0.00     0.219 A 
ATOM     14  N   UNL d   1     -46.654  13.068  23.484  0.00  0.00    -0.214 NA
ATOM     15  C   UNL d   1     -46.209  12.373  23.585  0.00  0.00     0.102 A 
ATOM     16  C   UNL d   1     -45.649  12.161  23.017  0.00  0.00     0.021 A 
ATOM     17  C   UNL d   1     -45.526  12.628  22.354  0.00  0.00     0.006 A 
ATOM     18  C   UNL d   1     -45.967  13.320  22.251  0.00  0.00     0.052 A 
ENDBRANCH   4  13
TORSDOF 2
ENDMDL
MODEL 7
REMARK VINA RESULT:      -5.9      9.250     10.571
REMARK  2 active torsions:
REMARK  status: ('A' for Active; 'I' for Inactive)
REMARK       I    between atoms: C_2  and  N_1 
REMARK       I    between atoms: C_3  and  N_1 
REMARK       I    between atoms: N_4  and  C_2 
REMARK    1  A    between atoms: C_9  and  C_3 
REMARK    2  A    between atoms: C_5  and  N_4 
ROOT
ATOM      1  N   UNL d   1     -40.092  14.020  17.697  0.00  0.00    -0.140 NA
ATOM      2  C   UNL d   1     -40.569  14.040  18.364  0.00  0.00     0.424 C 
ATOM      3  C   UNL d   1     -39.367  14.408  17.683  0.00  0.00     0.284 C 
ATOM      4  N   UNL d   1     -40.352  14.441  19.040  0.00  0.00    -0.329 NA
ATOM      5  O   UNL d   1     -41.309  13.725  18.574  0.00  0.00    -0.228 OA
ATOM      6  O   UNL d   1     -39.116  14.825  18.352  0.00  0.00    -0.265 OA
ENDROOT
BRANCH   3   7
ATOM      7  C   UNL d   1     -38.892  14.386  17.012  0.00  0.00     0.058 A 
ATOM      8  C   UNL d   1     -38.807  15.058  16.554  0.00  0.00     0.005 A 
ATOM      9  C   UNL d   1     -38.332  15.044  15.879  0.00  0.00     0.000 A 
ATOM     10  C   UNL d   1     -37.940  14.344  15.665  0.00  0.00     0.000 A 
ATOM     11  C   UNL d   1     -38.025  13.671  16.124  0.00  0.00     0.000 A 
ATOM     12  C   UNL d   1     -38.505  13.689  16.804  0.00  0.00     0.005 A 
ENDBRANCH   3   7
BRANCH   4  13
ATOM     13  C   UNL d   1     -40.241  14.805  19.766  0.00  0.00     0.219 A 
ATOM     14  N   UNL d   1     -39.803  14.431  20.351  0.00  0.00    -0.214 NA
ATOM     15  C   UNL d   1     -39.694  14.805  21.085  0.00  0.00     0.102 A 
ATOM     16  C   UNL d   1     -40.027  15.548  21.218  0.00  0.00     0.021 A 
ATOM     17  C   UNL d   1     -40.464  15.922  20.634  0.00  0.00     0.006 A 
ATOM     18  C   UNL d   1     -40.575  15.552  19.903  0.00  0.00     0.052 A 
ENDBRANCH   4  13
TORSDOF 2
ENDMDL
MODEL 8
REMARK VINA RESULT:      -5.5      8.724     10.006
REMARK  2 active torsions:
REMARK  status: ('A' for Active; 'I' for Inactive)
REMARK       I    between atoms: C_2  and  N_1 
REMARK       I    between atoms: C_3  and  N_1 
REMARK       I    between atoms: N_4  and  C_2 
REMARK    1  A    between atoms: C_9  and  C_3 
REMARK    2  A    between atoms: C_5  and  N_4 
ROOT
ATOM      1  N   UNL d   1     -40.810  15.595  19.668  0.00  0.00    -0.140 NA
ATOM      2  C   UNL d   1     -40.839  15.557  20.488  0.00  0.00     0.424 C 
ATOM      3  C   UNL d   1     -40.185  15.261  19.252  0.00  0.00     0.284 C 
ATOM      4  N   UNL d   1     -40.257  15.190  20.926  0.00  0.00    -0.329 NA
ATOM      5  O   UNL d   1     -41.364  15.822  21.076  0.00  0.00    -0.228 OA
ATOM      6  O   UNL d   1     -39.577  14.881  19.664  0.00  0.00    -0.265 OA
ENDROOT
BRANCH   3   7
ATOM      7  C   UNL d   1     -40.159  15.301  18.431  0.00  0.00     0.058 A 
ATOM      8  C   UNL d   1     -40.584  14.761  17.985  0.00  0.00     0.005 A 
ATOM      9  C   UNL d   1     -40.563  14.795  17.161  0.00  0.00     0.000 A 
ATOM     10  C   UNL d   1     -40.109  15.379  16.783  0.00  0.00     0.000 A 
ATOM     11  C   UNL d   1     -39.685  15.919  17.229  0.00  0.00     0.000 A 
ATOM     12  C   UNL d   1     -39.708  15.882  18.061  0.00  0.00     0.005 A 
ENDBRANCH   3   7
BRANCH   4  13
ATOM     13  C   UNL d   1     -39.739  14.854  21.464  0.00  0.00     0.219 A 
ATOM     14  N   UNL d   1     -39.155  15.312  21.814  0.00  0.00    -0.214 NA
ATOM     15  C   UNL d   1     -38.632  14.965  22.360  0.00  0.00     0.102 A 
ATOM     16  C   UNL d   1     -38.707  14.163  22.544  0.00  0.00     0.021 A 
ATOM     17  C   UNL d   1     -39.290  13.706  22.194  0.00  0.00     0.006 A 
ATOM     18  C   UNL d   1     -39.812  14.048  21.651  0.00  0.00     0.052 A 
ENDBRANCH   4  13
TORSDOF 2
ENDMDL
MODEL 9
REMARK VINA RESULT:      -4.8      2.149      3.148
REMARK  2 active torsions:
REMARK  status: ('A' for Active; 'I' for Inactive)
REMARK       I    between atoms: C_2  and  N_1 
REMARK       I    between atoms: C_3  and  N_1 
REMARK       I    between atoms: N_4  and  C_2 
REMARK    1  A    between atoms: C_9  and  C_3 
REMARK    2  A    between atoms: C_5  and  N_4 
ROOT
ATOM      1  N   UNL d   1     -45.822  12.427  22.880  0.00  0.00    -0.140 NA
ATOM      2  C   UNL d   1     -46.597  12.529  23.130  0.00  0.00     0.424 C 
ATOM      3  C   UNL d   1     -45.506  12.896  22.283  0.00  0.00     0.284 C 
ATOM      4  N   UNL d   1     -47.087  13.093  22.805  0.00  0.00    -0.329 NA
ATOM      5  O   UNL d   1     -47.088  12.171  23.698  0.00  0.00    -0.228 OA
ATOM      6  O   UNL d   1     -45.975  13.479  21.931  0.00  0.00    -0.265 OA
ENDROOT
BRANCH   3   7
ATOM      7  C   UNL d   1     -44.729  12.791  22.035  0.00  0.00     0.058 A 
ATOM      8  C   UNL d   1     -44.276  12.193  22.363  0.00  0.00     0.005 A 
ATOM      9  C   UNL d   1     -43.496  12.081  22.119  0.00  0.00     0.000 A 
ATOM     10  C   UNL d   1     -43.170  12.578  21.538  0.00  0.00     0.000 A 
ATOM     11  C   UNL d   1     -43.623  13.176  21.210  0.00  0.00     0.000 A 
ATOM     12  C   UNL d   1     -44.410  13.286  21.459  0.00  0.00     0.005 A 
ENDBRANCH   3   7
BRANCH   4  13
ATOM     13  C   UNL d   1     -47.665  13.619  22.557  0.00  0.00     0.219 A 
ATOM     14  N   UNL d   1     -47.696  14.375  22.874  0.00  0.00    -0.214 NA
ATOM     15  C   UNL d   1     -48.284  14.904  22.618  0.00  0.00     0.102 A 
ATOM     16  C   UNL d   1     -48.831  14.662  22.049  0.00  0.00     0.021 A 
ATOM     17  C   UNL d   1     -48.800  13.907  21.733  0.00  0.00     0.006 A 
ATOM     18  C   UNL d   1     -48.216  13.379  21.985  0.00  0.00     0.052 A 
ENDBRANCH   4  13
TORSDOF 2
ENDMDL
