MODEL 1
REMARK VINA RESULT:      39.6      0.000      0.000
REMARK  6 active torsions:
REMARK  status: ('A' for Active; 'I' for Inactive)
REMARK    1  A    between atoms: C_6  and  C_1 
REMARK    2  A    between atoms: C_9  and  N_3 
REMARK    3  A    between atoms: C_17  and  C_9 
REMARK    4  A    between atoms: O_15  and  C_10 
REMARK    5  A    between atoms: O_16  and  C_17 
REMARK    6  A    between atoms: C_18  and  O_16 
ROOT
ATOM      1  C   UNL d   1      59.142  49.691  51.363  0.00  0.00     0.148 A 
ATOM      2  N   UNL d   1      59.031  49.703  52.189  0.00  0.00    -0.227 NA
ATOM      3  N   UNL d   1      59.954  49.677  51.204  0.00  0.00    -0.287 N 
ATOM      4  C   UNL d   1      60.356  49.680  51.928  0.00  0.00     0.083 A 
ATOM      5  C   UNL d   1      59.788  49.696  52.532  0.00  0.00     0.099 A 
ATOM      6  C   UNL d   1      61.165  49.671  52.128  0.00  0.00     0.019 A 
ATOM      7  C   UNL d   1      60.028  49.703  53.329  0.00  0.00     0.021 A 
ATOM      8  C   UNL d   1      61.401  49.678  52.917  0.00  0.00     0.002 A 
ATOM      9  C   UNL d   1      60.831  49.694  53.519  0.00  0.00     0.002 A 
ENDROOT
BRANCH   1  10
ATOM     10  C   UNL d   1      58.539  49.692  50.800  0.00  0.00     0.035 A 
ATOM     11  C   UNL d   1      58.727  49.681  49.997  0.00  0.00     0.005 A 
ATOM     12  C   UNL d   1      58.126  49.682  49.437  0.00  0.00     0.024 A 
ATOM     13  C   UNL d   1      57.336  49.695  49.671  0.00  0.00     0.094 A 
ATOM     14  C   UNL d   1      57.144  49.707  50.488  0.00  0.00     0.024 A 
ATOM     15  C   UNL d   1      57.750  49.705  51.045  0.00  0.00     0.005 A 
BRANCH  13  16
ATOM     16  O   UNL d   1      56.727  49.697  49.113  0.00  0.00    -0.328 OA
ATOM     17  C   UNL d   1      56.068  49.215  49.232  0.00  0.00     0.181 C 
ENDBRANCH  13  16
ENDBRANCH   1  10
BRANCH   3  18
ATOM     18  C   UNL d   1      60.144  49.663  50.405  0.00  0.00     0.108 C 
BRANCH  18  19
ATOM     19  C   UNL d   1      60.466  48.984  50.070  0.00  0.00     0.142 C 
BRANCH  19  20
ATOM     20  O   UNL d   1      61.278  48.925  49.962  0.00  0.00    -0.302 OA
BRANCH  20  21
ATOM     21  C   UNL d   1      61.617  48.193  49.805  0.00  0.00     0.123 C 
ATOM     22  C   UNL d   1      61.237  47.502  50.056  0.00  0.00     0.029 C 
ENDBRANCH  20  21
ENDBRANCH  19  20
ENDBRANCH  18  19
ENDBRANCH   3  18
TORSDOF 6
ENDMDL
