MODEL 1
REMARK VINA RESULT:      -6.0      0.000      0.000
REMARK  3 active torsions:
REMARK  status: ('A' for Active; 'I' for Inactive)
REMARK    1  A    between atoms: C_5  and  N_1 
REMARK    2  A    between atoms: C_4  and  C_5 
REMARK       I    between atoms: N_8  and  C_4 
REMARK    3  A    between atoms: C_13  and  N_8 
ROOT
ATOM      1  C   UNL d   1     -41.711-122.603 -51.601  0.00  0.00     0.297 C 
ATOM      2  N   UNL d   1     -41.304-122.175 -52.167  0.00  0.00    -0.207 NA
ATOM      3  O   UNL d   1     -42.236-123.204 -51.819  0.00  0.00    -0.264 OA
ENDROOT
BRANCH   1   4
ATOM      4  C   UNL d   1     -41.597-122.434 -50.802  0.00  0.00     0.148 C 
BRANCH   4   5
ATOM      5  N   UNL d   1     -42.091-122.776 -50.235  0.00  0.00    -0.235 N 
ATOM      6  C   UNL d   1     -41.854-123.471 -49.846  0.00  0.00     0.274 A 
ATOM      7  O   UNL d   1     -41.123-123.817 -50.028  0.00  0.00    -0.266 OA
ATOM      8  C   UNL d   1     -42.344-123.810 -49.285  0.00  0.00     0.097 A 
ATOM      9  S   UNL d   1     -43.069-123.474 -49.099  0.00  0.00    -0.076 SA
ATOM     10  C   UNL d   1     -43.308-122.786 -49.482  0.00  0.00     0.097 A 
ATOM     11  C   UNL d   1     -42.825-122.432 -50.051  0.00  0.00     0.274 A 
ATOM     12  O   UNL d   1     -43.062-121.742 -50.436  0.00  0.00    -0.266 OA
ENDBRANCH   4   5
ENDBRANCH   1   4
BRANCH   2  13
ATOM     13  C   UNL d   1     -41.418-122.345 -52.966  0.00  0.00     0.087 A 
ATOM     14  C   UNL d   1     -41.820-121.809 -53.447  0.00  0.00     0.045 A 
ATOM     15  C   UNL d   1     -41.939-121.968 -54.241  0.00  0.00     0.121 A 
ATOM     16  O   UNL d   1     -42.315-121.544 -54.849  0.00  0.00    -0.299 OA
ATOM     17  C   UNL d   1     -41.653-122.671 -54.567  0.00  0.00     0.119 A 
ATOM     18  C   UNL d   1     -42.257-121.993 -55.545  0.00  0.00     0.304 A 
ATOM     19  O   UNL d   1     -41.849-122.681 -55.363  0.00  0.00    -0.300 OA
ATOM     20  C   UNL d   1     -41.248-123.206 -54.079  0.00  0.00     0.028 A 
ATOM     21  C   UNL d   1     -41.132-123.043 -53.282  0.00  0.00     0.021 A 
ENDBRANCH   2  13
TORSDOF 3
ENDMDL
MODEL 2
REMARK VINA RESULT:      -5.6      1.661      4.413
REMARK  3 active torsions:
REMARK  status: ('A' for Active; 'I' for Inactive)
REMARK    1  A    between atoms: C_5  and  N_1 
REMARK    2  A    between atoms: C_4  and  C_5 
REMARK       I    between atoms: N_8  and  C_4 
REMARK    3  A    between atoms: C_13  and  N_8 
ROOT
ATOM      1  C   UNL d   1     -41.404-122.696 -52.587  0.00  0.00     0.297 C 
ATOM      2  N   UNL d   1     -41.159-122.399 -51.866  0.00  0.00    -0.207 NA
ATOM      3  O   UNL d   1     -41.931-123.333 -52.627  0.00  0.00    -0.264 OA
ENDROOT
BRANCH   1   4
ATOM      4  C   UNL d   1     -41.123-122.357 -53.285  0.00  0.00     0.148 C 
BRANCH   4   5
ATOM      5  N   UNL d   1     -41.594-122.367 -53.965  0.00  0.00    -0.235 N 
ATOM      6  C   UNL d   1     -42.051-121.701 -54.159  0.00  0.00     0.274 A 
ATOM      7  O   UNL d   1     -42.034-121.031 -53.670  0.00  0.00    -0.266 OA
ATOM      8  C   UNL d   1     -42.517-121.710 -54.831  0.00  0.00     0.097 A 
ATOM      9  S   UNL d   1     -42.540-122.369 -55.320  0.00  0.00    -0.076 SA
ATOM     10  C   UNL d   1     -42.089-123.030 -55.132  0.00  0.00     0.097 A 
ATOM     11  C   UNL d   1     -41.613-123.037 -54.456  0.00  0.00     0.274 A 
ATOM     12  O   UNL d   1     -41.160-123.698 -54.265  0.00  0.00    -0.266 OA
ENDBRANCH   4   5
ENDBRANCH   1   4
BRANCH   2  13
ATOM     13  C   UNL d   1     -41.440-122.738 -51.168  0.00  0.00     0.087 A 
ATOM     14  C   UNL d   1     -42.027-122.356 -50.733  0.00  0.00     0.045 A 
ATOM     15  C   UNL d   1     -42.312-122.684 -50.039  0.00  0.00     0.121 A 
ATOM     16  O   UNL d   1     -42.887-122.434 -49.495  0.00  0.00    -0.299 OA
ATOM     17  C   UNL d   1     -42.012-123.405 -49.771  0.00  0.00     0.119 A 
ATOM     18  C   UNL d   1     -42.936-123.006 -48.895  0.00  0.00     0.304 A 
ATOM     19  O   UNL d   1     -42.395-123.597 -49.073  0.00  0.00    -0.300 OA
ATOM     20  C   UNL d   1     -41.422-123.786 -50.214  0.00  0.00     0.028 A 
ATOM     21  C   UNL d   1     -41.138-123.453 -50.909  0.00  0.00     0.021 A 
ENDBRANCH   2  13
TORSDOF 3
ENDMDL
