MODEL 1
REMARK VINA RESULT:      -9.4      0.000      0.000
REMARK  3 active torsions:
REMARK  status: ('A' for Active; 'I' for Inactive)
REMARK    1  A    between atoms: C_8  and  C_1 
REMARK    2  A    between atoms: N_4  and  C_2 
REMARK       I    between atoms: C_6  and  N_4 
REMARK    3  A    between atoms: C_10  and  C_6 
ROOT
ATOM      1  C   UNL d   1      52.624  31.880  53.200  0.00  0.00     0.177 A 
ATOM      2  C   UNL d   1      53.040  32.551  52.929  0.00  0.00     0.114 A 
ATOM      3  O   UNL d   1      51.864  32.125  53.384  0.00  0.00    -0.301 OA
ATOM      4  C   UNL d   1      52.528  33.194  52.951  0.00  0.00     0.043 A 
ATOM      5  C   UNL d   1      51.802  32.936  53.231  0.00  0.00     0.102 A 
ATOM      6  C   UNL d   1      52.635  33.986  52.751  0.00  0.00     0.004 A 
ATOM      7  C   UNL d   1      51.175  33.466  53.314  0.00  0.00     0.025 A 
ATOM      8  C   UNL d   1      52.008  34.524  52.831  0.00  0.00     0.000 A 
ATOM      9  C   UNL d   1      51.282  34.254  53.114  0.00  0.00     0.002 A 
ENDROOT
BRANCH   2  10
ATOM     10  N   UNL d   1      53.829  32.564  52.681  0.00  0.00    -0.206 NA
ATOM     11  C   UNL d   1      54.425  32.771  53.212  0.00  0.00     0.279 C 
ATOM     12  O   UNL d   1      55.218  32.785  52.963  0.00  0.00    -0.265 OA
BRANCH  11  13
ATOM     13  C   UNL d   1      54.233  32.964  53.991  0.00  0.00     0.058 A 
ATOM     14  C   UNL d   1      54.143  33.755  54.208  0.00  0.00     0.005 A 
ATOM     15  C   UNL d   1      53.952  33.948  54.987  0.00  0.00     0.000 A 
ATOM     16  C   UNL d   1      53.850  33.349  55.549  0.00  0.00     0.000 A 
ATOM     17  C   UNL d   1      53.940  32.559  55.331  0.00  0.00     0.000 A 
ATOM     18  C   UNL d   1      54.131  32.366  54.553  0.00  0.00     0.005 A 
ENDBRANCH  11  13
ENDBRANCH   2  10
BRANCH   1  19
ATOM     19  C   UNL d   1      52.911  31.098  53.276  0.00  0.00     0.321 C 
ATOM     20  O   UNL d   1      52.904  30.728  54.022  0.00  0.00    -0.261 OA
ATOM     21  N   UNL d   1      53.194  30.706  52.625  0.00  0.00    -0.101 N 
ENDBRANCH   1  19
TORSDOF 3
ENDMDL
MODEL 2
REMARK VINA RESULT:      -8.4      1.302      2.199
REMARK  3 active torsions:
REMARK  status: ('A' for Active; 'I' for Inactive)
REMARK    1  A    between atoms: C_8  and  C_1 
REMARK    2  A    between atoms: N_4  and  C_2 
REMARK       I    between atoms: C_6  and  N_4 
REMARK    3  A    between atoms: C_10  and  C_6 
ROOT
ATOM      1  C   UNL d   1      53.711  33.580  54.750  0.00  0.00     0.177 A 
ATOM      2  C   UNL d   1      53.806  33.611  53.922  0.00  0.00     0.114 A 
ATOM      3  O   UNL d   1      52.953  33.841  54.917  0.00  0.00    -0.301 OA
ATOM      4  C   UNL d   1      53.106  33.890  53.596  0.00  0.00     0.043 A 
ATOM      5  C   UNL d   1      52.576  34.033  54.206  0.00  0.00     0.102 A 
ATOM      6  C   UNL d   1      52.883  34.032  52.815  0.00  0.00     0.004 A 
ATOM      7  C   UNL d   1      51.820  34.319  54.042  0.00  0.00     0.025 A 
ATOM      8  C   UNL d   1      52.123  34.320  52.644  0.00  0.00     0.000 A 
ATOM      9  C   UNL d   1      51.599  34.460  53.265  0.00  0.00     0.002 A 
ENDROOT
BRANCH   2  10
ATOM     10  N   UNL d   1      54.487  33.398  53.504  0.00  0.00    -0.206 NA
ATOM     11  C   UNL d   1      54.567  32.632  53.208  0.00  0.00     0.279 C 
ATOM     12  O   UNL d   1      55.252  32.418  52.788  0.00  0.00    -0.265 OA
BRANCH  11  13
ATOM     13  C   UNL d   1      53.967  32.080  53.329  0.00  0.00     0.058 A 
ATOM     14  C   UNL d   1      53.963  31.620  54.013  0.00  0.00     0.005 A 
ATOM     15  C   UNL d   1      53.363  31.067  54.134  0.00  0.00     0.000 A 
ATOM     16  C   UNL d   1      52.766  30.974  53.570  0.00  0.00     0.000 A 
ATOM     17  C   UNL d   1      52.770  31.434  52.885  0.00  0.00     0.000 A 
ATOM     18  C   UNL d   1      53.370  31.986  52.764  0.00  0.00     0.005 A 
ENDBRANCH  11  13
ENDBRANCH   2  10
BRANCH   1  19
ATOM     19  C   UNL d   1      54.272  33.332  55.320  0.00  0.00     0.321 C 
ATOM     20  O   UNL d   1      54.080  32.718  55.847  0.00  0.00    -0.261 OA
ATOM     21  N   UNL d   1      54.999  33.692  55.355  0.00  0.00    -0.101 N 
ENDBRANCH   1  19
TORSDOF 3
ENDMDL
MODEL 3
REMARK VINA RESULT:      -8.1      1.788      3.398
REMARK  3 active torsions:
REMARK  status: ('A' for Active; 'I' for Inactive)
REMARK    1  A    between atoms: C_8  and  C_1 
REMARK    2  A    between atoms: N_4  and  C_2 
REMARK       I    between atoms: C_6  and  N_4 
REMARK    3  A    between atoms: C_10  and  C_6 
ROOT
ATOM      1  C   UNL d   1      53.236  34.688  54.456  0.00  0.00     0.177 A 
ATOM      2  C   UNL d   1      53.413  34.299  53.739  0.00  0.00     0.114 A 
ATOM      3  O   UNL d   1      53.381  34.157  55.062  0.00  0.00    -0.301 OA
ATOM      4  C   UNL d   1      53.663  33.537  53.919  0.00  0.00     0.043 A 
ATOM      5  C   UNL d   1      53.645  33.445  54.734  0.00  0.00     0.102 A 
ATOM      6  C   UNL d   1      53.907  32.912  53.439  0.00  0.00     0.004 A 
ATOM      7  C   UNL d   1      53.869  32.729  55.078  0.00  0.00     0.025 A 
ATOM      8  C   UNL d   1      54.133  32.190  53.780  0.00  0.00     0.000 A 
ATOM      9  C   UNL d   1      54.111  32.109  54.600  0.00  0.00     0.002 A 
ENDROOT
BRANCH   2  10
ATOM     10  N   UNL d   1      53.349  34.624  52.982  0.00  0.00    -0.206 NA
ATOM     11  C   UNL d   1      52.662  34.508  52.540  0.00  0.00     0.279 C 
ATOM     12  O   UNL d   1      52.597  34.834  51.779  0.00  0.00    -0.265 OA
BRANCH  11  13
ATOM     13  C   UNL d   1      52.040  34.066  52.855  0.00  0.00     0.058 A 
ATOM     14  C   UNL d   1      51.997  33.255  52.710  0.00  0.00     0.005 A 
ATOM     15  C   UNL d   1      51.375  32.814  53.025  0.00  0.00     0.000 A 
ATOM     16  C   UNL d   1      50.796  33.184  53.484  0.00  0.00     0.000 A 
ATOM     17  C   UNL d   1      50.839  33.995  53.629  0.00  0.00     0.000 A 
ATOM     18  C   UNL d   1      51.461  34.436  53.314  0.00  0.00     0.005 A 
ENDBRANCH  11  13
ENDBRANCH   2  10
BRANCH   1  19
ATOM     19  C   UNL d   1      52.962  35.472  54.556  0.00  0.00     0.321 C 
ATOM     20  O   UNL d   1      53.329  36.094  54.142  0.00  0.00    -0.261 OA
ATOM     21  N   UNL d   1      52.340  35.623  55.055  0.00  0.00    -0.101 N 
ENDBRANCH   1  19
TORSDOF 3
ENDMDL
MODEL 4
REMARK VINA RESULT:      -8.1      1.066      2.784
REMARK  3 active torsions:
REMARK  status: ('A' for Active; 'I' for Inactive)
REMARK    1  A    between atoms: C_8  and  C_1 
REMARK    2  A    between atoms: N_4  and  C_2 
REMARK       I    between atoms: C_6  and  N_4 
REMARK    3  A    between atoms: C_10  and  C_6 
ROOT
ATOM      1  C   UNL d   1      53.215  32.076  53.408  0.00  0.00     0.177 A 
ATOM      2  C   UNL d   1      52.891  32.578  53.990  0.00  0.00     0.114 A 
ATOM      3  O   UNL d   1      54.027  32.182  53.422  0.00  0.00    -0.301 OA
ATOM      4  C   UNL d   1      53.509  32.982  54.350  0.00  0.00     0.043 A 
ATOM      5  C   UNL d   1      54.212  32.740  54.003  0.00  0.00     0.102 A 
ATOM      6  C   UNL d   1      53.519  33.543  54.954  0.00  0.00     0.004 A 
ATOM      7  C   UNL d   1      54.931  33.056  54.255  0.00  0.00     0.025 A 
ATOM      8  C   UNL d   1      54.241  33.864  55.212  0.00  0.00     0.000 A 
ATOM      9  C   UNL d   1      54.940  33.614  54.856  0.00  0.00     0.002 A 
ENDROOT
BRANCH   2  10
ATOM     10  N   UNL d   1      52.088  32.654  54.172  0.00  0.00    -0.206 NA
ATOM     11  C   UNL d   1      51.641  33.255  53.825  0.00  0.00     0.279 C 
ATOM     12  O   UNL d   1      50.834  33.332  54.008  0.00  0.00    -0.265 OA
BRANCH  11  13
ATOM     13  C   UNL d   1      51.997  33.780  53.297  0.00  0.00     0.058 A 
ATOM     14  C   UNL d   1      52.322  34.485  53.574  0.00  0.00     0.005 A 
ATOM     15  C   UNL d   1      52.678  35.010  53.046  0.00  0.00     0.000 A 
ATOM     16  C   UNL d   1      52.709  34.828  52.240  0.00  0.00     0.000 A 
ATOM     17  C   UNL d   1      52.384  34.122  51.963  0.00  0.00     0.000 A 
ATOM     18  C   UNL d   1      52.028  33.598  52.491  0.00  0.00     0.005 A 
ENDBRANCH  11  13
ENDBRANCH   2  10
BRANCH   1  19
ATOM     19  C   UNL d   1      52.805  31.556  52.897  0.00  0.00     0.321 C 
ATOM     20  O   UNL d   1      52.897  31.629  52.073  0.00  0.00    -0.261 OA
ATOM     21  N   UNL d   1      52.320  30.983  53.206  0.00  0.00    -0.101 N 
ENDBRANCH   1  19
TORSDOF 3
ENDMDL
MODEL 5
REMARK VINA RESULT:      -7.7      1.757      2.667
REMARK  3 active torsions:
REMARK  status: ('A' for Active; 'I' for Inactive)
REMARK    1  A    between atoms: C_8  and  C_1 
REMARK    2  A    between atoms: N_4  and  C_2 
REMARK       I    between atoms: C_6  and  N_4 
REMARK    3  A    between atoms: C_10  and  C_6 
ROOT
ATOM      1  C   UNL d   1      52.981  34.726  54.222  0.00  0.00     0.177 A 
ATOM      2  C   UNL d   1      52.781  33.931  54.380  0.00  0.00     0.114 A 
ATOM      3  O   UNL d   1      52.672  34.911  53.486  0.00  0.00    -0.301 OA
ATOM      4  C   UNL d   1      52.353  33.645  53.740  0.00  0.00     0.043 A 
ATOM      5  C   UNL d   1      52.284  34.245  53.186  0.00  0.00     0.102 A 
ATOM      6  C   UNL d   1      52.017  32.906  53.591  0.00  0.00     0.004 A 
ATOM      7  C   UNL d   1      51.878  34.116  52.479  0.00  0.00     0.025 A 
ATOM      8  C   UNL d   1      51.608  32.770  52.882  0.00  0.00     0.000 A 
ATOM      9  C   UNL d   1      51.544  33.382  52.333  0.00  0.00     0.002 A 
ENDROOT
BRANCH   2  10
ATOM     10  N   UNL d   1      52.979  33.508  55.062  0.00  0.00    -0.206 NA
ATOM     11  C   UNL d   1      53.659  33.042  55.076  0.00  0.00     0.279 C 
ATOM     12  O   UNL d   1      53.858  32.617  55.762  0.00  0.00    -0.265 OA
BRANCH  11  13
ATOM     13  C   UNL d   1      54.141  32.998  54.409  0.00  0.00     0.058 A 
ATOM     14  C   UNL d   1      54.028  32.394  53.859  0.00  0.00     0.005 A 
ATOM     15  C   UNL d   1      54.511  32.350  53.191  0.00  0.00     0.000 A 
ATOM     16  C   UNL d   1      55.107  32.911  53.073  0.00  0.00     0.000 A 
ATOM     17  C   UNL d   1      55.220  33.515  53.624  0.00  0.00     0.000 A 
ATOM     18  C   UNL d   1      54.737  33.559  54.291  0.00  0.00     0.005 A 
ENDBRANCH  11  13
ENDBRANCH   2  10
BRANCH   1  19
ATOM     19  C   UNL d   1      53.414  35.250  54.710  0.00  0.00     0.321 C 
ATOM     20  O   UNL d   1      53.316  35.220  55.536  0.00  0.00    -0.261 OA
ATOM     21  N   UNL d   1      53.926  35.783  54.376  0.00  0.00    -0.101 N 
ENDBRANCH   1  19
TORSDOF 3
ENDMDL
MODEL 6
REMARK VINA RESULT:      -7.7      1.002      2.310
REMARK  3 active torsions:
REMARK  status: ('A' for Active; 'I' for Inactive)
REMARK    1  A    between atoms: C_8  and  C_1 
REMARK    2  A    between atoms: N_4  and  C_2 
REMARK       I    between atoms: C_6  and  N_4 
REMARK    3  A    between atoms: C_10  and  C_6 
ROOT
ATOM      1  C   UNL d   1      52.144  32.457  53.002  0.00  0.00     0.177 A 
ATOM      2  C   UNL d   1      52.935  32.238  52.854  0.00  0.00     0.114 A 
ATOM      3  O   UNL d   1      51.767  31.802  53.318  0.00  0.00    -0.301 OA
ATOM      4  C   UNL d   1      53.029  31.454  53.082  0.00  0.00     0.043 A 
ATOM      5  C   UNL d   1      52.311  31.181  53.368  0.00  0.00     0.102 A 
ATOM      6  C   UNL d   1      53.683  30.952  53.063  0.00  0.00     0.004 A 
ATOM      7  C   UNL d   1      52.238  30.405  53.639  0.00  0.00     0.025 A 
ATOM      8  C   UNL d   1      53.615  30.170  53.335  0.00  0.00     0.000 A 
ATOM      9  C   UNL d   1      52.889  29.907  53.621  0.00  0.00     0.002 A 
ENDROOT
BRANCH   2  10
ATOM     10  N   UNL d   1      53.522  32.725  52.534  0.00  0.00    -0.206 NA
ATOM     11  C   UNL d   1      54.021  33.152  53.033  0.00  0.00     0.279 C 
ATOM     12  O   UNL d   1      54.610  33.642  52.712  0.00  0.00    -0.265 OA
BRANCH  11  13
ATOM     13  C   UNL d   1      53.934  33.092  53.851  0.00  0.00     0.058 A 
ATOM     14  C   UNL d   1      54.377  32.538  54.272  0.00  0.00     0.005 A 
ATOM     15  C   UNL d   1      54.290  32.477  55.090  0.00  0.00     0.000 A 
ATOM     16  C   UNL d   1      53.761  32.973  55.488  0.00  0.00     0.000 A 
ATOM     17  C   UNL d   1      53.318  33.527  55.067  0.00  0.00     0.000 A 
ATOM     18  C   UNL d   1      53.405  33.587  54.249  0.00  0.00     0.005 A 
ENDBRANCH  11  13
ENDBRANCH   2  10
BRANCH   1  19
ATOM     19  C   UNL d   1      51.785  33.199  52.861  0.00  0.00     0.321 C 
ATOM     20  O   UNL d   1      51.949  33.608  52.154  0.00  0.00    -0.261 OA
ATOM     21  N   UNL d   1      51.281  33.516  53.411  0.00  0.00    -0.101 N 
ENDBRANCH   1  19
TORSDOF 3
ENDMDL
