MODEL 1
REMARK VINA RESULT:      70.6      0.000      0.000
REMARK  3 active torsions:
REMARK  status: ('A' for Active; 'I' for Inactive)
REMARK    1  A    between atoms: C_15  and  N_1 
REMARK       I    between atoms: C_6  and  N_7 
REMARK    2  A    between atoms: C_11  and  C_6 
REMARK    3  A    between atoms: N_7  and  C_8 
ROOT
ATOM      1  N   UNL d   1     -54.879-101.634 -37.699  0.00  0.00    -0.273 N 
ATOM      2  C   UNL d   1     -54.920-100.571 -37.584  0.00  0.00     0.265 A 
ATOM      3  C   UNL d   1     -54.838-101.728 -38.515  0.00  0.00     0.067 A 
ATOM      4  C   UNL d   1     -54.848-100.972 -38.844  0.00  0.00     0.022 A 
ATOM      5  C   UNL d   1     -54.892-100.326 -38.363  0.00  0.00     0.058 A 
ATOM      6  C   UNL d   1     -54.769-101.549 -40.141  0.00  0.00     0.084 A 
ATOM      7  C   UNL d   1     -54.813-100.882 -39.657  0.00  0.00     0.019 A 
ATOM      8  C   UNL d   1     -54.793-102.395 -38.998  0.00  0.00     0.019 A 
ATOM      9  O   UNL d   1     -54.966-100.021 -36.971  0.00  0.00    -0.267 OA
ATOM     10  C   UNL d   1     -54.759-102.306 -39.812  0.00  0.00     0.021 A 
ATOM     11  C   UNL d   1     -54.902 -99.570 -38.692  0.00  0.00     0.005 A 
ATOM     12  C   UNL d   1     -54.822-100.147 -39.989  0.00  0.00     0.002 A 
ATOM     13  C   UNL d   1     -54.867 -99.480 -39.505  0.00  0.00     0.000 A 
ENDROOT
BRANCH   6  14
ATOM     14  N   UNL d   1     -54.734-101.459 -40.953  0.00  0.00    -0.212 NA
ATOM     15  C   UNL d   1     -55.113-102.005 -41.442  0.00  0.00     0.255 C 
ATOM     16  O   UNL d   1     -55.515-102.623 -41.114  0.00  0.00    -0.270 OA
BRANCH  15  17
ATOM     17  C   UNL d   1     -55.079-101.916 -42.254  0.00  0.00     0.073 C 
ATOM     18  C   UNL d   1     -55.333-101.211 -42.601  0.00  0.00     0.009 C 
ATOM     19  C   UNL d   1     -54.790-102.531 -42.723  0.00  0.00     0.009 C 
ATOM     20  C   UNL d   1     -55.035-101.821 -43.188  0.00  0.00     0.009 C 
ENDBRANCH  15  17
ENDBRANCH   6  14
BRANCH   1  21
ATOM     21  C   UNL d   1     -54.878-102.321 -37.221  0.00  0.00     0.083 C 
ATOM     22  C   UNL d   1     -55.428-102.397 -36.642  0.00  0.00     0.021 C 
ENDBRANCH   1  21
TORSDOF 3
ENDMDL
