MODEL 1
REMARK VINA RESULT:      -1.2      0.000      0.000
REMARK  7 active torsions:
REMARK  status: ('A' for Active; 'I' for Inactive)
REMARK    1  A    between atoms: C_25  and  N_5 
REMARK    2  A    between atoms: C_11  and  C_6 
REMARK       I    between atoms: N_19  and  C_11 
REMARK    3  A    between atoms: N_15  and  C_28 
REMARK    4  A    between atoms: C_27  and  N_19 
REMARK    5  A    between atoms: C_26  and  C_25 
REMARK    6  A    between atoms: C_28  and  C_26 
REMARK    7  A    between atoms: C_29  and  C_27 
ROOT
ATOM      1  C   UNL d   1      33.167  21.254 -22.227  0.00  0.00     0.155 A 
ATOM      2  C   UNL d   1      33.110  20.834 -22.935  0.00  0.00     0.091 A 
ATOM      3  N   UNL d   1      33.209  22.078 -22.243  0.00  0.00    -0.210 NA
ATOM      4  N   UNL d   1      33.136  22.055 -23.664  0.00  0.00    -0.258 N 
ATOM      5  N   UNL d   1      33.183  20.855 -21.507  0.00  0.00    -0.274 N 
ATOM      6  C   UNL d   1      33.084  19.601 -22.204  0.00  0.00     0.094 A 
ATOM      7  C   UNL d   1      33.095  21.237 -23.657  0.00  0.00     0.269 A 
ATOM      8  C   UNL d   1      33.141  20.027 -21.488  0.00  0.00     0.175 A 
ATOM      9  C   UNL d   1      33.193  22.471 -22.955  0.00  0.00     0.152 A 
ATOM     10  C   UNL d   1      33.068  20.005 -22.926  0.00  0.00     0.016 A 
ATOM     11  C   UNL d   1      33.122  22.467 -24.381  0.00  0.00     0.084 A 
ATOM     12  C   UNL d   1      33.236  23.299 -22.962  0.00  0.00     0.038 A 
ATOM     13  N   UNL d   1      33.157  19.628 -20.768  0.00  0.00    -0.128 N 
ATOM     14  C   UNL d   1      33.163  23.286 -24.388  0.00  0.00     0.018 A 
ATOM     15  C   UNL d   1      33.220  23.702 -23.679  0.00  0.00     0.005 A 
ATOM     16  O   UNL d   1      33.037  20.817 -24.365  0.00  0.00    -0.266 OA
ATOM     17  C   UNL d   1      33.149  23.692 -25.096  0.00  0.00     0.002 C 
ENDROOT
BRANCH   6  18
ATOM     18  C   UNL d   1      33.042  18.786 -22.193  0.00  0.00     0.282 C 
ATOM     19  N   UNL d   1      32.811  18.372 -22.877  0.00  0.00    -0.206 NA
ATOM     20  O   UNL d   1      33.227  18.363 -21.509  0.00  0.00    -0.265 OA
BRANCH  19  21
ATOM     21  C   UNL d   1      32.769  17.552 -22.868  0.00  0.00     0.102 C 
BRANCH  21  22
ATOM     22  C   UNL d   1      32.389  17.147 -23.487  0.00  0.00     0.019 A 
ATOM     23  C   UNL d   1      31.645  16.815 -23.357  0.00  0.00     0.002 A 
ATOM     24  C   UNL d   1      31.257  16.409 -23.967  0.00  0.00     0.000 A 
ATOM     25  C   UNL d   1      31.621  16.339 -24.709  0.00  0.00     0.000 A 
ATOM     26  C   UNL d   1      32.374  16.678 -24.831  0.00  0.00     0.000 A 
ATOM     27  C   UNL d   1      32.753  17.080 -24.220  0.00  0.00     0.002 A 
ENDBRANCH  21  22
ENDBRANCH  19  21
ENDBRANCH   6  18
BRANCH   5  28
ATOM     28  C   UNL d   1      33.241  21.280 -20.801  0.00  0.00     0.085 C 
BRANCH  28  29
ATOM     29  C   UNL d   1      32.558  21.491 -20.392  0.00  0.00     0.038 C 
BRANCH  29  30
ATOM     30  C   UNL d   1      32.590  21.641 -19.576  0.00  0.00     0.083 C 
BRANCH  30  31
ATOM     31  N   UNL d   1      32.497  22.409 -19.293  0.00  0.00    -0.285 N 
ATOM     32  C   UNL d   1      32.097  23.013 -19.672  0.00  0.00     0.183 A 
ATOM     33  N   UNL d   1      32.149  23.692 -19.176  0.00  0.00    -0.222 NA
ATOM     34  C   UNL d   1      32.572  23.491 -18.517  0.00  0.00     0.120 A 
ATOM     35  C   UNL d   1      32.791  22.697 -18.583  0.00  0.00     0.102 A 
ENDBRANCH  30  31
ENDBRANCH  29  30
ENDBRANCH  28  29
ENDBRANCH   5  28
TORSDOF 7
ENDMDL
