MODEL 1
REMARK VINA RESULT:      73.7      0.000      0.000
REMARK  3 active torsions:
REMARK  status: ('A' for Active; 'I' for Inactive)
REMARK    1  A    between atoms: C_10  and  C_2 
REMARK    2  A    between atoms: C_4  and  C_10 
REMARK    3  A    between atoms: C_27  and  N_13 
ROOT
ATOM      1  C   UNL d   1      14.490  13.540  -0.944  0.00  0.00     0.093 A 
ATOM      2  C   UNL d   1      13.439  13.067  -2.141  0.00  0.00     0.035 A 
ATOM      3  C   UNL d   1      14.278  14.066  -1.477  0.00  0.00    -0.012 A 
ATOM      4  C   UNL d   1      15.421  15.838  -0.767  0.00  0.00     0.056 A 
ATOM      5  C   UNL d   1      13.649  12.529  -1.605  0.00  0.00     0.180 A 
ATOM      6  C   UNL d   1      15.210  16.359  -1.295  0.00  0.00    -0.012 A 
ATOM      7  C   UNL d   1      15.114  15.070  -0.820  0.00  0.00    -0.016 A 
ATOM      8  C   UNL d   1      14.592  14.834  -1.414  0.00  0.00    -0.007 A 
ATOM      9  C   UNL d   1      13.755  13.829  -2.072  0.00  0.00    -0.001 A 
ATOM     10  C   UNL d   1      14.683  16.117  -1.893  0.00  0.00    -0.004 A 
ATOM     11  C   UNL d   1      15.017  13.782  -0.346  0.00  0.00    -0.016 A 
ATOM     12  C   UNL d   1      14.374  15.354  -1.952  0.00  0.00    -0.001 A 
ATOM     13  C   UNL d   1      15.327  14.544  -0.287  0.00  0.00    -0.007 A 
ATOM     14  C   UNL d   1      15.942  16.075  -0.174  0.00  0.00    -0.015 A 
ATOM     15  C   UNL d   1      15.525  17.145  -1.239  0.00  0.00     0.038 A 
ATOM     16  O   UNL d   1      13.452  11.779  -1.519  0.00  0.00    -0.291 OA
ATOM     17  C   UNL d   1      14.705  13.008  -0.404  0.00  0.00     0.017 C 
ATOM     18  C   UNL d   1      16.269  16.849  -0.096  0.00  0.00     0.038 A 
ATOM     19  C   UNL d   1      16.054  17.382  -0.636  0.00  0.00     0.195 A 
ATOM     20  C   UNL d   1      15.716  15.126  -0.033  0.00  0.00     0.013 C 
ATOM     21  O   UNL d   1      16.353  18.132  -0.584  0.00  0.00    -0.287 OA
ENDROOT
BRANCH   2  22
ATOM     22  C   UNL d   1      12.930  12.872  -2.737  0.00  0.00     0.006 C 
BRANCH  22  23
ATOM     23  C   UNL d   1      13.185  12.667  -3.490  0.00  0.00     0.039 A 
ATOM     24  C   UNL d   1      13.195  13.007  -4.219  0.00  0.00     0.085 A 
ATOM     25  N   UNL d   1      13.552  12.461  -4.750  0.00  0.00    -0.228 N 
ATOM     26  C   UNL d   1      12.874  13.779  -4.319  0.00  0.00     0.021 C 
ATOM     27  N   UNL d   1      13.766  11.779  -4.348  0.00  0.00    -0.164 NA
ATOM     28  C   UNL d   1      13.537  11.907  -3.561  0.00  0.00     0.122 A 
BRANCH  25  29
ATOM     29  C   UNL d   1      13.670  12.602  -5.569  0.00  0.00     0.101 C 
ATOM     30  C   UNL d   1      13.767  11.948  -6.103  0.00  0.00     0.022 C 
ENDBRANCH  25  29
ENDBRANCH  22  23
ENDBRANCH   2  22
TORSDOF 3
ENDMDL
