MODEL 1
REMARK VINA RESULT:      -7.8      0.000      0.000
REMARK  4 active torsions:
REMARK  status: ('A' for Active; 'I' for Inactive)
REMARK    1  A    between atoms: N_2  and  S_1 
REMARK    2  A    between atoms: C_5  and  S_1 
REMARK    3  A    between atoms: O_16  and  C_11 
REMARK    4  A    between atoms: C_19  and  O_16 
ROOT
ATOM      1  C   UNL d   1     -47.665  12.892  23.153  0.00  0.00     0.107 A 
ATOM      2  C   UNL d   1     -46.890  13.054  22.925  0.00  0.00     0.040 A 
ATOM      3  C   UNL d   1     -46.289  12.509  23.083  0.00  0.00     0.128 A 
ATOM      4  C   UNL d   1     -46.464  11.803  23.469  0.00  0.00     0.163 A 
ATOM      5  C   UNL d   1     -47.840  12.184  23.540  0.00  0.00     0.015 A 
ATOM      6  C   UNL d   1     -47.239  11.640  23.698  0.00  0.00     0.032 A 
ATOM      7  F   UNL d   1     -45.863  11.258  23.627  0.00  0.00    -0.202 F 
ENDROOT
BRANCH   1   8
ATOM      8  S   UNL d   1     -48.265  13.436  22.995  0.00  0.00     0.286 S 
ATOM      9  O   UNL d   1     -48.800  12.816  22.888  0.00  0.00    -0.198 OA
ATOM     10  O   UNL d   1     -47.731  14.057  23.103  0.00  0.00    -0.198 OA
BRANCH   8  11
ATOM     11  N   UNL d   1     -48.866  13.981  22.837  0.00  0.00    -0.152 N 
ATOM     12  N   UNL d   1     -49.192  14.516  23.371  0.00  0.00    -0.155 NA
ATOM     13  C   UNL d   1     -49.771  14.951  22.985  0.00  0.00     0.104 A 
ATOM     14  C   UNL d   1     -50.238  15.550  23.319  0.00  0.00     0.022 C 
ATOM     15  C   UNL d   1     -49.807  14.685  22.204  0.00  0.00     0.041 A 
ATOM     16  C   UNL d   1     -49.250  14.088  22.112  0.00  0.00     0.096 A 
ATOM     17  C   UNL d   1     -49.096  13.665  21.420  0.00  0.00     0.022 C 
ENDBRANCH   8  11
ENDBRANCH   1   8
BRANCH   3  18
ATOM     18  O   UNL d   1     -45.514  12.672  22.855  0.00  0.00    -0.303 OA
BRANCH  18  19
ATOM     19  C   UNL d   1     -45.351  12.922  22.079  0.00  0.00     0.123 C 
ATOM     20  C   UNL d   1     -44.571  12.992  21.822  0.00  0.00     0.029 C 
ENDBRANCH  18  19
ENDBRANCH   3  18
TORSDOF 4
ENDMDL
MODEL 2
REMARK VINA RESULT:      -7.7      1.266      1.556
REMARK  4 active torsions:
REMARK  status: ('A' for Active; 'I' for Inactive)
REMARK    1  A    between atoms: N_2  and  S_1 
REMARK    2  A    between atoms: C_5  and  S_1 
REMARK    3  A    between atoms: O_16  and  C_11 
REMARK    4  A    between atoms: C_19  and  O_16 
ROOT
ATOM      1  C   UNL d   1     -48.151  12.121  23.180  0.00  0.00     0.107 A 
ATOM      2  C   UNL d   1     -47.485  12.585  23.035  0.00  0.00     0.040 A 
ATOM      3  C   UNL d   1     -46.732  12.293  23.208  0.00  0.00     0.128 A 
ATOM      4  C   UNL d   1     -46.644  11.537  23.525  0.00  0.00     0.163 A 
ATOM      5  C   UNL d   1     -48.064  11.365  23.497  0.00  0.00     0.015 A 
ATOM      6  C   UNL d   1     -47.311  11.073  23.670  0.00  0.00     0.032 A 
ATOM      7  F   UNL d   1     -45.891  11.245  23.698  0.00  0.00    -0.202 F 
ENDROOT
BRANCH   1   8
ATOM      8  S   UNL d   1     -48.904  12.413  23.007  0.00  0.00     0.286 S 
ATOM      9  O   UNL d   1     -48.858  12.917  23.659  0.00  0.00    -0.198 OA
ATOM     10  O   UNL d   1     -48.950  11.909  22.354  0.00  0.00    -0.198 OA
BRANCH   8  11
ATOM     11  N   UNL d   1     -49.657  12.705  22.834  0.00  0.00    -0.152 N 
ATOM     12  N   UNL d   1     -49.835  13.321  22.318  0.00  0.00    -0.155 NA
ATOM     13  C   UNL d   1     -50.648  13.430  22.310  0.00  0.00     0.104 A 
ATOM     14  C   UNL d   1     -51.063  13.993  21.865  0.00  0.00     0.022 C 
ATOM     15  C   UNL d   1     -50.980  12.877  22.827  0.00  0.00     0.041 A 
ATOM     16  C   UNL d   1     -50.371  12.431  23.149  0.00  0.00     0.096 A 
ATOM     17  C   UNL d   1     -50.451  11.815  23.693  0.00  0.00     0.022 C 
ENDBRANCH   8  11
ENDBRANCH   1   8
BRANCH   3  18
ATOM     18  O   UNL d   1     -46.066  12.756  23.064  0.00  0.00    -0.303 OA
BRANCH  18  19
ATOM     19  C   UNL d   1     -46.075  13.322  22.455  0.00  0.00     0.123 C 
ATOM     20  C   UNL d   1     -45.368  13.628  22.163  0.00  0.00     0.029 C 
ENDBRANCH  18  19
ENDBRANCH   3  18
TORSDOF 4
ENDMDL
MODEL 3
REMARK VINA RESULT:      -7.7      1.905      3.966
REMARK  4 active torsions:
REMARK  status: ('A' for Active; 'I' for Inactive)
REMARK    1  A    between atoms: N_2  and  S_1 
REMARK    2  A    between atoms: C_5  and  S_1 
REMARK    3  A    between atoms: O_16  and  C_11 
REMARK    4  A    between atoms: C_19  and  O_16 
ROOT
ATOM      1  C   UNL d   1     -48.848  13.175  22.380  0.00  0.00     0.107 A 
ATOM      2  C   UNL d   1     -49.190  13.835  22.735  0.00  0.00     0.040 A 
ATOM      3  C   UNL d   1     -49.900  14.141  22.443  0.00  0.00     0.128 A 
ATOM      4  C   UNL d   1     -50.268  13.786  21.796  0.00  0.00     0.163 A 
ATOM      5  C   UNL d   1     -49.216  12.820  21.732  0.00  0.00     0.015 A 
ATOM      6  C   UNL d   1     -49.926  13.125  21.441  0.00  0.00     0.032 A 
ATOM      7  F   UNL d   1     -50.977  14.092  21.505  0.00  0.00    -0.202 F 
ENDROOT
BRANCH   1   8
ATOM      8  S   UNL d   1     -48.139  12.869  22.671  0.00  0.00     0.286 S 
ATOM      9  O   UNL d   1     -48.517  12.662  23.376  0.00  0.00    -0.198 OA
ATOM     10  O   UNL d   1     -47.760  13.076  21.967  0.00  0.00    -0.198 OA
BRANCH   8  11
ATOM     11  N   UNL d   1     -47.429  12.563  22.963  0.00  0.00    -0.152 N 
ATOM     12  N   UNL d   1     -47.283  11.780  23.170  0.00  0.00    -0.155 NA
ATOM     13  C   UNL d   1     -46.509  11.718  23.433  0.00  0.00     0.104 A 
ATOM     14  C   UNL d   1     -46.134  11.026  23.695  0.00  0.00     0.022 C 
ATOM     15  C   UNL d   1     -46.168  12.469  23.390  0.00  0.00     0.041 A 
ATOM     16  C   UNL d   1     -46.734  12.990  23.101  0.00  0.00     0.096 A 
ATOM     17  C   UNL d   1     -46.631  13.798  22.969  0.00  0.00     0.022 C 
ENDBRANCH   8  11
ENDBRANCH   1   8
BRANCH   3  18
ATOM     18  O   UNL d   1     -50.242  14.801  22.798  0.00  0.00    -0.303 OA
BRANCH  18  19
ATOM     19  C   UNL d   1     -49.790  15.287  23.300  0.00  0.00     0.123 C 
ATOM     20  C   UNL d   1     -50.145  15.915  23.698  0.00  0.00     0.029 C 
ENDBRANCH  18  19
ENDBRANCH   3  18
TORSDOF 4
ENDMDL
MODEL 4
REMARK VINA RESULT:      -7.5      1.938      4.029
REMARK  4 active torsions:
REMARK  status: ('A' for Active; 'I' for Inactive)
REMARK    1  A    between atoms: N_2  and  S_1 
REMARK    2  A    between atoms: C_5  and  S_1 
REMARK    3  A    between atoms: O_16  and  C_11 
REMARK    4  A    between atoms: C_19  and  O_16 
ROOT
ATOM      1  C   UNL d   1     -48.314  14.097  22.721  0.00  0.00     0.107 A 
ATOM      2  C   UNL d   1     -48.992  13.644  22.838  0.00  0.00     0.040 A 
ATOM      3  C   UNL d   1     -49.732  14.008  22.874  0.00  0.00     0.128 A 
ATOM      4  C   UNL d   1     -49.795  14.825  22.791  0.00  0.00     0.163 A 
ATOM      5  C   UNL d   1     -48.376  14.916  22.638  0.00  0.00     0.015 A 
ATOM      6  C   UNL d   1     -49.117  15.279  22.673  0.00  0.00     0.032 A 
ATOM      7  F   UNL d   1     -50.536  15.189  22.826  0.00  0.00    -0.202 F 
ENDROOT
BRANCH   1   8
ATOM      8  S   UNL d   1     -47.573  13.733  22.685  0.00  0.00     0.286 S 
ATOM      9  O   UNL d   1     -47.823  13.289  22.035  0.00  0.00    -0.198 OA
ATOM     10  O   UNL d   1     -47.324  14.178  23.336  0.00  0.00    -0.198 OA
BRANCH   8  11
ATOM     11  N   UNL d   1     -46.833  13.369  22.650  0.00  0.00    -0.152 N 
ATOM     12  N   UNL d   1     -46.208  13.580  22.156  0.00  0.00    -0.155 NA
ATOM     13  C   UNL d   1     -45.578  13.075  22.301  0.00  0.00     0.104 A 
ATOM     14  C   UNL d   1     -44.839  13.093  21.925  0.00  0.00     0.022 C 
ATOM     15  C   UNL d   1     -45.811  12.545  22.891  0.00  0.00     0.041 A 
ATOM     16  C   UNL d   1     -46.583  12.726  23.106  0.00  0.00     0.096 A 
ATOM     17  C   UNL d   1     -47.035  12.336  23.677  0.00  0.00     0.022 C 
ENDBRANCH   8  11
ENDBRANCH   1   8
BRANCH   3  18
ATOM     18  O   UNL d   1     -50.410  13.554  22.991  0.00  0.00    -0.303 OA
BRANCH  18  19
ATOM     19  C   UNL d   1     -50.475  13.066  23.661  0.00  0.00     0.123 C 
ATOM     20  C   UNL d   1     -51.053  12.479  23.692  0.00  0.00     0.029 C 
ENDBRANCH  18  19
ENDBRANCH   3  18
TORSDOF 4
ENDMDL
MODEL 5
REMARK VINA RESULT:      -7.3      1.060      1.727
REMARK  4 active torsions:
REMARK  status: ('A' for Active; 'I' for Inactive)
REMARK    1  A    between atoms: N_2  and  S_1 
REMARK    2  A    between atoms: C_5  and  S_1 
REMARK    3  A    between atoms: O_16  and  C_11 
REMARK    4  A    between atoms: C_19  and  O_16 
ROOT
ATOM      1  C   UNL d   1     -47.811  14.047  22.873  0.00  0.00     0.107 A 
ATOM      2  C   UNL d   1     -47.640  13.303  23.184  0.00  0.00     0.040 A 
ATOM      3  C   UNL d   1     -46.861  13.029  23.194  0.00  0.00     0.128 A 
ATOM      4  C   UNL d   1     -46.254  13.497  22.892  0.00  0.00     0.163 A 
ATOM      5  C   UNL d   1     -47.204  14.516  22.571  0.00  0.00     0.015 A 
ATOM      6  C   UNL d   1     -46.425  14.241  22.581  0.00  0.00     0.032 A 
ATOM      7  F   UNL d   1     -45.475  13.223  22.902  0.00  0.00    -0.202 F 
ENDROOT
BRANCH   1   8
ATOM      8  S   UNL d   1     -48.590  14.321  22.863  0.00  0.00     0.286 S 
ATOM      9  O   UNL d   1     -48.662  14.147  23.667  0.00  0.00    -0.198 OA
ATOM     10  O   UNL d   1     -48.519  14.496  22.059  0.00  0.00    -0.198 OA
BRANCH   8  11
ATOM     11  N   UNL d   1     -49.369  14.596  22.853  0.00  0.00    -0.152 N 
ATOM     12  N   UNL d   1     -49.685  15.185  23.335  0.00  0.00    -0.155 NA
ATOM     13  C   UNL d   1     -50.476  15.284  23.142  0.00  0.00     0.104 A 
ATOM     14  C   UNL d   1     -51.003  15.821  23.492  0.00  0.00     0.022 C 
ATOM     15  C   UNL d   1     -50.656  14.753  22.535  0.00  0.00     0.041 A 
ATOM     16  C   UNL d   1     -49.975  14.329  22.357  0.00  0.00     0.096 A 
ATOM     17  C   UNL d   1     -49.902  13.740  21.784  0.00  0.00     0.022 C 
ENDBRANCH   8  11
ENDBRANCH   1   8
BRANCH   3  18
ATOM     18  O   UNL d   1     -46.689  12.285  23.505  0.00  0.00    -0.303 OA
BRANCH  18  19
ATOM     19  C   UNL d   1     -47.287  11.711  23.571  0.00  0.00     0.123 C 
ATOM     20  C   UNL d   1     -47.091  10.921  23.698  0.00  0.00     0.029 C 
ENDBRANCH  18  19
ENDBRANCH   3  18
TORSDOF 4
ENDMDL
MODEL 6
REMARK VINA RESULT:      -6.9      1.633      2.097
REMARK  4 active torsions:
REMARK  status: ('A' for Active; 'I' for Inactive)
REMARK    1  A    between atoms: N_2  and  S_1 
REMARK    2  A    between atoms: C_5  and  S_1 
REMARK    3  A    between atoms: O_16  and  C_11 
REMARK    4  A    between atoms: C_19  and  O_16 
ROOT
ATOM      1  C   UNL d   1     -47.712  13.605  22.715  0.00  0.00     0.107 A 
ATOM      2  C   UNL d   1     -46.978  13.230  22.735  0.00  0.00     0.040 A 
ATOM      3  C   UNL d   1     -46.284  13.677  22.709  0.00  0.00     0.128 A 
ATOM      4  C   UNL d   1     -46.323  14.499  22.663  0.00  0.00     0.163 A 
ATOM      5  C   UNL d   1     -47.752  14.428  22.669  0.00  0.00     0.015 A 
ATOM      6  C   UNL d   1     -47.057  14.875  22.643  0.00  0.00     0.032 A 
ATOM      7  F   UNL d   1     -45.629  14.946  22.637  0.00  0.00    -0.202 F 
ENDROOT
BRANCH   1   8
ATOM      8  S   UNL d   1     -48.406  13.158  22.741  0.00  0.00     0.286 S 
ATOM      9  O   UNL d   1     -48.007  12.520  22.401  0.00  0.00    -0.198 OA
ATOM     10  O   UNL d   1     -48.804  13.797  23.081  0.00  0.00    -0.198 OA
BRANCH   8  11
ATOM     11  N   UNL d   1     -49.100  12.711  22.767  0.00  0.00    -0.152 N 
ATOM     12  N   UNL d   1     -49.401  12.315  23.423  0.00  0.00    -0.155 NA
ATOM     13  C   UNL d   1     -50.098  11.942  23.206  0.00  0.00     0.104 A 
ATOM     14  C   UNL d   1     -50.582  11.481  23.698  0.00  0.00     0.022 C 
ATOM     15  C   UNL d   1     -50.235  12.107  22.408  0.00  0.00     0.041 A 
ATOM     16  C   UNL d   1     -49.620  12.581  22.137  0.00  0.00     0.096 A 
ATOM     17  C   UNL d   1     -49.533  12.877  21.372  0.00  0.00     0.022 C 
ENDBRANCH   8  11
ENDBRANCH   1   8
BRANCH   3  18
ATOM     18  O   UNL d   1     -45.550  13.302  22.729  0.00  0.00    -0.303 OA
BRANCH  18  19
ATOM     19  C   UNL d   1     -45.163  13.104  22.021  0.00  0.00     0.123 C 
ATOM     20  C   UNL d   1     -44.485  12.637  22.037  0.00  0.00     0.029 C 
ENDBRANCH  18  19
ENDBRANCH   3  18
TORSDOF 4
ENDMDL
MODEL 7
REMARK VINA RESULT:      -6.1      8.129      9.116
REMARK  4 active torsions:
REMARK  status: ('A' for Active; 'I' for Inactive)
REMARK    1  A    between atoms: N_2  and  S_1 
REMARK    2  A    between atoms: C_5  and  S_1 
REMARK    3  A    between atoms: O_16  and  C_11 
REMARK    4  A    between atoms: C_19  and  O_16 
ROOT
ATOM      1  C   UNL d   1     -39.771  14.639  19.178  0.00  0.00     0.107 A 
ATOM      2  C   UNL d   1     -40.357  14.850  18.638  0.00  0.00     0.040 A 
ATOM      3  C   UNL d   1     -40.352  14.532  17.876  0.00  0.00     0.128 A 
ATOM      4  C   UNL d   1     -39.761  14.002  17.653  0.00  0.00     0.163 A 
ATOM      5  C   UNL d   1     -39.180  14.108  18.955  0.00  0.00     0.015 A 
ATOM      6  C   UNL d   1     -39.175  13.790  18.193  0.00  0.00     0.032 A 
ATOM      7  F   UNL d   1     -39.757  13.684  16.891  0.00  0.00    -0.202 F 
ENDROOT
BRANCH   1   8
ATOM      8  S   UNL d   1     -39.776  14.957  19.940  0.00  0.00     0.286 S 
ATOM      9  O   UNL d   1     -40.241  14.326  20.200  0.00  0.00    -0.198 OA
ATOM     10  O   UNL d   1     -39.310  15.588  19.679  0.00  0.00    -0.198 OA
BRANCH   8  11
ATOM     11  N   UNL d   1     -39.780  15.275  20.702  0.00  0.00    -0.152 N 
ATOM     12  N   UNL d   1     -39.180  15.211  21.262  0.00  0.00    -0.155 NA
ATOM     13  C   UNL d   1     -39.412  15.607  21.941  0.00  0.00     0.104 A 
ATOM     14  C   UNL d   1     -38.972  15.680  22.641  0.00  0.00     0.022 C 
ATOM     15  C   UNL d   1     -40.163  15.922  21.805  0.00  0.00     0.041 A 
ATOM     16  C   UNL d   1     -40.391  15.718  21.042  0.00  0.00     0.096 A 
ATOM     17  C   UNL d   1     -41.103  15.917  20.675  0.00  0.00     0.022 C 
ENDBRANCH   8  11
ENDBRANCH   1   8
BRANCH   3  18
ATOM     18  O   UNL d   1     -40.938  14.743  17.336  0.00  0.00    -0.303 OA
BRANCH  18  19
ATOM     19  C   UNL d   1     -40.985  15.524  17.055  0.00  0.00     0.123 C 
ATOM     20  C   UNL d   1     -41.637  15.767  16.614  0.00  0.00     0.029 C 
ENDBRANCH  18  19
ENDBRANCH   3  18
TORSDOF 4
ENDMDL
MODEL 8
REMARK VINA RESULT:      -5.9      8.153      9.306
REMARK  4 active torsions:
REMARK  status: ('A' for Active; 'I' for Inactive)
REMARK    1  A    between atoms: N_2  and  S_1 
REMARK    2  A    between atoms: C_5  and  S_1 
REMARK    3  A    between atoms: O_16  and  C_11 
REMARK    4  A    between atoms: C_19  and  O_16 
ROOT
ATOM      1  C   UNL d   1     -40.266  15.013  19.299  0.00  0.00     0.107 A 
ATOM      2  C   UNL d   1     -40.086  14.566  19.967  0.00  0.00     0.040 A 
ATOM      3  C   UNL d   1     -40.378  14.790  20.706  0.00  0.00     0.128 A 
ATOM      4  C   UNL d   1     -40.850  15.461  20.778  0.00  0.00     0.163 A 
ATOM      5  C   UNL d   1     -40.739  15.685  19.370  0.00  0.00     0.015 A 
ATOM      6  C   UNL d   1     -41.031  15.909  20.109  0.00  0.00     0.032 A 
ATOM      7  F   UNL d   1     -41.142  15.686  21.517  0.00  0.00    -0.202 F 
ENDROOT
BRANCH   1   8
ATOM      8  S   UNL d   1     -39.975  14.789  18.559  0.00  0.00     0.286 S 
ATOM      9  O   UNL d   1     -40.505  14.155  18.542  0.00  0.00    -0.198 OA
ATOM     10  O   UNL d   1     -39.444  15.422  18.576  0.00  0.00    -0.198 OA
BRANCH   8  11
ATOM     11  N   UNL d   1     -39.683  14.564  17.820  0.00  0.00    -0.152 N 
ATOM     12  N   UNL d   1     -39.014  14.106  17.678  0.00  0.00    -0.155 NA
ATOM     13  C   UNL d   1     -38.925  14.017  16.867  0.00  0.00     0.104 A 
ATOM     14  C   UNL d   1     -38.323  13.595  16.483  0.00  0.00     0.022 C 
ATOM     15  C   UNL d   1     -39.544  14.423  16.500  0.00  0.00     0.041 A 
ATOM     16  C   UNL d   1     -40.011  14.760  17.086  0.00  0.00     0.096 A 
ATOM     17  C   UNL d   1     -40.689  15.215  16.968  0.00  0.00     0.022 C 
ENDBRANCH   8  11
ENDBRANCH   1   8
BRANCH   3  18
ATOM     18  O   UNL d   1     -40.197  14.343  21.375  0.00  0.00    -0.303 OA
BRANCH  18  19
ATOM     19  C   UNL d   1     -39.407  14.148  21.546  0.00  0.00     0.123 C 
ATOM     20  C   UNL d   1     -39.231  13.653  22.180  0.00  0.00     0.029 C 
ENDBRANCH  18  19
ENDBRANCH   3  18
TORSDOF 4
ENDMDL
