MODEL 1
REMARK VINA RESULT:      -8.1      0.000      0.000
REMARK  3 active torsions:
REMARK  status: ('A' for Active; 'I' for Inactive)
REMARK    1  A    between atoms: C_7  and  C_2 
REMARK       I    between atoms: N_9  and  C_7 
REMARK    2  A    between atoms: C_12  and  N_9 
REMARK    3  A    between atoms: C_11  and  C_12 
ROOT
ATOM      1  C   UNL d   1      53.602  32.691  53.267  0.00  0.00     0.285 C 
ATOM      2  N   UNL d   1      52.990  33.236  53.162  0.00  0.00    -0.206 NA
ATOM      3  O   UNL d   1      54.377  32.951  53.364  0.00  0.00    -0.265 OA
ENDROOT
BRANCH   1   4
ATOM      4  C   UNL d   1      53.434  31.876  53.275  0.00  0.00     0.133 A 
ATOM      5  C   UNL d   1      53.532  31.431  53.966  0.00  0.00     0.272 A 
ATOM      6  N   UNL d   1      53.366  30.634  53.964  0.00  0.00    -0.252 N 
ATOM      7  O   UNL d   1      53.799  31.798  54.654  0.00  0.00    -0.266 OA
ATOM      8  C   UNL d   1      53.099  30.267  53.277  0.00  0.00     0.182 A 
ATOM      9  C   UNL d   1      53.408  30.059  54.552  0.00  0.00     0.092 A 
ATOM     10  N   UNL d   1      53.000  30.698  52.592  0.00  0.00    -0.220 NA
ATOM     11  S   UNL d   1      52.977  29.465  53.439  0.00  0.00    -0.048 SA
ATOM     12  C   UNL d   1      53.168  31.509  52.588  0.00  0.00     0.111 A 
ATOM     13  C   UNL d   1      53.169  29.339  54.228  0.00  0.00     0.057 A 
ENDBRANCH   1   4
BRANCH   2  14
ATOM     14  C   UNL d   1      52.216  32.971  53.065  0.00  0.00     0.103 C 
BRANCH  14  15
ATOM     15  C   UNL d   1      51.636  33.500  52.825  0.00  0.00     0.030 A 
ATOM     16  C   UNL d   1      50.891  33.495  53.188  0.00  0.00     0.059 A 
ATOM     17 CL   UNL d   1      50.734  32.957  53.791  0.00  0.00    -0.082 Cl
ATOM     18  C   UNL d   1      50.309  34.019  52.954  0.00  0.00     0.011 A 
ATOM     19  C   UNL d   1      50.464  34.564  52.345  0.00  0.00     0.001 A 
ATOM     20  C   UNL d   1      51.204  34.571  51.982  0.00  0.00     0.000 A 
ATOM     21  C   UNL d   1      51.793  34.039  52.222  0.00  0.00     0.002 A 
ENDBRANCH  14  15
ENDBRANCH   2  14
TORSDOF 3
ENDMDL
MODEL 2
REMARK VINA RESULT:      -8.1      2.215      3.868
REMARK  3 active torsions:
REMARK  status: ('A' for Active; 'I' for Inactive)
REMARK    1  A    between atoms: C_7  and  C_2 
REMARK       I    between atoms: N_9  and  C_7 
REMARK    2  A    between atoms: C_12  and  N_9 
REMARK    3  A    between atoms: C_11  and  C_12 
ROOT
ATOM      1  C   UNL d   1      54.645  32.658  53.513  0.00  0.00     0.285 C 
ATOM      2  N   UNL d   1      54.323  31.912  53.368  0.00  0.00    -0.206 NA
ATOM      3  O   UNL d   1      55.393  32.852  53.226  0.00  0.00    -0.265 OA
ENDROOT
BRANCH   1   4
ATOM      4  C   UNL d   1      54.212  33.218  53.951  0.00  0.00     0.133 A 
ATOM      5  C   UNL d   1      53.827  33.846  53.572  0.00  0.00     0.272 A 
ATOM      6  N   UNL d   1      53.406  34.389  54.009  0.00  0.00    -0.252 N 
ATOM      7  O   UNL d   1      53.874  33.919  52.752  0.00  0.00    -0.266 OA
ATOM      8  C   UNL d   1      53.360  34.316  54.828  0.00  0.00     0.182 A 
ATOM      9  C   UNL d   1      52.975  35.057  53.793  0.00  0.00     0.092 A 
ATOM     10  N   UNL d   1      53.735  33.701  55.209  0.00  0.00    -0.220 NA
ATOM     11  S   UNL d   1      52.900  34.939  55.120  0.00  0.00    -0.048 SA
ATOM     12  C   UNL d   1      54.165  33.146  54.770  0.00  0.00     0.111 A 
ATOM     13  C   UNL d   1      52.664  35.395  54.478  0.00  0.00     0.057 A 
ENDBRANCH   1   4
BRANCH   2  14
ATOM     14  C   UNL d   1      53.576  31.723  53.657  0.00  0.00     0.103 C 
BRANCH  14  15
ATOM     15  C   UNL d   1      53.309  30.948  53.610  0.00  0.00     0.030 A 
ATOM     16  C   UNL d   1      52.616  30.769  53.191  0.00  0.00     0.059 A 
ATOM     17 CL   UNL d   1      52.195  31.372  52.822  0.00  0.00    -0.082 Cl
ATOM     18  C   UNL d   1      52.346  30.000  53.141  0.00  0.00     0.011 A 
ATOM     19  C   UNL d   1      52.769  29.387  53.513  0.00  0.00     0.001 A 
ATOM     20  C   UNL d   1      53.458  29.563  53.929  0.00  0.00     0.000 A 
ATOM     21  C   UNL d   1      53.731  30.344  53.979  0.00  0.00     0.002 A 
ENDBRANCH  14  15
ENDBRANCH   2  14
TORSDOF 3
ENDMDL
MODEL 3
REMARK VINA RESULT:      -8.1      1.853      2.613
REMARK  3 active torsions:
REMARK  status: ('A' for Active; 'I' for Inactive)
REMARK    1  A    between atoms: C_7  and  C_2 
REMARK       I    between atoms: N_9  and  C_7 
REMARK    2  A    between atoms: C_12  and  N_9 
REMARK    3  A    between atoms: C_11  and  C_12 
ROOT
ATOM      1  C   UNL d   1      53.222  32.091  53.380  0.00  0.00     0.285 C 
ATOM      2  N   UNL d   1      52.565  32.454  53.035  0.00  0.00    -0.206 NA
ATOM      3  O   UNL d   1      53.434  31.324  53.165  0.00  0.00    -0.265 OA
ENDROOT
BRANCH   1   4
ATOM      4  C   UNL d   1      53.672  32.502  53.948  0.00  0.00     0.133 A 
ATOM      5  C   UNL d   1      54.412  32.816  53.752  0.00  0.00     0.272 A 
ATOM      6  N   UNL d   1      54.845  33.217  54.314  0.00  0.00    -0.252 N 
ATOM      7  O   UNL d   1      54.708  32.722  52.989  0.00  0.00    -0.266 OA
ATOM      8  C   UNL d   1      54.549  33.310  55.077  0.00  0.00     0.182 A 
ATOM      9  C   UNL d   1      55.582  33.583  54.286  0.00  0.00     0.092 A 
ATOM     10  N   UNL d   1      53.821  33.004  55.277  0.00  0.00    -0.220 NA
ATOM     11  S   UNL d   1      55.103  33.735  55.522  0.00  0.00    -0.048 SA
ATOM     12  C   UNL d   1      53.376  32.595  54.710  0.00  0.00     0.111 A 
ATOM     13  C   UNL d   1      55.740  33.902  55.030  0.00  0.00     0.057 A 
ENDBRANCH   1   4
BRANCH   2  14
ATOM     14  C   UNL d   1      52.357  33.220  53.253  0.00  0.00     0.103 C 
BRANCH  14  15
ATOM     15  C   UNL d   1      51.633  33.524  53.015  0.00  0.00     0.030 A 
ATOM     16  C   UNL d   1      51.592  34.261  52.638  0.00  0.00     0.059 A 
ATOM     17 CL   UNL d   1      52.283  34.688  52.503  0.00  0.00    -0.082 Cl
ATOM     18  C   UNL d   1      50.874  34.569  52.399  0.00  0.00     0.011 A 
ATOM     19  C   UNL d   1      50.174  34.140  52.534  0.00  0.00     0.001 A 
ATOM     20  C   UNL d   1      50.212  33.407  52.908  0.00  0.00     0.000 A 
ATOM     21  C   UNL d   1      50.941  33.096  53.150  0.00  0.00     0.002 A 
ENDBRANCH  14  15
ENDBRANCH   2  14
TORSDOF 3
ENDMDL
MODEL 4
REMARK VINA RESULT:      -7.6      1.665      3.835
REMARK  3 active torsions:
REMARK  status: ('A' for Active; 'I' for Inactive)
REMARK    1  A    between atoms: C_7  and  C_2 
REMARK       I    between atoms: N_9  and  C_7 
REMARK    2  A    between atoms: C_12  and  N_9 
REMARK    3  A    between atoms: C_11  and  C_12 
ROOT
ATOM      1  C   UNL d   1      54.069  32.509  53.748  0.00  0.00     0.285 C 
ATOM      2  N   UNL d   1      54.042  31.689  53.837  0.00  0.00    -0.206 NA
ATOM      3  O   UNL d   1      54.749  32.927  53.954  0.00  0.00    -0.265 OA
ENDROOT
BRANCH   1   4
ATOM      4  C   UNL d   1      53.407  32.916  53.451  0.00  0.00     0.133 A 
ATOM      5  C   UNL d   1      52.980  33.437  53.933  0.00  0.00     0.272 A 
ATOM      6  N   UNL d   1      52.333  33.831  53.632  0.00  0.00    -0.252 N 
ATOM      7  O   UNL d   1      53.211  33.554  54.715  0.00  0.00    -0.266 OA
ATOM      8  C   UNL d   1      52.102  33.714  52.851  0.00  0.00     0.182 A 
ATOM      9  C   UNL d   1      51.810  34.371  53.969  0.00  0.00     0.092 A 
ATOM     10  N   UNL d   1      52.517  33.204  52.370  0.00  0.00    -0.220 NA
ATOM     11  S   UNL d   1      51.435  34.181  52.703  0.00  0.00    -0.048 SA
ATOM     12  C   UNL d   1      53.176  32.800  52.670  0.00  0.00     0.111 A 
ATOM     13  C   UNL d   1      51.257  34.586  53.396  0.00  0.00     0.057 A 
ENDBRANCH   1   4
BRANCH   2  14
ATOM     14  C   UNL d   1      53.360  31.276  53.630  0.00  0.00     0.103 C 
BRANCH  14  15
ATOM     15  C   UNL d   1      53.281  30.490  53.856  0.00  0.00     0.030 A 
ATOM     16  C   UNL d   1      52.991  29.929  53.319  0.00  0.00     0.059 A 
ATOM     17 CL   UNL d   1      52.783  30.162  52.558  0.00  0.00    -0.082 Cl
ATOM     18  C   UNL d   1      52.909  29.145  53.537  0.00  0.00     0.011 A 
ATOM     19  C   UNL d   1      53.119  28.906  54.306  0.00  0.00     0.001 A 
ATOM     20  C   UNL d   1      53.408  29.463  54.842  0.00  0.00     0.000 A 
ATOM     21  C   UNL d   1      53.489  30.257  54.618  0.00  0.00     0.002 A 
ENDBRANCH  14  15
ENDBRANCH   2  14
TORSDOF 3
ENDMDL
MODEL 5
REMARK VINA RESULT:      -7.5      2.195      3.870
REMARK  3 active torsions:
REMARK  status: ('A' for Active; 'I' for Inactive)
REMARK    1  A    between atoms: C_7  and  C_2 
REMARK       I    between atoms: N_9  and  C_7 
REMARK    2  A    between atoms: C_12  and  N_9 
REMARK    3  A    between atoms: C_11  and  C_12 
ROOT
ATOM      1  C   UNL d   1      52.664  32.424  52.928  0.00  0.00     0.285 C 
ATOM      2  N   UNL d   1      53.280  32.548  53.464  0.00  0.00    -0.206 NA
ATOM      3  O   UNL d   1      52.592  31.702  52.538  0.00  0.00    -0.265 OA
ENDROOT
BRANCH   1   4
ATOM      4  C   UNL d   1      52.115  33.032  52.780  0.00  0.00     0.133 A 
ATOM      5  C   UNL d   1      51.341  32.981  53.070  0.00  0.00     0.272 A 
ATOM      6  N   UNL d   1      50.810  33.581  52.921  0.00  0.00    -0.252 N 
ATOM      7  O   UNL d   1      51.111  32.322  53.509  0.00  0.00    -0.266 OA
ATOM      8  C   UNL d   1      51.040  34.238  52.483  0.00  0.00     0.182 A 
ATOM      9  C   UNL d   1      50.021  33.684  53.131  0.00  0.00     0.092 A 
ATOM     10  N   UNL d   1      51.799  34.297  52.194  0.00  0.00    -0.220 NA
ATOM     11  S   UNL d   1      50.393  34.751  52.421  0.00  0.00    -0.048 SA
ATOM     12  C   UNL d   1      52.344  33.690  52.342  0.00  0.00     0.111 A 
ATOM     13  C   UNL d   1      49.764  34.405  52.823  0.00  0.00     0.057 A 
ENDBRANCH   1   4
BRANCH   2  14
ATOM     14  C   UNL d   1      53.349  33.271  53.851  0.00  0.00     0.103 C 
BRANCH  14  15
ATOM     15  C   UNL d   1      54.024  33.431  54.290  0.00  0.00     0.030 A 
ATOM     16  C   UNL d   1      53.969  33.843  55.007  0.00  0.00     0.059 A 
ATOM     17 CL   UNL d   1      53.233  34.090  55.280  0.00  0.00    -0.082 Cl
ATOM     18  C   UNL d   1      54.637  34.005  55.448  0.00  0.00     0.011 A 
ATOM     19  C   UNL d   1      55.383  33.756  55.176  0.00  0.00     0.001 A 
ATOM     20  C   UNL d   1      55.441  33.347  54.462  0.00  0.00     0.000 A 
ATOM     21  C   UNL d   1      54.761  33.183  54.017  0.00  0.00     0.002 A 
ENDBRANCH  14  15
ENDBRANCH   2  14
TORSDOF 3
ENDMDL
MODEL 6
REMARK VINA RESULT:      -6.6      1.881      2.155
REMARK  3 active torsions:
REMARK  status: ('A' for Active; 'I' for Inactive)
REMARK    1  A    between atoms: C_7  and  C_2 
REMARK       I    between atoms: N_9  and  C_7 
REMARK    2  A    between atoms: C_12  and  N_9 
REMARK    3  A    between atoms: C_11  and  C_12 
ROOT
ATOM      1  C   UNL d   1      52.352  32.700  52.684  0.00  0.00     0.285 C 
ATOM      2  N   UNL d   1      52.438  33.404  53.108  0.00  0.00    -0.206 NA
ATOM      3  O   UNL d   1      51.864  32.672  52.021  0.00  0.00    -0.265 OA
ENDROOT
BRANCH   1   4
ATOM      4  C   UNL d   1      52.759  32.017  52.929  0.00  0.00     0.133 A 
ATOM      5  C   UNL d   1      52.345  31.352  53.199  0.00  0.00     0.272 A 
ATOM      6  N   UNL d   1      52.753  30.688  53.436  0.00  0.00    -0.252 N 
ATOM      7  O   UNL d   1      51.522  31.366  53.226  0.00  0.00    -0.266 OA
ATOM      8  C   UNL d   1      53.575  30.674  53.409  0.00  0.00     0.182 A 
ATOM      9  C   UNL d   1      52.501  29.959  53.725  0.00  0.00     0.092 A 
ATOM     10  N   UNL d   1      53.990  31.324  53.145  0.00  0.00    -0.220 NA
ATOM     11  S   UNL d   1      53.834  29.936  53.681  0.00  0.00    -0.048 SA
ATOM     12  C   UNL d   1      53.581  32.003  52.902  0.00  0.00     0.111 A 
ATOM     13  C   UNL d   1      53.167  29.497  53.875  0.00  0.00     0.057 A 
ENDBRANCH   1   4
BRANCH   2  14
ATOM     14  C   UNL d   1      52.926  33.428  53.770  0.00  0.00     0.103 C 
BRANCH  14  15
ATOM     15  C   UNL d   1      53.042  34.141  54.160  0.00  0.00     0.030 A 
ATOM     16  C   UNL d   1      53.391  34.154  54.912  0.00  0.00     0.059 A 
ATOM     17 CL   UNL d   1      53.621  33.448  55.267  0.00  0.00    -0.082 Cl
ATOM     18  C   UNL d   1      53.509  34.861  55.305  0.00  0.00     0.011 A 
ATOM     19  C   UNL d   1      53.278  35.576  54.950  0.00  0.00     0.001 A 
ATOM     20  C   UNL d   1      52.930  35.566  54.202  0.00  0.00     0.000 A 
ATOM     21  C   UNL d   1      52.812  34.848  53.804  0.00  0.00     0.002 A 
ENDBRANCH  14  15
ENDBRANCH   2  14
TORSDOF 3
ENDMDL
