MODEL 1
REMARK VINA RESULT:      -1.5      0.000      0.000
REMARK  8 active torsions:
REMARK  status: ('A' for Active; 'I' for Inactive)
REMARK    1  A    between atoms: N_10  and  C_1 
REMARK    2  A    between atoms: C_20  and  N_2 
REMARK    3  A    between atoms: C_4  and  S_13 
REMARK       I    between atoms: C_14  and  N_10 
REMARK       I    between atoms: C_12  and  N_18 
REMARK    4  A    between atoms: C_16  and  C_12 
REMARK    5  A    between atoms: S_13  and  C_19 
REMARK    6  A    between atoms: C_19  and  C_14 
REMARK    7  A    between atoms: N_18  and  C_22 
REMARK    8  A    between atoms: C_22  and  C_20 
ROOT
ATOM      1  N   UNL d   1      32.671  18.452 -23.453  0.00  0.00    -0.302 N 
ATOM      2  C   UNL d   1      32.006  17.549 -24.179  0.00  0.00     0.049 A 
ATOM      3  C   UNL d   1      32.180  18.347 -24.121  0.00  0.00     0.087 A 
ATOM      4  C   UNL d   1      32.383  17.151 -23.555  0.00  0.00     0.024 A 
ATOM      5  C   UNL d   1      32.792  17.712 -23.110  0.00  0.00     0.065 A 
ATOM      6  C   UNL d   1      32.400  16.360 -23.346  0.00  0.00     0.002 A 
ATOM      7  C   UNL d   1      33.217  17.472 -22.454  0.00  0.00     0.018 A 
ATOM      8  C   UNL d   1      32.829  16.122 -22.685  0.00  0.00     0.000 A 
ATOM      9  C   UNL d   1      33.240  16.677 -22.236  0.00  0.00     0.002 A 
ENDROOT
BRANCH   1  10
ATOM     10  C   UNL d   1      32.982  19.163 -23.182  0.00  0.00     0.101 C 
BRANCH  10  11
ATOM     11  C   UNL d   1      32.522  19.661 -22.716  0.00  0.00     0.121 C 
BRANCH  11  12
ATOM     12  N   UNL d   1      32.744  20.455 -22.620  0.00  0.00    -0.205 NA
ATOM     13  C   UNL d   1      32.576  20.847 -21.911  0.00  0.00     0.279 C 
ATOM     14  O   UNL d   1      32.188  20.444 -21.299  0.00  0.00    -0.265 OA
BRANCH  13  15
ATOM     15  C   UNL d   1      32.796  21.631 -21.818  0.00  0.00     0.058 A 
ATOM     16  C   UNL d   1      32.988  22.083 -22.460  0.00  0.00     0.005 A 
ATOM     17  C   UNL d   1      33.211  22.872 -22.384  0.00  0.00     0.000 A 
ATOM     18  C   UNL d   1      33.241  23.214 -21.634  0.00  0.00     0.000 A 
ATOM     19  C   UNL d   1      33.046  22.759 -20.968  0.00  0.00     0.000 A 
ATOM     20  C   UNL d   1      32.824  21.968 -21.061  0.00  0.00     0.005 A 
ENDBRANCH  13  15
ENDBRANCH  11  12
ENDBRANCH  10  11
ENDBRANCH   1  10
BRANCH   2  21
ATOM     21  S   UNL d   1      31.537  17.195 -24.758  0.00  0.00    -0.080 SA
BRANCH  21  22
ATOM     22  C   UNL d   1      30.756  17.438 -24.852  0.00  0.00     0.098 C 
BRANCH  22  23
ATOM     23  C   UNL d   1      30.137  16.891 -24.762  0.00  0.00     0.288 C 
ATOM     24  N   UNL d   1      29.468  17.104 -24.340  0.00  0.00    -0.181 NA
ATOM     25  O   UNL d   1      30.200  16.144 -25.096  0.00  0.00    -0.265 OA
BRANCH  24  26
ATOM     26  C   UNL d   1      28.844  16.565 -24.245  0.00  0.00     0.219 A 
ATOM     27  S   UNL d   1      28.434  16.411 -23.554  0.00  0.00    -0.026 SA
ATOM     28  C   UNL d   1      27.864  15.838 -23.720  0.00  0.00     0.135 A 
ATOM     29  C   UNL d   1      27.326  15.519 -23.180  0.00  0.00     0.030 C 
ATOM     30  N   UNL d   1      27.914  15.634 -24.506  0.00  0.00    -0.139 NA
ATOM     31  N   UNL d   1      28.520  16.081 -24.839  0.00  0.00    -0.121 NA
ENDBRANCH  24  26
ENDBRANCH  22  23
ENDBRANCH  21  22
ENDBRANCH   2  21
TORSDOF 8
ENDMDL
