MODEL 1
REMARK VINA RESULT:     -10.1      0.000      0.000
REMARK  4 active torsions:
REMARK  status: ('A' for Active; 'I' for Inactive)
REMARK    1  A    between atoms: C_11  and  N_4 
REMARK    2  A    between atoms: C_18  and  C_7 
REMARK    3  A    between atoms: C_19  and  C_11 
REMARK    4  A    between atoms: O_20  and  C_16 
ROOT
ATOM      1  C   UNL d   1      52.885  32.047  53.312  0.00  0.00     0.137 A 
ATOM      2  C   UNL d   1      53.220  32.121  54.059  0.00  0.00     0.192 A 
ATOM      3  C   UNL d   1      52.645  32.718  52.899  0.00  0.00     0.272 A 
ATOM      4  N   UNL d   1      52.739  33.462  53.230  0.00  0.00    -0.258 N 
ATOM      5  N   UNL d   1      53.318  32.863  54.399  0.00  0.00    -0.204 NA
ATOM      6  C   UNL d   1      52.789  31.298  52.974  0.00  0.00     0.205 A 
ATOM      7  C   UNL d   1      53.077  33.542  53.985  0.00  0.00     0.152 A 
ATOM      8  C   UNL d   1      53.029  30.636  53.389  0.00  0.00     0.062 A 
ATOM      9  O   UNL d   1      53.462  31.452  54.476  0.00  0.00    -0.289 OA
ATOM     10  C   UNL d   1      53.365  30.707  54.138  0.00  0.00     0.107 A 
ATOM     11  C   UNL d   1      53.605  30.028  54.550  0.00  0.00     0.049 A 
ATOM     12  C   UNL d   1      52.933  29.886  53.051  0.00  0.00     0.007 A 
ATOM     13  O   UNL d   1      52.311  32.638  52.152  0.00  0.00    -0.266 OA
ATOM     14  O   UNL d   1      52.454  31.227  52.226  0.00  0.00    -0.286 OA
ATOM     15  C   UNL d   1      53.508  29.287  54.212  0.00  0.00     0.096 A 
ATOM     16  C   UNL d   1      53.171  29.216  53.460  0.00  0.00     0.024 A 
ENDROOT
BRANCH   4  17
ATOM     17  C   UNL d   1      52.495  34.140  52.810  0.00  0.00     0.084 C 
BRANCH  17  18
ATOM     18  C   UNL d   1      51.693  34.286  52.696  0.00  0.00     0.018 A 
ATOM     19  C   UNL d   1      51.186  34.428  53.335  0.00  0.00     0.002 A 
ATOM     20  C   UNL d   1      50.382  34.574  53.213  0.00  0.00     0.000 A 
ATOM     21  C   UNL d   1      50.079  34.578  52.430  0.00  0.00     0.000 A 
ATOM     22  C   UNL d   1      50.586  34.436  51.788  0.00  0.00     0.000 A 
ATOM     23  C   UNL d   1      51.389  34.291  51.923  0.00  0.00     0.002 A 
ENDBRANCH  17  18
ENDBRANCH   4  17
BRANCH   7  24
ATOM     24  C   UNL d   1      53.170  34.286  54.316  0.00  0.00     0.038 C 
ATOM     25  C   UNL d   1      53.716  34.402  54.921  0.00  0.00     0.003 C 
ENDBRANCH   7  24
BRANCH  15  26
ATOM     26  O   UNL d   1      53.745  28.615  54.617  0.00  0.00    -0.328 OA
ATOM     27  C   UNL d   1      53.346  28.388  55.299  0.00  0.00     0.181 C 
ENDBRANCH  15  26
TORSDOF 4
ENDMDL
MODEL 2
REMARK VINA RESULT:      -9.5      1.643      4.632
REMARK  4 active torsions:
REMARK  status: ('A' for Active; 'I' for Inactive)
REMARK    1  A    between atoms: C_11  and  N_4 
REMARK    2  A    between atoms: C_18  and  C_7 
REMARK    3  A    between atoms: C_19  and  C_11 
REMARK    4  A    between atoms: O_20  and  C_16 
ROOT
ATOM      1  C   UNL d   1      52.023  33.338  53.429  0.00  0.00     0.137 A 
ATOM      2  C   UNL d   1      51.961  32.840  52.779  0.00  0.00     0.192 A 
ATOM      3  C   UNL d   1      52.596  33.197  54.004  0.00  0.00     0.272 A 
ATOM      4  N   UNL d   1      53.106  32.560  53.931  0.00  0.00    -0.258 N 
ATOM      5  N   UNL d   1      52.468  32.198  52.697  0.00  0.00    -0.204 NA
ATOM      6  C   UNL d   1      51.510  33.983  53.508  0.00  0.00     0.205 A 
ATOM      7  C   UNL d   1      53.047  32.053  53.275  0.00  0.00     0.152 A 
ATOM      8  C   UNL d   1      50.944  34.117  52.933  0.00  0.00     0.062 A 
ATOM      9  O   UNL d   1      51.389  32.978  52.201  0.00  0.00    -0.289 OA
ATOM     10  C   UNL d   1      50.879  33.620  52.281  0.00  0.00     0.107 A 
ATOM     11  C   UNL d   1      50.300  33.767  51.704  0.00  0.00     0.049 A 
ATOM     12  C   UNL d   1      50.431  34.763  53.011  0.00  0.00     0.007 A 
ATOM     13  O   UNL d   1      52.654  33.699  54.653  0.00  0.00    -0.266 OA
ATOM     14  O   UNL d   1      51.575  34.480  54.160  0.00  0.00    -0.286 OA
ATOM     15  C   UNL d   1      49.794  34.407  51.785  0.00  0.00     0.096 A 
ATOM     16  C   UNL d   1      49.859  34.906  52.441  0.00  0.00     0.024 A 
ENDROOT
BRANCH   4  17
ATOM     17  C   UNL d   1      53.685  32.418  54.514  0.00  0.00     0.084 C 
BRANCH  17  18
ATOM     18  C   UNL d   1      54.341  32.912  54.570  0.00  0.00     0.018 A 
ATOM     19  C   UNL d   1      54.833  33.050  53.918  0.00  0.00     0.002 A 
ATOM     20  C   UNL d   1      55.489  33.547  53.981  0.00  0.00     0.000 A 
ATOM     21  C   UNL d   1      55.658  33.916  54.716  0.00  0.00     0.000 A 
ATOM     22  C   UNL d   1      55.165  33.779  55.371  0.00  0.00     0.000 A 
ATOM     23  C   UNL d   1      54.511  33.279  55.295  0.00  0.00     0.002 A 
ENDBRANCH  17  18
ENDBRANCH   4  17
BRANCH   7  24
ATOM     24  C   UNL d   1      53.557  31.415  53.202  0.00  0.00     0.038 C 
ATOM     25  C   UNL d   1      53.290  30.710  52.873  0.00  0.00     0.003 C 
ENDBRANCH   7  24
BRANCH  15  26
ATOM     26  O   UNL d   1      49.222  34.553  51.217  0.00  0.00    -0.328 OA
ATOM     27  C   UNL d   1      48.508  34.898  51.435  0.00  0.00     0.181 C 
ENDBRANCH  15  26
TORSDOF 4
ENDMDL
MODEL 3
REMARK VINA RESULT:      -9.3      1.251      4.427
REMARK  4 active torsions:
REMARK  status: ('A' for Active; 'I' for Inactive)
REMARK    1  A    between atoms: C_11  and  N_4 
REMARK    2  A    between atoms: C_18  and  C_7 
REMARK    3  A    between atoms: C_19  and  C_11 
REMARK    4  A    between atoms: O_20  and  C_16 
ROOT
ATOM      1  C   UNL d   1      52.173  33.137  53.213  0.00  0.00     0.137 A 
ATOM      2  C   UNL d   1      52.271  33.648  53.849  0.00  0.00     0.192 A 
ATOM      3  C   UNL d   1      52.716  32.531  53.083  0.00  0.00     0.272 A 
ATOM      4  N   UNL d   1      53.355  32.435  53.587  0.00  0.00    -0.258 N 
ATOM      5  N   UNL d   1      52.909  33.558  54.360  0.00  0.00    -0.204 NA
ATOM      6  C   UNL d   1      51.530  33.231  52.701  0.00  0.00     0.205 A 
ATOM      7  C   UNL d   1      53.458  32.948  54.232  0.00  0.00     0.152 A 
ATOM      8  C   UNL d   1      50.995  33.834  52.836  0.00  0.00     0.062 A 
ATOM      9  O   UNL d   1      51.730  34.256  53.983  0.00  0.00    -0.289 OA
ATOM     10  C   UNL d   1      51.089  34.347  53.473  0.00  0.00     0.107 A 
ATOM     11  C   UNL d   1      50.540  34.957  53.600  0.00  0.00     0.049 A 
ATOM     12  C   UNL d   1      50.350  33.928  52.325  0.00  0.00     0.007 A 
ATOM     13  O   UNL d   1      52.614  32.023  52.445  0.00  0.00    -0.266 OA
ATOM     14  O   UNL d   1      51.435  32.718  52.065  0.00  0.00    -0.286 OA
ATOM     15  C   UNL d   1      49.903  35.046  53.091  0.00  0.00     0.096 A 
ATOM     16  C   UNL d   1      49.808  34.531  52.451  0.00  0.00     0.024 A 
ENDROOT
BRANCH   4  17
ATOM     17  C   UNL d   1      53.904  31.821  53.453  0.00  0.00     0.084 C 
BRANCH  17  18
ATOM     18  C   UNL d   1      53.697  31.042  53.619  0.00  0.00     0.018 A 
ATOM     19  C   UNL d   1      53.498  30.803  54.387  0.00  0.00     0.002 A 
ATOM     20  C   UNL d   1      53.291  30.019  54.546  0.00  0.00     0.000 A 
ATOM     21  C   UNL d   1      53.282  29.460  53.920  0.00  0.00     0.000 A 
ATOM     22  C   UNL d   1      53.481  29.698  53.149  0.00  0.00     0.000 A 
ATOM     23  C   UNL d   1      53.687  30.486  53.002  0.00  0.00     0.002 A 
ENDBRANCH  17  18
ENDBRANCH   4  17
BRANCH   7  24
ATOM     24  C   UNL d   1      54.098  32.852  54.736  0.00  0.00     0.038 C 
ATOM     25  C   UNL d   1      54.409  33.501  55.135  0.00  0.00     0.003 C 
ENDBRANCH   7  24
BRANCH  15  26
ATOM     26  O   UNL d   1      49.359  35.647  53.214  0.00  0.00    -0.328 OA
ATOM     27  C   UNL d   1      48.609  35.593  52.882  0.00  0.00     0.181 C 
ENDBRANCH  15  26
TORSDOF 4
ENDMDL
MODEL 4
REMARK VINA RESULT:      -8.4      1.091      2.110
REMARK  4 active torsions:
REMARK  status: ('A' for Active; 'I' for Inactive)
REMARK    1  A    between atoms: C_11  and  N_4 
REMARK    2  A    between atoms: C_18  and  C_7 
REMARK    3  A    between atoms: C_19  and  C_11 
REMARK    4  A    between atoms: O_20  and  C_16 
ROOT
ATOM      1  C   UNL d   1      52.982  32.500  53.259  0.00  0.00     0.137 A 
ATOM      2  C   UNL d   1      52.221  32.221  53.124  0.00  0.00     0.192 A 
ATOM      3  C   UNL d   1      53.146  33.304  53.186  0.00  0.00     0.272 A 
ATOM      4  N   UNL d   1      52.552  33.829  52.978  0.00  0.00    -0.258 N 
ATOM      5  N   UNL d   1      51.619  32.741  52.916  0.00  0.00    -0.204 NA
ATOM      6  C   UNL d   1      53.585  31.974  53.469  0.00  0.00     0.205 A 
ATOM      7  C   UNL d   1      51.781  33.552  52.841  0.00  0.00     0.152 A 
ATOM      8  C   UNL d   1      53.415  31.177  53.540  0.00  0.00     0.062 A 
ATOM      9  O   UNL d   1      52.053  31.417  53.197  0.00  0.00    -0.289 OA
ATOM     10  C   UNL d   1      52.654  30.894  53.406  0.00  0.00     0.107 A 
ATOM     11  C   UNL d   1      52.494  30.083  53.481  0.00  0.00     0.049 A 
ATOM     12  C   UNL d   1      54.019  30.650  53.750  0.00  0.00     0.007 A 
ATOM     13  O   UNL d   1      53.909  33.578  53.322  0.00  0.00    -0.266 OA
ATOM     14  O   UNL d   1      54.346  32.256  53.603  0.00  0.00    -0.286 OA
ATOM     15  C   UNL d   1      53.094  29.564  53.689  0.00  0.00     0.096 A 
ATOM     16  C   UNL d   1      53.859  29.849  53.824  0.00  0.00     0.024 A 
ENDROOT
BRANCH   4  17
ATOM     17  C   UNL d   1      52.720  34.643  52.904  0.00  0.00     0.084 C 
BRANCH  17  18
ATOM     18  C   UNL d   1      52.837  35.100  53.578  0.00  0.00     0.018 A 
ATOM     19  C   UNL d   1      52.267  35.140  54.177  0.00  0.00     0.002 A 
ATOM     20  C   UNL d   1      52.392  35.601  54.851  0.00  0.00     0.000 A 
ATOM     21  C   UNL d   1      53.106  36.035  54.926  0.00  0.00     0.000 A 
ATOM     22  C   UNL d   1      53.680  35.997  54.326  0.00  0.00     0.000 A 
ATOM     23  C   UNL d   1      53.543  35.531  53.657  0.00  0.00     0.002 A 
ENDBRANCH  17  18
ENDBRANCH   4  17
BRANCH   7  24
ATOM     24  C   UNL d   1      51.186  34.077  52.633  0.00  0.00     0.038 C 
ATOM     25  C   UNL d   1      50.504  33.802  52.264  0.00  0.00     0.003 C 
ENDBRANCH   7  24
BRANCH  15  26
ATOM     26  O   UNL d   1      52.938  28.764  53.764  0.00  0.00    -0.328 OA
ATOM     27  C   UNL d   1      53.225  28.351  54.415  0.00  0.00     0.181 C 
ENDBRANCH  15  26
TORSDOF 4
ENDMDL
MODEL 5
REMARK VINA RESULT:      -7.9      1.686      4.689
REMARK  4 active torsions:
REMARK  status: ('A' for Active; 'I' for Inactive)
REMARK    1  A    between atoms: C_11  and  N_4 
REMARK    2  A    between atoms: C_18  and  C_7 
REMARK    3  A    between atoms: C_19  and  C_11 
REMARK    4  A    between atoms: O_20  and  C_16 
ROOT
ATOM      1  C   UNL d   1      51.541  34.156  52.830  0.00  0.00     0.137 A 
ATOM      2  C   UNL d   1      51.378  34.694  53.429  0.00  0.00     0.192 A 
ATOM      3  C   UNL d   1      52.271  33.776  52.804  0.00  0.00     0.272 A 
ATOM      4  N   UNL d   1      52.839  33.934  53.374  0.00  0.00    -0.258 N 
ATOM      5  N   UNL d   1      51.941  34.858  54.005  0.00  0.00    -0.204 NA
ATOM      6  C   UNL d   1      50.971  33.994  52.253  0.00  0.00     0.205 A 
ATOM      7  C   UNL d   1      52.679  34.478  53.982  0.00  0.00     0.152 A 
ATOM      8  C   UNL d   1      50.248  34.374  52.285  0.00  0.00     0.062 A 
ATOM      9  O   UNL d   1      50.647  35.076  53.459  0.00  0.00    -0.289 OA
ATOM     10  C   UNL d   1      50.081  34.914  52.883  0.00  0.00     0.107 A 
ATOM     11  C   UNL d   1      49.344  35.294  52.906  0.00  0.00     0.049 A 
ATOM     12  C   UNL d   1      49.677  34.212  51.707  0.00  0.00     0.007 A 
ATOM     13  O   UNL d   1      52.429  33.238  52.202  0.00  0.00    -0.266 OA
ATOM     14  O   UNL d   1      51.137  33.454  51.654  0.00  0.00    -0.286 OA
ATOM     15  C   UNL d   1      48.781  35.131  52.332  0.00  0.00     0.096 A 
ATOM     16  C   UNL d   1      48.948  34.588  51.730  0.00  0.00     0.024 A 
ENDROOT
BRANCH   4  17
ATOM     17  C   UNL d   1      53.578  33.548  53.345  0.00  0.00     0.084 C 
BRANCH  17  18
ATOM     18  C   UNL d   1      53.647  32.772  53.610  0.00  0.00     0.018 A 
ATOM     19  C   UNL d   1      53.545  32.579  54.409  0.00  0.00     0.002 A 
ATOM     20  C   UNL d   1      53.616  31.798  54.667  0.00  0.00     0.000 A 
ATOM     21  C   UNL d   1      53.793  31.194  54.112  0.00  0.00     0.000 A 
ATOM     22  C   UNL d   1      53.896  31.387  53.309  0.00  0.00     0.000 A 
ATOM     23  C   UNL d   1      53.823  32.173  53.063  0.00  0.00     0.002 A 
ENDBRANCH  17  18
ENDBRANCH   4  17
BRANCH   7  24
ATOM     24  C   UNL d   1      53.247  34.635  54.552  0.00  0.00     0.038 C 
ATOM     25  C   UNL d   1      53.229  35.347  54.965  0.00  0.00     0.003 C 
ENDBRANCH   7  24
BRANCH  15  26
ATOM     26  O   UNL d   1      48.052  35.504  52.352  0.00  0.00    -0.328 OA
ATOM     27  C   UNL d   1      47.594  35.543  51.670  0.00  0.00     0.181 C 
ENDBRANCH  15  26
TORSDOF 4
ENDMDL
