MODEL 1
REMARK VINA RESULT:      17.0      0.000      0.000
REMARK  1 active torsions:
REMARK  status: ('A' for Active; 'I' for Inactive)
REMARK    1  A    between atoms: C_7  and  N_2 
ROOT
ATOM      1  C   UNL d   1      46.278 -18.276  42.656  0.00  0.00     0.304 A 
ATOM      2  N   UNL d   1      46.193 -18.117  43.479  0.00  0.00    -0.272 N 
ATOM      3  C   UNL d   1      46.470 -19.091  42.562  0.00  0.00     0.253 A 
ATOM      4  C   UNL d   1      46.326 -18.804  43.886  0.00  0.00     0.070 A 
ATOM      5  C   UNL d   1      46.494 -19.392  43.332  0.00  0.00     0.060 A 
ATOM      6  O   UNL d   1      46.185 -17.707  42.022  0.00  0.00    -0.263 OA
ATOM      7  O   UNL d   1      46.609 -19.522  41.890  0.00  0.00    -0.281 OA
ATOM      8  C   UNL d   1      46.322 -18.980  44.627  0.00  0.00     0.018 A 
ATOM      9  C   UNL d   1      46.646 -20.116  43.557  0.00  0.00     0.005 A 
ATOM     10  C   UNL d   1      46.479 -19.742  44.929  0.00  0.00     0.002 A 
ATOM     11  C   UNL d   1      46.647 -20.330  44.375  0.00  0.00     0.000 A 
ENDROOT
BRANCH   2  12
ATOM     12  C   UNL d   1      46.010 -17.417  43.849  0.00  0.00     0.067 A 
ATOM     13  C   UNL d   1      46.317 -17.236  44.584  0.00  0.00     0.018 A 
ATOM     14  C   UNL d   1      46.125 -16.521  44.953  0.00  0.00     0.002 A 
ATOM     15  C   UNL d   1      45.628 -15.998  44.579  0.00  0.00     0.000 A 
ATOM     16  C   UNL d   1      45.313 -16.177  43.832  0.00  0.00     0.002 A 
ATOM     17  C   UNL d   1      45.504 -16.887  43.466  0.00  0.00     0.018 A 
ENDBRANCH   2  12
TORSDOF 1
ENDMDL
MODEL 2
REMARK VINA RESULT:      18.4      7.424      8.033
REMARK  1 active torsions:
REMARK  status: ('A' for Active; 'I' for Inactive)
REMARK    1  A    between atoms: C_7  and  N_2 
ROOT
ATOM      1  C   UNL d   1      44.809 -16.440  36.593  0.00  0.00     0.304 A 
ATOM      2  N   UNL d   1      44.759 -15.604  36.679  0.00  0.00    -0.272 N 
ATOM      3  C   UNL d   1      44.034 -16.739  36.456  0.00  0.00     0.253 A 
ATOM      4  C   UNL d   1      43.984 -15.385  36.598  0.00  0.00     0.070 A 
ATOM      5  C   UNL d   1      43.546 -16.071  36.464  0.00  0.00     0.060 A 
ATOM      6  O   UNL d   1      45.526 -16.907  36.639  0.00  0.00    -0.263 OA
ATOM      7  O   UNL d   1      43.779 -17.500  36.338  0.00  0.00    -0.281 OA
ATOM      8  C   UNL d   1      43.626 -14.714  36.624  0.00  0.00     0.018 A 
ATOM      9  C   UNL d   1      42.780 -16.039  36.364  0.00  0.00     0.005 A 
ATOM     10  C   UNL d   1      42.804 -14.616  36.523  0.00  0.00     0.002 A 
ATOM     11  C   UNL d   1      42.365 -15.302  36.389  0.00  0.00     0.000 A 
ENDROOT
BRANCH   2  12
ATOM     12  C   UNL d   1      45.353 -15.066  36.818  0.00  0.00     0.067 A 
ATOM     13  C   UNL d   1      45.295 -14.521  37.422  0.00  0.00     0.018 A 
ATOM     14  C   UNL d   1      45.905 -13.978  37.556  0.00  0.00     0.002 A 
ATOM     15  C   UNL d   1      46.564 -13.990  37.080  0.00  0.00     0.000 A 
ATOM     16  C   UNL d   1      46.628 -14.543  36.464  0.00  0.00     0.002 A 
ATOM     17  C   UNL d   1      46.022 -15.081  36.332  0.00  0.00     0.018 A 
ENDBRANCH   2  12
TORSDOF 1
ENDMDL
