MODEL 1
REMARK VINA RESULT:      41.6      0.000      0.000
REMARK  3 active torsions:
REMARK  status: ('A' for Active; 'I' for Inactive)
REMARK    1  A    between atoms: C_7  and  C_1 
REMARK    2  A    between atoms: N_5  and  C_9 
REMARK    3  A    between atoms: C_14  and  C_7 
ROOT
ATOM      1  C   UNL d   1      58.964  49.707  50.891  0.00  0.00     0.139 A 
ATOM      2  C   UNL d   1      57.632  49.707  50.833  0.00  0.00     0.064 A 
ATOM      3  C   UNL d   1      58.274  49.707  51.350  0.00  0.00     0.220 A 
ATOM      4  C   UNL d   1      57.917  49.707  50.057  0.00  0.00     0.106 A 
ATOM      5  O   UNL d   1      58.745  49.707  50.095  0.00  0.00    -0.304 OA
ATOM      6  C   UNL d   1      57.391  49.707  49.432  0.00  0.00     0.067 A 
ATOM      7  C   UNL d   1      56.820  49.707  50.975  0.00  0.00     0.009 A 
ATOM      8  O   UNL d   1      58.247  49.707  52.176  0.00  0.00    -0.284 OA
ATOM      9  C   UNL d   1      56.578  49.707  49.575  0.00  0.00     0.198 A 
ATOM     10  C   UNL d   1      56.296  49.707  50.342  0.00  0.00     0.042 A 
ATOM     11  O   UNL d   1      56.051  49.707  48.940  0.00  0.00    -0.286 OA
ENDROOT
BRANCH   1  12
ATOM     12  C   UNL d   1      59.739  49.707  51.176  0.00  0.00     0.028 C 
BRANCH  12  13
ATOM     13  C   UNL d   1      60.278  49.127  50.931  0.00  0.00     0.002 A 
ATOM     14  C   UNL d   1      60.888  49.335  50.422  0.00  0.00     0.002 A 
ATOM     15  C   UNL d   1      61.429  48.771  50.171  0.00  0.00     0.024 A 
ATOM     16  C   UNL d   1      61.359  47.982  50.436  0.00  0.00     0.127 A 
ATOM     17  C   UNL d   1      60.743  47.776  50.950  0.00  0.00     0.024 A 
ATOM     18  C   UNL d   1      60.204  48.355  51.195  0.00  0.00     0.002 A 
BRANCH  16  19
ATOM     19  N   UNL d   1      61.907  47.416  50.182  0.00  0.00    -0.114 N 
ATOM     20  O   UNL d   1      62.648  47.663  49.912  0.00  0.00    -0.532 OA
ATOM     21  O   UNL d   1      61.725  46.615  50.192  0.00  0.00    -0.532 OA
ENDBRANCH  16  19
ENDBRANCH  12  13
ENDBRANCH   1  12
TORSDOF 3
ENDMDL
MODEL 2
REMARK VINA RESULT:      41.8      1.757      2.190
REMARK  3 active torsions:
REMARK  status: ('A' for Active; 'I' for Inactive)
REMARK    1  A    between atoms: C_7  and  C_1 
REMARK    2  A    between atoms: N_5  and  C_9 
REMARK    3  A    between atoms: C_14  and  C_7 
ROOT
ATOM      1  C   UNL d   1      59.452  49.612  50.303  0.00  0.00     0.139 A 
ATOM      2  C   UNL d   1      58.184  49.663  49.896  0.00  0.00     0.064 A 
ATOM      3  C   UNL d   1      58.965  49.662  49.635  0.00  0.00     0.220 A 
ATOM      4  C   UNL d   1      58.181  49.615  50.722  0.00  0.00     0.106 A 
ATOM      5  O   UNL d   1      58.970  49.583  50.973  0.00  0.00    -0.304 OA
ATOM      6  C   UNL d   1      57.471  49.606  51.125  0.00  0.00     0.067 A 
ATOM      7  C   UNL d   1      57.472  49.703  49.483  0.00  0.00     0.009 A 
ATOM      8  O   UNL d   1      59.227  49.702  48.852  0.00  0.00    -0.284 OA
ATOM      9  C   UNL d   1      56.758  49.646  50.710  0.00  0.00     0.198 A 
ATOM     10  C   UNL d   1      56.761  49.694  49.893  0.00  0.00     0.042 A 
ATOM     11  O   UNL d   1      56.043  49.637  51.122  0.00  0.00    -0.286 OA
ENDROOT
BRANCH   1  12
ATOM     12  C   UNL d   1      60.278  49.594  50.305  0.00  0.00     0.028 C 
BRANCH  12  13
ATOM     13  C   UNL d   1      60.698  49.601  51.020  0.00  0.00     0.002 A 
ATOM     14  C   UNL d   1      61.520  49.607  51.002  0.00  0.00     0.002 A 
ATOM     15  C   UNL d   1      61.949  49.613  51.701  0.00  0.00     0.024 A 
ATOM     16  C   UNL d   1      61.548  49.614  52.434  0.00  0.00     0.127 A 
ATOM     17  C   UNL d   1      60.720  49.608  52.448  0.00  0.00     0.024 A 
ATOM     18  C   UNL d   1      60.299  49.601  51.734  0.00  0.00     0.002 A 
BRANCH  16  19
ATOM     19  N   UNL d   1      61.984  49.620  53.138  0.00  0.00    -0.114 N 
ATOM     20  O   UNL d   1      62.808  49.551  53.104  0.00  0.00    -0.532 OA
ATOM     21  O   UNL d   1      61.613  49.695  53.866  0.00  0.00    -0.532 OA
ENDBRANCH  16  19
ENDBRANCH  12  13
ENDBRANCH   1  12
TORSDOF 3
ENDMDL
