MODEL 1
REMARK VINA RESULT:      64.9      0.000      0.000
REMARK  2 active torsions:
REMARK  status: ('A' for Active; 'I' for Inactive)
REMARK    1  A    between atoms: C_6  and  C_2 
REMARK    2  A    between atoms: C_7  and  C_3 
ROOT
ATOM      1  N   UNL d   1      57.749  49.276  53.634  0.00  0.00    -0.238 NA
ATOM      2  C   UNL d   1      57.017  49.341  53.979  0.00  0.00     0.112 A 
ATOM      3  C   UNL d   1      57.676  49.503  52.841  0.00  0.00     0.088 A 
ATOM      4  S   UNL d   1      56.478  49.607  53.416  0.00  0.00    -0.066 SA
ATOM      5  C   UNL d   1      56.893  49.708  52.705  0.00  0.00     0.056 A 
ENDROOT
BRANCH   3   6
ATOM      6  C   UNL d   1      58.225  49.546  52.237  0.00  0.00     0.020 A 
ATOM      7  C   UNL d   1      59.044  49.537  52.404  0.00  0.00     0.028 A 
ATOM      8  C   UNL d   1      59.604  49.582  51.769  0.00  0.00     0.123 A 
ATOM      9  O   UNL d   1      60.405  49.573  51.933  0.00  0.00    -0.301 OA
ATOM     10  C   UNL d   1      59.339  49.635  50.994  0.00  0.00     0.123 A 
ATOM     11  C   UNL d   1      60.953  49.616  51.330  0.00  0.00     0.149 A 
ATOM     12  C   UNL d   1      60.699  49.670  50.547  0.00  0.00     0.149 A 
ATOM     13  O   UNL d   1      59.892  49.680  50.376  0.00  0.00    -0.301 OA
ATOM     14  C   UNL d   1      58.520  49.644  50.845  0.00  0.00     0.027 A 
ATOM     15  C   UNL d   1      57.965  49.600  51.454  0.00  0.00     0.004 A 
ENDBRANCH   3   6
BRANCH   2  16
ATOM     16  C   UNL d   1      56.763  49.187  54.759  0.00  0.00     0.043 A 
ATOM     17  C   UNL d   1      56.961  49.701  55.372  0.00  0.00     0.101 A 
ATOM     18  N   UNL d   1      56.700  49.536  56.151  0.00  0.00    -0.242 NA
ATOM     19  C   UNL d   1      56.241  48.853  56.305  0.00  0.00     0.099 A 
ATOM     20  C   UNL d   1      56.049  48.348  55.684  0.00  0.00     0.021 A 
ATOM     21  C   UNL d   1      56.304  48.507  54.917  0.00  0.00     0.005 A 
ENDBRANCH   2  16
TORSDOF 2
ENDMDL
