MODEL 1
REMARK VINA RESULT:      14.5      0.000      0.000
REMARK  8 active torsions:
REMARK  status: ('A' for Active; 'I' for Inactive)
REMARK    1  A    between atoms: S_10  and  C_2 
REMARK    2  A    between atoms: C_7  and  C_4 
REMARK    3  A    between atoms: C_17  and  S_10 
REMARK    4  A    between atoms: C_14  and  C_17 
REMARK    5  A    between atoms: O_18  and  C_14 
REMARK    6  A    between atoms: O_19  and  C_15 
REMARK    7  A    between atoms: C_22  and  O_18 
REMARK    8  A    between atoms: C_24  and  C_22 
ROOT
ATOM      1  C   UNL d   1     -42.521-122.230 -50.935  0.00  0.00     0.093 A 
ATOM      2  C   UNL d   1     -41.791-122.504 -51.229  0.00  0.00     0.124 A 
ATOM      3  N   UNL d   1     -41.332-123.017 -50.775  0.00  0.00    -0.200 NA
ATOM      4  C   UNL d   1     -42.782-122.474 -50.192  0.00  0.00     0.028 A 
ATOM      5  C   UNL d   1     -42.323-122.985 -49.741  0.00  0.00     0.127 A 
ATOM      6  C   UNL d   1     -41.593-123.259 -50.035  0.00  0.00     0.289 A 
ATOM      7  C   UNL d   1     -42.979-121.721 -51.383  0.00  0.00     0.103 C 
ATOM      8  C   UNL d   1     -42.583-123.228 -48.997  0.00  0.00     0.106 C 
ATOM      9  N   UNL d   1     -43.430-121.216 -51.830  0.00  0.00    -0.191 NA
ATOM     10  N   UNL d   1     -42.839-123.468 -48.265  0.00  0.00    -0.191 NA
ATOM     11  O   UNL d   1     -41.132-123.815 -49.503  0.00  0.00    -0.264 OA
ENDROOT
BRANCH   2  12
ATOM     12  S   UNL d   1     -41.569-122.215 -52.016  0.00  0.00    -0.061 SA
BRANCH  12  13
ATOM     13  C   UNL d   1     -41.393-122.675 -52.734  0.00  0.00     0.105 C 
BRANCH  13  14
ATOM     14  C   UNL d   1     -41.376-122.274 -53.504  0.00  0.00     0.307 C 
ATOM     15  O   UNL d   1     -41.123-121.817 -53.585  0.00  0.00    -0.258 OA
BRANCH  14  16
ATOM     16  O   UNL d   1     -41.822-122.693 -54.145  0.00  0.00    -0.271 OA
BRANCH  16  17
ATOM     17  C   UNL d   1     -42.021-122.191 -54.870  0.00  0.00     0.126 C 
BRANCH  17  18
ATOM     18  C   UNL d   1     -41.567-122.560 -55.601  0.00  0.00     0.027 C 
ATOM     19  C   UNL d   1     -41.445-121.902 -56.206  0.00  0.00     0.002 C 
ENDBRANCH  17  18
ENDBRANCH  16  17
ENDBRANCH  14  16
ENDBRANCH  13  14
ENDBRANCH  12  13
ENDBRANCH   2  12
BRANCH   4  20
ATOM     20  C   UNL d   1     -43.501-122.204 -49.902  0.00  0.00     0.024 A 
ATOM     21  C   UNL d   1     -44.171-122.677 -49.960  0.00  0.00     0.094 A 
ATOM     22  C   UNL d   1     -44.893-122.406 -49.669  0.00  0.00     0.024 A 
ATOM     23  C   UNL d   1     -44.947-121.661 -49.320  0.00  0.00     0.002 A 
ATOM     24  C   UNL d   1     -44.273-121.187 -49.263  0.00  0.00     0.000 A 
ATOM     25  C   UNL d   1     -43.550-121.458 -49.554  0.00  0.00     0.002 A 
BRANCH  21  26
ATOM     26  O   UNL d   1     -44.209-123.316 -50.240  0.00  0.00    -0.328 OA
ATOM     27  C   UNL d   1     -44.889-123.811 -50.102  0.00  0.00     0.181 C 
ENDBRANCH  21  26
ENDBRANCH   4  20
TORSDOF 8
ENDMDL
MODEL 2
REMARK VINA RESULT:      15.1      1.612      4.430
REMARK  8 active torsions:
REMARK  status: ('A' for Active; 'I' for Inactive)
REMARK    1  A    between atoms: S_10  and  C_2 
REMARK    2  A    between atoms: C_7  and  C_4 
REMARK    3  A    between atoms: C_17  and  S_10 
REMARK    4  A    between atoms: C_14  and  C_17 
REMARK    5  A    between atoms: O_18  and  C_14 
REMARK    6  A    between atoms: O_19  and  C_15 
REMARK    7  A    between atoms: C_22  and  O_18 
REMARK    8  A    between atoms: C_24  and  C_22 
ROOT
ATOM      1  C   UNL d   1     -41.354-121.936 -51.846  0.00  0.00     0.093 A 
ATOM      2  C   UNL d   1     -41.216-122.715 -51.584  0.00  0.00     0.124 A 
ATOM      3  N   UNL d   1     -41.140-123.324 -52.134  0.00  0.00    -0.200 NA
ATOM      4  C   UNL d   1     -41.415-121.778 -52.653  0.00  0.00     0.028 A 
ATOM      5  C   UNL d   1     -41.339-122.388 -53.199  0.00  0.00     0.127 A 
ATOM      6  C   UNL d   1     -41.200-123.166 -52.938  0.00  0.00     0.289 A 
ATOM      7  C   UNL d   1     -41.430-121.328 -51.303  0.00  0.00     0.103 C 
ATOM      8  C   UNL d   1     -41.399-122.230 -54.006  0.00  0.00     0.106 C 
ATOM      9  N   UNL d   1     -41.505-120.728 -50.762  0.00  0.00    -0.191 NA
ATOM     10  N   UNL d   1     -41.458-122.076 -54.801  0.00  0.00    -0.191 NA
ATOM     11  O   UNL d   1     -41.125-123.794 -53.574  0.00  0.00    -0.264 OA
ENDROOT
BRANCH   2  12
ATOM     12  S   UNL d   1     -41.162-122.820 -50.725  0.00  0.00    -0.061 SA
BRANCH  12  13
ATOM     13  C   UNL d   1     -41.412-123.502 -50.245  0.00  0.00     0.105 C 
BRANCH  13  14
ATOM     14  C   UNL d   1     -41.777-123.364 -49.469  0.00  0.00     0.307 C 
ATOM     15  O   UNL d   1     -41.569-123.043 -49.105  0.00  0.00    -0.258 OA
BRANCH  14  16
ATOM     16  O   UNL d   1     -42.532-123.809 -49.336  0.00  0.00    -0.271 OA
BRANCH  16  17
ATOM     17  C   UNL d   1     -43.236-123.307 -49.072  0.00  0.00     0.126 C 
BRANCH  17  18
ATOM     18  C   UNL d   1     -44.011-123.813 -49.215  0.00  0.00     0.027 C 
ATOM     19  C   UNL d   1     -44.605-123.286 -49.642  0.00  0.00     0.002 C 
ENDBRANCH  17  18
ENDBRANCH  16  17
ENDBRANCH  14  16
ENDBRANCH  13  14
ENDBRANCH  12  13
ENDBRANCH   2  12
BRANCH   4  20
ATOM     20  C   UNL d   1     -41.551-121.011 -52.911  0.00  0.00     0.024 A 
ATOM     21  C   UNL d   1     -42.109-120.867 -53.497  0.00  0.00     0.094 A 
ATOM     22  C   UNL d   1     -42.246-120.096 -53.756  0.00  0.00     0.024 A 
ATOM     23  C   UNL d   1     -41.825-119.467 -53.429  0.00  0.00     0.002 A 
ATOM     24  C   UNL d   1     -41.264-119.614 -52.840  0.00  0.00     0.000 A 
ATOM     25  C   UNL d   1     -41.127-120.385 -52.581  0.00  0.00     0.002 A 
BRANCH  21  26
ATOM     26  O   UNL d   1     -42.505-121.341 -53.823  0.00  0.00    -0.328 OA
ATOM     27  C   UNL d   1     -43.115-121.099 -54.367  0.00  0.00     0.181 C 
ENDBRANCH  21  26
ENDBRANCH   4  20
TORSDOF 8
ENDMDL
