MODEL 1
REMARK VINA RESULT:      -2.7      0.000      0.000
REMARK  5 active torsions:
REMARK  status: ('A' for Active; 'I' for Inactive)
REMARK    1  A    between atoms: S_3  and  C_1 
REMARK    2  A    between atoms: C_7  and  S_3 
REMARK    3  A    between atoms: N_11  and  C_4 
REMARK    4  A    between atoms: C_10  and  C_5 
REMARK    5  A    between atoms: C_24  and  N_11 
ROOT
ATOM      1  C   UNL d   1      32.842  21.317 -20.879  0.00  0.00     0.042 A 
ATOM      2  C   UNL d   1      33.155  21.038 -20.164  0.00  0.00     0.006 A 
ATOM      3  C   UNL d   1      32.474  22.043 -20.929  0.00  0.00     0.006 A 
ATOM      4  C   UNL d   1      32.719  22.250 -19.534  0.00  0.00     0.094 A 
ATOM      5  C   UNL d   1      33.091  21.513 -19.485  0.00  0.00     0.024 A 
ATOM      6  C   UNL d   1      32.410  22.515 -20.256  0.00  0.00     0.024 A 
ATOM      7  O   UNL d   1      32.664  22.715 -18.839  0.00  0.00    -0.328 OA
ATOM      8  C   UNL d   1      32.600  23.189 -18.159  0.00  0.00     0.181 C 
ENDROOT
BRANCH   1   9
ATOM      9  C   UNL d   1      32.902  20.846 -21.565  0.00  0.00     0.186 A 
ATOM     10  N   UNL d   1      32.769  20.032 -21.560  0.00  0.00    -0.206 NA
ATOM     11  C   UNL d   1      32.878  19.749 -22.334  0.00  0.00     0.224 A 
ATOM     12  C   UNL d   1      33.076  20.393 -22.803  0.00  0.00     0.265 A 
ATOM     13  O   UNL d   1      33.095  21.072 -22.345  0.00  0.00    -0.260 OA
BRANCH  11  14
ATOM     14  S   UNL d   1      32.829  19.014 -22.686  0.00  0.00     0.231 S 
ATOM     15  O   UNL d   1      33.170  18.897 -21.863  0.00  0.00    -0.215 OA
ATOM     16  O   UNL d   1      32.504  19.091 -23.480  0.00  0.00    -0.215 OA
BRANCH  14  17
ATOM     17  C   UNL d   1      32.781  18.258 -23.043  0.00  0.00     0.090 A 
ATOM     18  C   UNL d   1      33.241  17.646 -22.771  0.00  0.00     0.012 A 
ATOM     19  C   UNL d   1      33.188  16.908 -23.127  0.00  0.00     0.007 A 
ATOM     20  C   UNL d   1      32.672  16.796 -23.750  0.00  0.00     0.035 A 
ATOM     21  C   UNL d   1      32.202  17.410 -24.032  0.00  0.00     0.007 A 
ATOM     22 BR   UNL d   1      32.614  16.041 -24.117  0.00  0.00    -0.049 Br
ATOM     23  C   UNL d   1      32.255  18.147 -23.677  0.00  0.00     0.012 A 
ENDBRANCH  14  17
ENDBRANCH  11  14
BRANCH  12  24
ATOM     24  N   UNL d   1      33.227  20.322 -23.617  0.00  0.00    -0.373 NA
BRANCH  24  25
ATOM     25  C   UNL d   1      33.237  20.418 -24.431  0.00  0.00     0.164 C 
ATOM     26  C   UNL d   1      33.177  20.911 -25.089  0.00  0.00     0.037 C 
ENDBRANCH  24  25
ENDBRANCH  12  24
ENDBRANCH   1   9
TORSDOF 5
ENDMDL
MODEL 2
REMARK VINA RESULT:      -2.4      2.225      5.006
REMARK  5 active torsions:
REMARK  status: ('A' for Active; 'I' for Inactive)
REMARK    1  A    between atoms: S_3  and  C_1 
REMARK    2  A    between atoms: C_7  and  S_3 
REMARK    3  A    between atoms: N_11  and  C_4 
REMARK    4  A    between atoms: C_10  and  C_5 
REMARK    5  A    between atoms: C_24  and  N_11 
ROOT
ATOM      1  C   UNL d   1      32.928  18.980 -23.177  0.00  0.00     0.042 A 
ATOM      2  C   UNL d   1      32.736  18.768 -23.955  0.00  0.00     0.006 A 
ATOM      3  C   UNL d   1      33.127  18.422 -22.618  0.00  0.00     0.006 A 
ATOM      4  C   UNL d   1      32.951  17.395 -23.600  0.00  0.00     0.094 A 
ATOM      5  C   UNL d   1      32.749  17.963 -24.165  0.00  0.00     0.024 A 
ATOM      6  C   UNL d   1      33.140  17.624 -22.826  0.00  0.00     0.024 A 
ATOM      7  O   UNL d   1      32.958  16.589 -23.831  0.00  0.00    -0.328 OA
ATOM      8  C   UNL d   1      32.970  15.785 -24.042  0.00  0.00     0.181 C 
ENDROOT
BRANCH   1   9
ATOM      9  C   UNL d   1      32.917  19.786 -22.958  0.00  0.00     0.186 A 
ATOM     10  N   UNL d   1      32.838  20.034 -22.176  0.00  0.00    -0.206 NA
ATOM     11  C   UNL d   1      32.850  20.866 -22.168  0.00  0.00     0.224 A 
ATOM     12  C   UNL d   1      32.936  21.115 -22.945  0.00  0.00     0.265 A 
ATOM     13  O   UNL d   1      32.979  20.464 -23.441  0.00  0.00    -0.260 OA
BRANCH  11  14
ATOM     14  S   UNL d   1      32.797  21.432 -21.583  0.00  0.00     0.231 S 
ATOM     15  O   UNL d   1      32.326  20.717 -21.310  0.00  0.00    -0.215 OA
ATOM     16  O   UNL d   1      33.240  22.134 -21.814  0.00  0.00    -0.215 OA
BRANCH  14  17
ATOM     17  C   UNL d   1      32.740  22.010 -20.980  0.00  0.00     0.090 A 
ATOM     18  C   UNL d   1      33.230  22.658 -20.985  0.00  0.00     0.012 A 
ATOM     19  C   UNL d   1      33.168  23.221 -20.391  0.00  0.00     0.007 A 
ATOM     20  C   UNL d   1      32.614  23.124 -19.799  0.00  0.00     0.035 A 
ATOM     21  C   UNL d   1      32.112  22.471 -19.785  0.00  0.00     0.007 A 
ATOM     22 BR   UNL d   1      32.547  23.698 -19.188  0.00  0.00    -0.049 Br
ATOM     23  C   UNL d   1      32.174  21.909 -20.379  0.00  0.00     0.012 A 
ENDBRANCH  14  17
ENDBRANCH  11  14
BRANCH  12  24
ATOM     24  N   UNL d   1      32.971  21.919 -23.154  0.00  0.00    -0.373 NA
BRANCH  24  25
ATOM     25  C   UNL d   1      33.034  22.629 -23.559  0.00  0.00     0.164 C 
ATOM     26  C   UNL d   1      32.725  23.165 -24.104  0.00  0.00     0.037 C 
ENDBRANCH  24  25
ENDBRANCH  12  24
ENDBRANCH   1   9
TORSDOF 5
ENDMDL
MODEL 3
REMARK VINA RESULT:      -1.7      1.021      1.437
REMARK  5 active torsions:
REMARK  status: ('A' for Active; 'I' for Inactive)
REMARK    1  A    between atoms: S_3  and  C_1 
REMARK    2  A    between atoms: C_7  and  S_3 
REMARK    3  A    between atoms: N_11  and  C_4 
REMARK    4  A    between atoms: C_10  and  C_5 
REMARK    5  A    between atoms: C_24  and  N_11 
ROOT
ATOM      1  C   UNL d   1      32.913  22.226 -20.323  0.00  0.00     0.042 A 
ATOM      2  C   UNL d   1      33.213  22.995 -20.243  0.00  0.00     0.006 A 
ATOM      3  C   UNL d   1      32.595  21.824 -19.690  0.00  0.00     0.006 A 
ATOM      4  C   UNL d   1      32.866  22.952 -18.853  0.00  0.00     0.094 A 
ATOM      5  C   UNL d   1      33.188  23.359 -19.497  0.00  0.00     0.024 A 
ATOM      6  C   UNL d   1      32.570  22.185 -18.949  0.00  0.00     0.024 A 
ATOM      7  O   UNL d   1      32.850  23.337 -18.108  0.00  0.00    -0.328 OA
ATOM      8  C   UNL d   1      32.825  23.702 -17.362  0.00  0.00     0.181 C 
ENDROOT
BRANCH   1   9
ATOM      9  C   UNL d   1      32.934  21.854 -21.070  0.00  0.00     0.186 A 
ATOM     10  N   UNL d   1      32.834  21.041 -21.165  0.00  0.00    -0.206 NA
ATOM     11  C   UNL d   1      32.889  20.869 -21.977  0.00  0.00     0.224 A 
ATOM     12  C   UNL d   1      33.023  21.578 -22.368  0.00  0.00     0.265 A 
ATOM     13  O   UNL d   1      33.053  22.191 -21.825  0.00  0.00    -0.260 OA
BRANCH  11  14
ATOM     14  S   UNL d   1      32.839  20.185 -22.421  0.00  0.00     0.231 S 
ATOM     15  O   UNL d   1      32.413  20.035 -21.644  0.00  0.00    -0.215 OA
ATOM     16  O   UNL d   1      33.241  20.297 -23.176  0.00  0.00    -0.215 OA
BRANCH  14  17
ATOM     17  C   UNL d   1      32.786  19.482 -22.873  0.00  0.00     0.090 A 
ATOM     18  C   UNL d   1      32.381  19.477 -23.577  0.00  0.00     0.012 A 
ATOM     19  C   UNL d   1      32.334  18.785 -24.014  0.00  0.00     0.007 A 
ATOM     20  C   UNL d   1      32.694  18.106 -23.737  0.00  0.00     0.035 A 
ATOM     21  C   UNL d   1      33.107  18.101 -23.025  0.00  0.00     0.007 A 
ATOM     22 BR   UNL d   1      32.648  17.394 -24.182  0.00  0.00    -0.049 Br
ATOM     23  C   UNL d   1      33.154  18.794 -22.588  0.00  0.00     0.012 A 
ENDBRANCH  14  17
ENDBRANCH  11  14
BRANCH  12  24
ATOM     24  N   UNL d   1      33.109  21.623 -23.193  0.00  0.00    -0.373 NA
BRANCH  24  25
ATOM     25  C   UNL d   1      33.208  21.880 -23.966  0.00  0.00     0.164 C 
ATOM     26  C   UNL d   1      33.106  22.465 -24.538  0.00  0.00     0.037 C 
ENDBRANCH  24  25
ENDBRANCH  12  24
ENDBRANCH   1   9
TORSDOF 5
ENDMDL
