MODEL 1
REMARK VINA RESULT:      -9.1      0.000      0.000
REMARK  3 active torsions:
REMARK  status: ('A' for Active; 'I' for Inactive)
REMARK       I    between atoms: C_4  and  N_1 
REMARK    1  A    between atoms: C_7  and  C_3 
REMARK    2  A    between atoms: C_8  and  C_4 
REMARK    3  A    between atoms: C_13  and  C_5 
ROOT
ATOM      1  N   UNL d   1     -48.455  14.125  22.859  0.00  0.00    -0.194 N 
ATOM      2  N   UNL d   1     -47.641  14.140  22.810  0.00  0.00    -0.163 NA
ATOM      3  C   UNL d   1     -48.701  13.336  22.842  0.00  0.00     0.091 A 
ATOM      4  C   UNL d   1     -48.974  14.796  22.918  0.00  0.00     0.286 C 
ATOM      5  C   UNL d   1     -47.380  13.357  22.762  0.00  0.00     0.103 A 
ATOM      6  C   UNL d   1     -48.033  12.867  22.782  0.00  0.00     0.040 A 
ATOM      7  O   UNL d   1     -48.638  15.554  22.929  0.00  0.00    -0.265 OA
ENDROOT
BRANCH   3   8
ATOM      8  C   UNL d   1     -49.488  13.073  22.879  0.00  0.00     0.057 A 
ATOM      9  C   UNL d   1     -49.840  12.757  22.217  0.00  0.00     0.197 A 
ATOM     10  O   UNL d   1     -49.429  12.695  21.519  0.00  0.00    -0.286 OA
ATOM     11  C   UNL d   1     -50.628  12.495  22.255  0.00  0.00     0.042 A 
ATOM     12  C   UNL d   1     -51.064  12.547  22.951  0.00  0.00     0.003 A 
ATOM     13  C   UNL d   1     -50.690  12.871  23.610  0.00  0.00     0.000 A 
ATOM     14  C   UNL d   1     -49.926  13.126  23.577  0.00  0.00     0.005 A 
ENDBRANCH   3   8
BRANCH   4  15
ATOM     15  C   UNL d   1     -49.771  14.698  22.963  0.00  0.00     0.087 A 
ATOM     16  S   UNL d   1     -50.188  14.610  23.641  0.00  0.00    -0.082 SA
ATOM     17  C   UNL d   1     -50.994  14.524  23.433  0.00  0.00     0.036 A 
ATOM     18  C   UNL d   1     -51.048  14.564  22.604  0.00  0.00     0.008 A 
ATOM     19  C   UNL d   1     -50.293  14.671  22.315  0.00  0.00     0.012 A 
ENDBRANCH   4  15
BRANCH   5  20
ATOM     20  C   UNL d   1     -46.592  13.118  22.704  0.00  0.00     0.019 A 
ATOM     21  C   UNL d   1     -46.336  12.439  23.114  0.00  0.00     0.002 A 
ATOM     22  C   UNL d   1     -45.547  12.197  23.058  0.00  0.00     0.000 A 
ATOM     23  C   UNL d   1     -45.012  12.627  22.596  0.00  0.00     0.000 A 
ATOM     24  C   UNL d   1     -45.269  13.305  22.187  0.00  0.00     0.000 A 
ATOM     25  C   UNL d   1     -46.057  13.545  22.245  0.00  0.00     0.002 A 
ENDBRANCH   5  20
TORSDOF 3
ENDMDL
MODEL 2
REMARK VINA RESULT:      -9.1      0.914      1.721
REMARK  3 active torsions:
REMARK  status: ('A' for Active; 'I' for Inactive)
REMARK       I    between atoms: C_4  and  N_1 
REMARK    1  A    between atoms: C_7  and  C_3 
REMARK    2  A    between atoms: C_8  and  C_4 
REMARK    3  A    between atoms: C_13  and  C_5 
ROOT
ATOM      1  N   UNL d   1     -48.531  13.247  22.043  0.00  0.00    -0.194 N 
ATOM      2  N   UNL d   1     -47.812  12.886  21.911  0.00  0.00    -0.163 NA
ATOM      3  C   UNL d   1     -48.429  13.819  22.632  0.00  0.00     0.091 A 
ATOM      4  C   UNL d   1     -49.267  13.077  21.651  0.00  0.00     0.286 C 
ATOM      5  C   UNL d   1     -47.261  13.234  22.419  0.00  0.00     0.103 A 
ATOM      6  C   UNL d   1     -47.644  13.806  22.860  0.00  0.00     0.040 A 
ATOM      7  O   UNL d   1     -49.276  12.485  21.071  0.00  0.00    -0.265 OA
ENDROOT
BRANCH   3   8
ATOM      8  C   UNL d   1     -49.024  14.315  22.933  0.00  0.00     0.057 A 
ATOM      9  C   UNL d   1     -49.012  15.110  22.762  0.00  0.00     0.197 A 
ATOM     10  O   UNL d   1     -48.424  15.425  22.298  0.00  0.00    -0.286 OA
ATOM     11  C   UNL d   1     -49.607  15.606  23.063  0.00  0.00     0.042 A 
ATOM     12  C   UNL d   1     -50.213  15.310  23.535  0.00  0.00     0.003 A 
ATOM     13  C   UNL d   1     -50.207  14.502  23.697  0.00  0.00     0.000 A 
ATOM     14  C   UNL d   1     -49.632  14.018  23.407  0.00  0.00     0.005 A 
ENDBRANCH   3   8
BRANCH   4  15
ATOM     15  C   UNL d   1     -49.937  13.480  21.840  0.00  0.00     0.087 A 
ATOM     16  S   UNL d   1     -50.450  13.277  22.420  0.00  0.00    -0.082 SA
ATOM     17  C   UNL d   1     -51.064  13.845  22.424  0.00  0.00     0.036 A 
ATOM     18  C   UNL d   1     -50.903  14.399  21.824  0.00  0.00     0.008 A 
ATOM     19  C   UNL d   1     -50.207  14.172  21.465  0.00  0.00     0.012 A 
ENDBRANCH   4  15
BRANCH   5  20
ATOM     20  C   UNL d   1     -46.462  13.034  22.469  0.00  0.00     0.019 A 
ATOM     21  C   UNL d   1     -46.232  12.357  22.896  0.00  0.00     0.002 A 
ATOM     22  C   UNL d   1     -45.432  12.153  22.948  0.00  0.00     0.000 A 
ATOM     23  C   UNL d   1     -44.860  12.621  22.575  0.00  0.00     0.000 A 
ATOM     24  C   UNL d   1     -45.091  13.298  22.148  0.00  0.00     0.000 A 
ATOM     25  C   UNL d   1     -45.890  13.498  22.098  0.00  0.00     0.002 A 
ENDBRANCH   5  20
TORSDOF 3
ENDMDL
MODEL 3
REMARK VINA RESULT:      -7.9      1.044      1.515
REMARK  3 active torsions:
REMARK  status: ('A' for Active; 'I' for Inactive)
REMARK       I    between atoms: C_4  and  N_1 
REMARK    1  A    between atoms: C_7  and  C_3 
REMARK    2  A    between atoms: C_8  and  C_4 
REMARK    3  A    between atoms: C_13  and  C_5 
ROOT
ATOM      1  N   UNL d   1     -47.574  13.237  22.990  0.00  0.00    -0.194 N 
ATOM      2  N   UNL d   1     -46.809  12.973  23.086  0.00  0.00    -0.163 NA
ATOM      3  C   UNL d   1     -48.079  12.582  23.004  0.00  0.00     0.091 A 
ATOM      4  C   UNL d   1     -47.827  14.044  22.891  0.00  0.00     0.286 C 
ATOM      5  C   UNL d   1     -46.838  12.150  23.161  0.00  0.00     0.103 A 
ATOM      6  C   UNL d   1     -47.618  11.915  23.110  0.00  0.00     0.040 A 
ATOM      7  O   UNL d   1     -47.249  14.639  22.888  0.00  0.00    -0.265 OA
ENDROOT
BRANCH   3   8
ATOM      8  C   UNL d   1     -48.906  12.606  22.925  0.00  0.00     0.057 A 
ATOM      9  C   UNL d   1     -49.253  12.344  22.238  0.00  0.00     0.197 A 
ATOM     10  O   UNL d   1     -48.799  12.059  21.627  0.00  0.00    -0.286 OA
ATOM     11  C   UNL d   1     -50.080  12.367  22.159  0.00  0.00     0.042 A 
ATOM     12  C   UNL d   1     -50.560  12.652  22.764  0.00  0.00     0.003 A 
ATOM     13  C   UNL d   1     -50.189  12.912  23.452  0.00  0.00     0.000 A 
ATOM     14  C   UNL d   1     -49.387  12.891  23.532  0.00  0.00     0.005 A 
ENDBRANCH   3   8
BRANCH   4  15
ATOM     15  C   UNL d   1     -48.605  14.224  22.801  0.00  0.00     0.087 A 
ATOM     16  S   UNL d   1     -48.970  14.358  22.101  0.00  0.00    -0.082 SA
ATOM     17  C   UNL d   1     -49.774  14.525  22.262  0.00  0.00     0.036 A 
ATOM     18  C   UNL d   1     -49.880  14.487  23.087  0.00  0.00     0.008 A 
ATOM     19  C   UNL d   1     -49.159  14.302  23.418  0.00  0.00     0.012 A 
ENDBRANCH   4  15
BRANCH   5  20
ATOM     20  C   UNL d   1     -46.185  11.656  23.268  0.00  0.00     0.019 A 
ATOM     21  C   UNL d   1     -45.426  11.922  23.049  0.00  0.00     0.002 A 
ATOM     22  C   UNL d   1     -44.770  11.430  23.155  0.00  0.00     0.000 A 
ATOM     23  C   UNL d   1     -44.866  10.675  23.478  0.00  0.00     0.000 A 
ATOM     24  C   UNL d   1     -45.625  10.409  23.698  0.00  0.00     0.000 A 
ATOM     25  C   UNL d   1     -46.277  10.903  23.591  0.00  0.00     0.002 A 
ENDBRANCH   5  20
TORSDOF 3
ENDMDL
MODEL 4
REMARK VINA RESULT:      -7.0      9.359     10.245
REMARK  3 active torsions:
REMARK  status: ('A' for Active; 'I' for Inactive)
REMARK       I    between atoms: C_4  and  N_1 
REMARK    1  A    between atoms: C_7  and  C_3 
REMARK    2  A    between atoms: C_8  and  C_4 
REMARK    3  A    between atoms: C_13  and  C_5 
ROOT
ATOM      1  N   UNL d   1     -39.956  15.054  19.625  0.00  0.00    -0.194 N 
ATOM      2  N   UNL d   1     -39.949  15.064  20.441  0.00  0.00    -0.163 NA
ATOM      3  C   UNL d   1     -39.335  14.573  19.367  0.00  0.00     0.091 A 
ATOM      4  C   UNL d   1     -40.502  15.461  19.115  0.00  0.00     0.286 C 
ATOM      5  C   UNL d   1     -39.321  14.589  20.691  0.00  0.00     0.103 A 
ATOM      6  C   UNL d   1     -38.947  14.290  20.029  0.00  0.00     0.040 A 
ATOM      7  O   UNL d   1     -41.097  15.922  19.463  0.00  0.00    -0.265 OA
ENDROOT
BRANCH   3   8
ATOM      8  C   UNL d   1     -39.145  14.412  18.575  0.00  0.00     0.057 A 
ATOM      9  C   UNL d   1     -38.474  14.734  18.247  0.00  0.00     0.197 A 
ATOM     10  O   UNL d   1     -37.986  15.213  18.687  0.00  0.00    -0.286 OA
ATOM     11  C   UNL d   1     -38.283  14.572  17.454  0.00  0.00     0.042 A 
ATOM     12  C   UNL d   1     -38.762  14.090  16.989  0.00  0.00     0.003 A 
ATOM     13  C   UNL d   1     -39.437  13.774  17.339  0.00  0.00     0.000 A 
ATOM     14  C   UNL d   1     -39.624  13.928  18.108  0.00  0.00     0.005 A 
ENDBRANCH   3   8
BRANCH   4  15
ATOM     15  C   UNL d   1     -40.442  15.399  18.315  0.00  0.00     0.087 A 
ATOM     16  S   UNL d   1     -40.031  15.898  17.843  0.00  0.00    -0.082 SA
ATOM     17  C   UNL d   1     -40.118  15.630  17.056  0.00  0.00     0.036 A 
ATOM     18  C   UNL d   1     -40.596  14.950  17.070  0.00  0.00     0.008 A 
ATOM     19  C   UNL d   1     -40.796  14.808  17.847  0.00  0.00     0.012 A 
ENDBRANCH   4  15
BRANCH   5  20
ATOM     20  C   UNL d   1     -39.112  14.446  21.476  0.00  0.00     0.019 A 
ATOM     21  C   UNL d   1     -39.159  13.672  21.781  0.00  0.00     0.002 A 
ATOM     22  C   UNL d   1     -38.950  13.524  22.567  0.00  0.00     0.000 A 
ATOM     23  C   UNL d   1     -38.696  14.144  23.052  0.00  0.00     0.000 A 
ATOM     24  C   UNL d   1     -38.650  14.918  22.748  0.00  0.00     0.000 A 
ATOM     25  C   UNL d   1     -38.858  15.062  21.962  0.00  0.00     0.002 A 
ENDBRANCH   5  20
TORSDOF 3
ENDMDL
