MODEL 1
REMARK VINA RESULT:      -5.1      0.000      0.000
REMARK  6 active torsions:
REMARK  status: ('A' for Active; 'I' for Inactive)
REMARK    1  A    between atoms: C_2  and  S_1 
REMARK    2  A    between atoms: N_5  and  S_1 
REMARK    3  A    between atoms: C_9  and  N_5 
REMARK    4  A    between atoms: C_11  and  C_9 
REMARK       I    between atoms: N_17  and  C_11 
REMARK    5  A    between atoms: C_16  and  C_21 
REMARK    6  A    between atoms: C_21  and  N_17 
ROOT
ATOM      1  C   UNL d   1      57.818   0.014  30.233  0.00  0.00     0.299 C 
ATOM      2  N   UNL d   1      58.369  -0.571  30.071  0.00  0.00    -0.203 NA
ATOM      3  O   UNL d   1      57.495   0.474  29.604  0.00  0.00    -0.263 OA
ENDROOT
BRANCH   1   4
ATOM      4  C   UNL d   1      57.578   0.153  31.008  0.00  0.00     0.174 C 
BRANCH   4   5
ATOM      5  N   UNL d   1      56.960  -0.301  31.340  0.00  0.00    -0.151 NA
BRANCH   5   6
ATOM      6  S   UNL d   1      56.646  -0.094  32.083  0.00  0.00     0.291 S 
ATOM      7  O   UNL d   1      56.953   0.680  32.000  0.00  0.00    -0.198 OA
ATOM      8  O   UNL d   1      56.343  -0.852  32.170  0.00  0.00    -0.198 OA
BRANCH   6   9
ATOM      9  C   UNL d   1      56.338   0.123  32.821  0.00  0.00     0.135 A 
ATOM     10  S   UNL d   1      55.555   0.220  32.976  0.00  0.00    -0.067 SA
ATOM     11  C   UNL d   1      55.478   0.438  33.784  0.00  0.00     0.065 A 
ATOM     12 BR   UNL d   1      54.759   0.596  34.188  0.00  0.00    -0.042 Br
ATOM     13  C   UNL d   1      56.219   0.469  34.106  0.00  0.00     0.015 A 
ATOM     14  C   UNL d   1      56.762   0.274  33.512  0.00  0.00     0.021 A 
ENDBRANCH   6   9
ENDBRANCH   5   6
ENDBRANCH   4   5
ENDBRANCH   1   4
BRANCH   2  15
ATOM     15  C   UNL d   1      58.613  -0.712  29.284  0.00  0.00     0.129 C 
BRANCH  15  16
ATOM     16  C   UNL d   1      59.083  -1.380  29.114  0.00  0.00     0.144 A 
ATOM     17  O   UNL d   1      58.749  -2.102  28.954  0.00  0.00    -0.301 OA
ATOM     18  C   UNL d   1      59.223  -2.744  28.790  0.00  0.00     0.123 A 
ATOM     19  C   UNL d   1      58.883  -3.478  28.627  0.00  0.00     0.027 A 
ATOM     20  C   UNL d   1      60.042  -2.669  28.784  0.00  0.00     0.123 A 
ATOM     21  C   UNL d   1      59.359  -4.133  28.460  0.00  0.00     0.002 A 
ATOM     22  C   UNL d   1      60.178  -4.054  28.455  0.00  0.00     0.002 A 
ATOM     23  C   UNL d   1      60.519  -3.313  28.620  0.00  0.00     0.027 A 
ATOM     24  O   UNL d   1      60.385  -1.942  28.945  0.00  0.00    -0.301 OA
ATOM     25  C   UNL d   1      59.902  -1.300  29.109  0.00  0.00     0.149 A 
ENDBRANCH  15  16
ENDBRANCH   2  15
TORSDOF 6
ENDMDL
MODEL 2
REMARK VINA RESULT:      -2.3      1.380      1.900
REMARK  6 active torsions:
REMARK  status: ('A' for Active; 'I' for Inactive)
REMARK    1  A    between atoms: C_2  and  S_1 
REMARK    2  A    between atoms: N_5  and  S_1 
REMARK    3  A    between atoms: C_9  and  N_5 
REMARK    4  A    between atoms: C_11  and  C_9 
REMARK       I    between atoms: N_17  and  C_11 
REMARK    5  A    between atoms: C_16  and  C_21 
REMARK    6  A    between atoms: C_21  and  N_17 
ROOT
ATOM      1  C   UNL d   1      57.031  -0.776  31.389  0.00  0.00     0.299 C 
ATOM      2  N   UNL d   1      57.426  -0.580  30.697  0.00  0.00    -0.203 NA
ATOM      3  O   UNL d   1      56.960  -1.584  31.618  0.00  0.00    -0.263 OA
ENDROOT
BRANCH   1   4
ATOM      4  C   UNL d   1      56.704  -0.185  31.859  0.00  0.00     0.174 C 
BRANCH   4   5
ATOM      5  N   UNL d   1      56.880  -0.159  32.676  0.00  0.00    -0.151 NA
BRANCH   5   6
ATOM      6  S   UNL d   1      56.292   0.070  33.219  0.00  0.00     0.291 S 
ATOM      7  O   UNL d   1      55.791  -0.537  32.938  0.00  0.00    -0.198 OA
ATOM      8  O   UNL d   1      56.780   0.668  33.500  0.00  0.00    -0.198 OA
BRANCH   6   9
ATOM      9  C   UNL d   1      55.701   0.290  33.756  0.00  0.00     0.135 A 
ATOM     10  S   UNL d   1      55.800   0.322  34.554  0.00  0.00    -0.067 SA
ATOM     11  C   UNL d   1      55.072   0.568  34.893  0.00  0.00     0.065 A 
ATOM     12 BR   UNL d   1      54.919   0.678  35.712  0.00  0.00    -0.042 Br
ATOM     13  C   UNL d   1      54.542   0.681  34.294  0.00  0.00     0.015 A 
ATOM     14  C   UNL d   1      54.926   0.510  33.580  0.00  0.00     0.021 A 
ENDBRANCH   6   9
ENDBRANCH   5   6
ENDBRANCH   4   5
ENDBRANCH   1   4
BRANCH   2  15
ATOM     15  C   UNL d   1      57.758  -1.180  30.219  0.00  0.00     0.129 C 
BRANCH  15  16
ATOM     16  C   UNL d   1      58.447  -1.018  29.777  0.00  0.00     0.144 A 
ATOM     17  O   UNL d   1      59.082  -1.524  29.786  0.00  0.00    -0.301 OA
ATOM     18  C   UNL d   1      59.748  -1.350  29.349  0.00  0.00     0.123 A 
ATOM     19  C   UNL d   1      60.394  -1.864  29.357  0.00  0.00     0.027 A 
ATOM     20  C   UNL d   1      59.784  -0.664  28.896  0.00  0.00     0.123 A 
ATOM     21  C   UNL d   1      61.071  -1.694  28.916  0.00  0.00     0.002 A 
ATOM     22  C   UNL d   1      61.103  -1.006  28.464  0.00  0.00     0.002 A 
ATOM     23  C   UNL d   1      60.451  -0.489  28.457  0.00  0.00     0.027 A 
ATOM     24  O   UNL d   1      59.145  -0.151  28.884  0.00  0.00    -0.301 OA
ATOM     25  C   UNL d   1      58.479  -0.331  29.325  0.00  0.00     0.149 A 
ENDBRANCH  15  16
ENDBRANCH   2  15
TORSDOF 6
ENDMDL
