MODEL 1
REMARK VINA RESULT:      70.0      0.000      0.000
REMARK  4 active torsions:
REMARK  status: ('A' for Active; 'I' for Inactive)
REMARK    1  A    between atoms: C_8  and  C_1 
REMARK    2  A    between atoms: N_5  and  C_2 
REMARK       I    between atoms: C_7  and  N_5 
REMARK    3  A    between atoms: C_10  and  C_7 
REMARK    4  A    between atoms: O_17  and  C_16 
ROOT
ATOM      1  N   UNL d   1      60.101  48.027  50.558  0.00  0.00    -0.165 NA
ATOM      2  C   UNL d   1      60.764  48.217  50.121  0.00  0.00     0.282 C 
ATOM      3  O   UNL d   1      60.864  48.982  49.820  0.00  0.00    -0.265 OA
ENDROOT
BRANCH   1   4
ATOM      4  C   UNL d   1      59.522  48.595  50.704  0.00  0.00     0.297 A 
ATOM      5  O   UNL d   1      58.728  48.533  50.489  0.00  0.00    -0.253 OA
ATOM      6  C   UNL d   1      58.342  49.222  50.741  0.00  0.00     0.212 A 
ATOM      7  N   UNL d   1      58.899  49.699  51.107  0.00  0.00    -0.119 NA
ATOM      8  N   UNL d   1      59.627  49.312  51.085  0.00  0.00    -0.101 NA
BRANCH   6   9
ATOM      9  C   UNL d   1      57.537  49.390  50.636  0.00  0.00     0.072 A 
ATOM     10  S   UNL d   1      57.162  49.533  49.920  0.00  0.00    -0.083 SA
ATOM     11  C   UNL d   1      56.365  49.674  50.074  0.00  0.00     0.035 A 
ATOM     12  C   UNL d   1      56.247  49.617  50.893  0.00  0.00     0.008 A 
ATOM     13  C   UNL d   1      56.977  49.440  51.240  0.00  0.00     0.011 A 
ENDBRANCH   6   9
ENDBRANCH   1   4
BRANCH   2  14
ATOM     14  C   UNL d   1      61.345  47.646  49.974  0.00  0.00     0.060 A 
ATOM     15  C   UNL d   1      61.144  46.845  49.937  0.00  0.00     0.029 A 
ATOM     16  C   UNL d   1      61.722  46.284  49.792  0.00  0.00     0.094 A 
ATOM     17  C   UNL d   1      62.504  46.518  49.682  0.00  0.00     0.024 A 
ATOM     18  C   UNL d   1      62.709  47.319  49.718  0.00  0.00     0.002 A 
ATOM     19  C   UNL d   1      62.126  47.878  49.864  0.00  0.00     0.005 A 
BRANCH  16  20
ATOM     20  O   UNL d   1      61.525  45.464  49.753  0.00  0.00    -0.328 OA
ATOM     21  C   UNL d   1      62.086  44.916  49.526  0.00  0.00     0.181 C 
ENDBRANCH  16  20
ENDBRANCH   2  14
TORSDOF 4
ENDMDL
MODEL 2
REMARK VINA RESULT:      70.8      2.176      3.216
REMARK  4 active torsions:
REMARK  status: ('A' for Active; 'I' for Inactive)
REMARK    1  A    between atoms: C_8  and  C_1 
REMARK    2  A    between atoms: N_5  and  C_2 
REMARK       I    between atoms: C_7  and  N_5 
REMARK    3  A    between atoms: C_10  and  C_7 
REMARK    4  A    between atoms: O_17  and  C_16 
ROOT
ATOM      1  N   UNL d   1      61.360  46.098  50.105  0.00  0.00    -0.165 NA
ATOM      2  C   UNL d   1      61.846  45.748  49.550  0.00  0.00     0.282 C 
ATOM      3  O   UNL d   1      62.373  46.205  49.104  0.00  0.00    -0.265 OA
ENDROOT
BRANCH   1   4
ATOM      4  C   UNL d   1      61.389  46.912  50.229  0.00  0.00     0.297 A 
ATOM      5  O   UNL d   1      60.921  47.330  50.766  0.00  0.00    -0.253 OA
ATOM      6  C   UNL d   1      61.127  48.130  50.712  0.00  0.00     0.212 A 
ATOM      7  N   UNL d   1      61.717  48.198  50.147  0.00  0.00    -0.119 NA
ATOM      8  N   UNL d   1      61.878  47.447  49.849  0.00  0.00    -0.101 NA
BRANCH   6   9
ATOM      9  C   UNL d   1      60.791  48.745  51.156  0.00  0.00     0.072 A 
ATOM     10  S   UNL d   1      60.091  49.137  50.986  0.00  0.00    -0.083 SA
ATOM     11  C   UNL d   1      59.968  49.705  51.570  0.00  0.00     0.035 A 
ATOM     12  C   UNL d   1      60.600  49.663  52.106  0.00  0.00     0.008 A 
ATOM     13  C   UNL d   1      61.110  49.066  51.846  0.00  0.00     0.011 A 
ENDBRANCH   6   9
ENDBRANCH   1   4
BRANCH   2  14
ATOM     14  C   UNL d   1      61.817  44.929  49.426  0.00  0.00     0.060 A 
ATOM     15  C   UNL d   1      62.387  44.435  49.763  0.00  0.00     0.029 A 
ATOM     16  C   UNL d   1      62.353  43.627  49.638  0.00  0.00     0.094 A 
ATOM     17  C   UNL d   1      61.752  43.307  49.177  0.00  0.00     0.024 A 
ATOM     18  C   UNL d   1      61.179  43.798  48.837  0.00  0.00     0.002 A 
ATOM     19  C   UNL d   1      61.216  44.609  48.965  0.00  0.00     0.005 A 
BRANCH  16  20
ATOM     20  O   UNL d   1      62.932  43.116  49.978  0.00  0.00    -0.328 OA
ATOM     21  C   UNL d   1      62.730  42.618  50.594  0.00  0.00     0.181 C 
ENDBRANCH  16  20
ENDBRANCH   2  14
TORSDOF 4
ENDMDL
