MODEL 1
REMARK VINA RESULT:      -7.5      0.000      0.000
REMARK  4 active torsions:
REMARK  status: ('A' for Active; 'I' for Inactive)
REMARK    1  A    between atoms: N_2  and  S_1 
REMARK    2  A    between atoms: C_4  and  S_1 
REMARK    3  A    between atoms: C_5  and  N_3 
REMARK    4  A    between atoms: C_12  and  C_13 
ROOT
ATOM      1  N   UNL d   1     -47.577  12.993  23.145  0.00  0.00    -0.226 N 
ATOM      2  N   UNL d   1     -48.898  13.977  23.060  0.00  0.00    -0.299 N 
ATOM      3  C   UNL d   1     -48.296  12.744  23.456  0.00  0.00     0.111 A 
ATOM      4  C   UNL d   1     -47.512  13.740  22.788  0.00  0.00     0.111 A 
ATOM      5  C   UNL d   1     -48.957  13.236  23.413  0.00  0.00     0.100 A 
ATOM      6  C   UNL d   1     -48.173  14.232  22.745  0.00  0.00     0.100 A 
ENDROOT
BRANCH   1   7
ATOM      7  S   UNL d   1     -46.913  12.499  23.188  0.00  0.00     0.271 S 
ATOM      8  O   UNL d   1     -46.450  13.140  23.424  0.00  0.00    -0.200 OA
ATOM      9  O   UNL d   1     -47.375  11.857  22.952  0.00  0.00    -0.200 OA
BRANCH   7  10
ATOM     10  C   UNL d   1     -46.255  12.009  23.231  0.00  0.00     0.104 A 
ATOM     11  C   UNL d   1     -46.291  11.305  23.655  0.00  0.00     0.013 A 
ATOM     12  C   UNL d   1     -45.630  10.813  23.698  0.00  0.00    -0.004 A 
ATOM     13  C   UNL d   1     -44.933  11.025  23.316  0.00  0.00    -0.023 A 
ATOM     14  C   UNL d   1     -44.898  11.727  22.893  0.00  0.00    -0.004 A 
ATOM     15  C   UNL d   1     -45.559  12.219  22.850  0.00  0.00     0.013 A 
BRANCH  13  16
ATOM     16  C   UNL d   1     -44.269  10.530  23.359  0.00  0.00     0.019 C 
ATOM     17  C   UNL d   1     -44.733   9.937  23.697  0.00  0.00     0.004 C 
ATOM     18  C   UNL d   1     -43.806  11.123  23.020  0.00  0.00     0.004 C 
ATOM     19  C   UNL d   1     -43.612  10.041  23.401  0.00  0.00     0.004 C 
ENDBRANCH  13  16
ENDBRANCH   7  10
ENDBRANCH   1   7
BRANCH   2  20
ATOM     20  C   UNL d   1     -49.565  14.474  23.017  0.00  0.00     0.092 A 
ATOM     21  C   UNL d   1     -50.068  14.441  22.354  0.00  0.00     0.156 A 
ATOM     22  F   UNL d   1     -49.913  13.948  21.780  0.00  0.00    -0.203 F 
ATOM     23  C   UNL d   1     -50.726  14.930  22.311  0.00  0.00     0.031 A 
ATOM     24  C   UNL d   1     -50.890  15.460  22.931  0.00  0.00     0.002 A 
ATOM     25  C   UNL d   1     -50.391  15.491  23.587  0.00  0.00     0.002 A 
ATOM     26  C   UNL d   1     -49.733  15.001  23.629  0.00  0.00     0.020 A 
ENDBRANCH   2  20
TORSDOF 4
ENDMDL
MODEL 2
REMARK VINA RESULT:      -6.8      1.387      5.527
REMARK  4 active torsions:
REMARK  status: ('A' for Active; 'I' for Inactive)
REMARK    1  A    between atoms: N_2  and  S_1 
REMARK    2  A    between atoms: C_4  and  S_1 
REMARK    3  A    between atoms: C_5  and  N_3 
REMARK    4  A    between atoms: C_12  and  C_13 
ROOT
ATOM      1  N   UNL d   1     -47.008  12.688  23.136  0.00  0.00    -0.226 N 
ATOM      2  N   UNL d   1     -45.685  11.707  23.220  0.00  0.00    -0.299 N 
ATOM      3  C   UNL d   1     -47.000  12.051  23.656  0.00  0.00     0.111 A 
ATOM      4  C   UNL d   1     -46.351  12.840  22.652  0.00  0.00     0.111 A 
ATOM      5  C   UNL d   1     -46.338  11.560  23.698  0.00  0.00     0.100 A 
ATOM      6  C   UNL d   1     -45.689  12.350  22.694  0.00  0.00     0.100 A 
ENDROOT
BRANCH   1   7
ATOM      7  S   UNL d   1     -47.673  13.182  23.094  0.00  0.00     0.271 S 
ATOM      8  O   UNL d   1     -48.148  12.527  22.933  0.00  0.00    -0.200 OA
ATOM      9  O   UNL d   1     -47.197  13.836  23.255  0.00  0.00    -0.200 OA
BRANCH   7  10
ATOM     10  C   UNL d   1     -48.331  13.670  23.053  0.00  0.00     0.104 A 
ATOM     11  C   UNL d   1     -49.065  13.397  23.307  0.00  0.00     0.013 A 
ATOM     12  C   UNL d   1     -49.727  13.888  23.265  0.00  0.00    -0.004 A 
ATOM     13  C   UNL d   1     -49.655  14.652  22.969  0.00  0.00    -0.023 A 
ATOM     14  C   UNL d   1     -48.924  14.924  22.716  0.00  0.00    -0.004 A 
ATOM     15  C   UNL d   1     -48.262  14.433  22.758  0.00  0.00     0.013 A 
BRANCH  13  16
ATOM     16  C   UNL d   1     -50.320  15.146  22.927  0.00  0.00     0.019 C 
ATOM     17  C   UNL d   1     -50.605  14.707  22.289  0.00  0.00     0.004 C 
ATOM     18  C   UNL d   1     -50.034  15.585  23.565  0.00  0.00     0.004 C 
ATOM     19  C   UNL d   1     -50.978  15.634  22.885  0.00  0.00     0.004 C 
ENDBRANCH  13  16
ENDBRANCH   7  10
ENDBRANCH   1   7
BRANCH   2  20
ATOM     20  C   UNL d   1     -45.016  11.211  23.262  0.00  0.00     0.092 A 
ATOM     21  C   UNL d   1     -44.301  11.444  22.905  0.00  0.00     0.156 A 
ATOM     22  F   UNL d   1     -44.260  12.120  22.536  0.00  0.00    -0.203 F 
ATOM     23  C   UNL d   1     -43.642  10.956  22.947  0.00  0.00     0.031 A 
ATOM     24  C   UNL d   1     -43.690  10.227  23.346  0.00  0.00     0.002 A 
ATOM     25  C   UNL d   1     -44.400   9.999  23.698  0.00  0.00     0.002 A 
ATOM     26  C   UNL d   1     -45.058  10.487  23.656  0.00  0.00     0.020 A 
ENDBRANCH   2  20
TORSDOF 4
ENDMDL
MODEL 3
REMARK VINA RESULT:      -5.9      1.102      1.684
REMARK  4 active torsions:
REMARK  status: ('A' for Active; 'I' for Inactive)
REMARK    1  A    between atoms: N_2  and  S_1 
REMARK    2  A    between atoms: C_4  and  S_1 
REMARK    3  A    between atoms: C_5  and  N_3 
REMARK    4  A    between atoms: C_12  and  C_13 
ROOT
ATOM      1  N   UNL d   1     -47.338  13.923  22.657  0.00  0.00    -0.226 N 
ATOM      2  N   UNL d   1     -48.824  14.592  22.912  0.00  0.00    -0.299 N 
ATOM      3  C   UNL d   1     -47.578  14.574  22.215  0.00  0.00     0.111 A 
ATOM      4  C   UNL d   1     -47.842  13.600  23.233  0.00  0.00     0.111 A 
ATOM      5  C   UNL d   1     -48.321  14.909  22.343  0.00  0.00     0.100 A 
ATOM      6  C   UNL d   1     -48.585  13.935  23.360  0.00  0.00     0.100 A 
ENDROOT
BRANCH   1   7
ATOM      7  S   UNL d   1     -46.591  13.587  22.529  0.00  0.00     0.271 S 
ATOM      8  O   UNL d   1     -46.946  12.937  22.166  0.00  0.00    -0.200 OA
ATOM      9  O   UNL d   1     -46.236  14.237  22.892  0.00  0.00    -0.200 OA
BRANCH   7  10
ATOM     10  C   UNL d   1     -45.851  13.254  22.402  0.00  0.00     0.104 A 
ATOM     11  C   UNL d   1     -45.261  13.689  22.029  0.00  0.00     0.013 A 
ATOM     12  C   UNL d   1     -44.518  13.354  21.902  0.00  0.00    -0.004 A 
ATOM     13  C   UNL d   1     -44.365  12.584  22.147  0.00  0.00    -0.023 A 
ATOM     14  C   UNL d   1     -44.954  12.151  22.518  0.00  0.00    -0.004 A 
ATOM     15  C   UNL d   1     -45.697  12.485  22.645  0.00  0.00     0.013 A 
BRANCH  13  16
ATOM     16  C   UNL d   1     -43.618  12.248  22.018  0.00  0.00     0.019 C 
ATOM     17  C   UNL d   1     -43.789  11.658  22.569  0.00  0.00     0.004 C 
ATOM     18  C   UNL d   1     -43.447  12.838  21.468  0.00  0.00     0.004 C 
ATOM     19  C   UNL d   1     -42.879  11.915  21.892  0.00  0.00     0.004 C 
ENDBRANCH  13  16
ENDBRANCH   7  10
ENDBRANCH   1   7
BRANCH   2  20
ATOM     20  C   UNL d   1     -49.575  14.930  23.041  0.00  0.00     0.092 A 
ATOM     21  C   UNL d   1     -50.240  14.635  22.636  0.00  0.00     0.156 A 
ATOM     22  F   UNL d   1     -50.159  14.048  22.143  0.00  0.00    -0.203 F 
ATOM     23  C   UNL d   1     -50.980  14.968  22.763  0.00  0.00     0.031 A 
ATOM     24  C   UNL d   1     -51.064  15.602  23.297  0.00  0.00     0.002 A 
ATOM     25  C   UNL d   1     -50.404  15.892  23.696  0.00  0.00     0.002 A 
ATOM     26  C   UNL d   1     -49.664  15.559  23.569  0.00  0.00     0.020 A 
ENDBRANCH   2  20
TORSDOF 4
ENDMDL
MODEL 4
REMARK VINA RESULT:      -5.1      9.075     10.706
REMARK  4 active torsions:
REMARK  status: ('A' for Active; 'I' for Inactive)
REMARK    1  A    between atoms: N_2  and  S_1 
REMARK    2  A    between atoms: C_4  and  S_1 
REMARK    3  A    between atoms: C_5  and  N_3 
REMARK    4  A    between atoms: C_12  and  C_13 
ROOT
ATOM      1  N   UNL d   1     -38.577  14.319  18.943  0.00  0.00    -0.226 N 
ATOM      2  N   UNL d   1     -38.790  14.404  20.577  0.00  0.00    -0.299 N 
ATOM      3  C   UNL d   1     -39.312  14.149  19.272  0.00  0.00     0.111 A 
ATOM      4  C   UNL d   1     -37.940  14.534  19.430  0.00  0.00     0.111 A 
ATOM      5  C   UNL d   1     -39.418  14.191  20.089  0.00  0.00     0.100 A 
ATOM      6  C   UNL d   1     -38.047  14.576  20.247  0.00  0.00     0.100 A 
ENDROOT
BRANCH   1   7
ATOM      7  S   UNL d   1     -38.471  14.276  18.122  0.00  0.00     0.271 S 
ATOM      8  O   UNL d   1     -38.970  13.620  18.091  0.00  0.00    -0.200 OA
ATOM      9  O   UNL d   1     -37.971  14.932  18.152  0.00  0.00    -0.200 OA
BRANCH   7  10
ATOM     10  C   UNL d   1     -38.365  14.234  17.309  0.00  0.00     0.104 A 
ATOM     11  C   UNL d   1     -38.180  13.515  16.953  0.00  0.00     0.013 A 
ATOM     12  C   UNL d   1     -38.074  13.472  16.136  0.00  0.00    -0.004 A 
ATOM     13  C   UNL d   1     -38.153  14.148  15.675  0.00  0.00    -0.023 A 
ATOM     14  C   UNL d   1     -38.337  14.864  16.029  0.00  0.00    -0.004 A 
ATOM     15  C   UNL d   1     -38.443  14.907  16.846  0.00  0.00     0.013 A 
BRANCH  13  16
ATOM     16  C   UNL d   1     -38.046  14.106  14.854  0.00  0.00     0.019 C 
ATOM     17  C   UNL d   1     -38.034  13.282  14.898  0.00  0.00     0.004 C 
ATOM     18  C   UNL d   1     -38.058  14.929  14.809  0.00  0.00     0.004 C 
ATOM     19  C   UNL d   1     -37.940  14.063  14.041  0.00  0.00     0.004 C 
ENDBRANCH  13  16
ENDBRANCH   7  10
ENDBRANCH   1   7
BRANCH   2  20
ATOM     20  C   UNL d   1     -38.897  14.447  21.402  0.00  0.00     0.092 A 
ATOM     21  C   UNL d   1     -38.835  13.759  21.867  0.00  0.00     0.156 A 
ATOM     22  F   UNL d   1     -38.678  13.082  21.531  0.00  0.00    -0.203 F 
ATOM     23  C   UNL d   1     -38.941  13.801  22.680  0.00  0.00     0.031 A 
ATOM     24  C   UNL d   1     -39.110  14.532  23.040  0.00  0.00     0.002 A 
ATOM     25  C   UNL d   1     -39.170  15.212  22.577  0.00  0.00     0.002 A 
ATOM     26  C   UNL d   1     -39.064  15.169  21.763  0.00  0.00     0.020 A 
ENDBRANCH   2  20
TORSDOF 4
ENDMDL
