MODEL 1
REMARK VINA RESULT:      -4.2      0.000      0.000
REMARK  4 active torsions:
REMARK  status: ('A' for Active; 'I' for Inactive)
REMARK    1  A    between atoms: N_8  and  C_7 
REMARK    2  A    between atoms: C_9  and  N_8 
REMARK    3  A    between atoms: O_15  and  C_10 
REMARK    4  A    between atoms: C_16  and  O_15 
ROOT
ATOM      1  C   UNL d   1      57.182  -0.061  31.091  0.00  0.00     0.082 A 
ATOM      2  C   UNL d   1      56.454  -0.058  32.566  0.00  0.00     0.100 A 
ATOM      3  C   UNL d   1      56.994   0.653  31.454  0.00  0.00     0.021 A 
ATOM      4  C   UNL d   1      57.009  -0.774  31.460  0.00  0.00     0.021 A 
ATOM      5  C   UNL d   1      56.628   0.656  32.195  0.00  0.00     0.026 A 
ATOM      6  C   UNL d   1      56.642  -0.774  32.204  0.00  0.00     0.026 A 
ENDROOT
BRANCH   1   7
ATOM      7  N   UNL d   1      57.548  -0.061  30.348  0.00  0.00    -0.245 NA
BRANCH   7   8
ATOM      8  C   UNL d   1      58.351   0.101  30.195  0.00  0.00     0.093 A 
ATOM      9  C   UNL d   1      59.051   0.398  30.526  0.00  0.00     0.118 A 
ATOM     10  S   UNL d   1      59.630   0.361  29.955  0.00  0.00     0.213 S 
ATOM     11  C   UNL d   1      59.303   0.044  29.266  0.00  0.00     0.100 A 
ATOM     12  O   UNL d   1      60.224   0.323  29.368  0.00  0.00    -0.217 OA
ATOM     13  O   UNL d   1      60.009   0.682  30.614  0.00  0.00    -0.217 OA
ATOM     14  C   UNL d   1      58.510  -0.116  29.416  0.00  0.00     0.032 A 
ENDBRANCH   7   8
ENDBRANCH   1   7
BRANCH   2  15
ATOM     15  O   UNL d   1      56.088  -0.058  33.310  0.00  0.00    -0.305 OA
BRANCH  15  16
ATOM     16  C   UNL d   1      55.335   0.266  33.394  0.00  0.00     0.123 C 
ATOM     17  C   UNL d   1      54.987   0.308  34.147  0.00  0.00     0.029 C 
ENDBRANCH  15  16
ENDBRANCH   2  15
TORSDOF 4
ENDMDL
MODEL 2
REMARK VINA RESULT:      -4.0      1.905      4.462
REMARK  4 active torsions:
REMARK  status: ('A' for Active; 'I' for Inactive)
REMARK    1  A    between atoms: N_8  and  C_7 
REMARK    2  A    between atoms: C_9  and  N_8 
REMARK    3  A    between atoms: O_15  and  C_10 
REMARK    4  A    between atoms: C_16  and  O_15 
ROOT
ATOM      1  C   UNL d   1      56.393  -0.068  32.032  0.00  0.00     0.082 A 
ATOM      2  C   UNL d   1      57.683  -0.114  31.013  0.00  0.00     0.100 A 
ATOM      3  C   UNL d   1      56.737  -0.790  31.839  0.00  0.00     0.021 A 
ATOM      4  C   UNL d   1      56.689   0.632  31.719  0.00  0.00     0.021 A 
ATOM      5  C   UNL d   1      57.385  -0.815  31.327  0.00  0.00     0.026 A 
ATOM      6  C   UNL d   1      57.338   0.610  31.206  0.00  0.00     0.026 A 
ENDROOT
BRANCH   1   7
ATOM      7  N   UNL d   1      55.743  -0.046  32.546  0.00  0.00    -0.245 NA
BRANCH   7   8
ATOM      8  C   UNL d   1      55.756   0.179  33.348  0.00  0.00     0.093 A 
ATOM      9  C   UNL d   1      56.252   0.399  33.975  0.00  0.00     0.118 A 
ATOM     10  S   UNL d   1      55.782   0.538  34.625  0.00  0.00     0.213 S 
ATOM     11  C   UNL d   1      54.995   0.407  34.415  0.00  0.00     0.100 A 
ATOM     12  O   UNL d   1      55.299   0.679  35.292  0.00  0.00    -0.217 OA
ATOM     13  O   UNL d   1      56.550   0.682  34.891  0.00  0.00    -0.217 OA
ATOM     14  C   UNL d   1      54.980   0.185  33.623  0.00  0.00     0.032 A 
ENDBRANCH   7   8
ENDBRANCH   1   7
BRANCH   2  15
ATOM     15  O   UNL d   1      58.333  -0.136  30.499  0.00  0.00    -0.305 OA
BRANCH  15  16
ATOM     16  C   UNL d   1      58.288  -0.573  29.802  0.00  0.00     0.123 C 
ATOM     17  C   UNL d   1      58.947  -0.612  29.298  0.00  0.00     0.029 C 
ENDBRANCH  15  16
ENDBRANCH   2  15
TORSDOF 4
ENDMDL
MODEL 3
REMARK VINA RESULT:      -3.3      1.112      1.267
REMARK  4 active torsions:
REMARK  status: ('A' for Active; 'I' for Inactive)
REMARK    1  A    between atoms: N_8  and  C_7 
REMARK    2  A    between atoms: C_9  and  N_8 
REMARK    3  A    between atoms: O_15  and  C_10 
REMARK    4  A    between atoms: C_16  and  O_15 
ROOT
ATOM      1  C   UNL d   1      57.644   0.579  31.300  0.00  0.00     0.082 A 
ATOM      2  C   UNL d   1      56.889   0.377  32.747  0.00  0.00     0.100 A 
ATOM      3  C   UNL d   1      56.846   0.377  31.321  0.00  0.00     0.021 A 
ATOM      4  C   UNL d   1      58.067   0.681  31.996  0.00  0.00     0.021 A 
ATOM      5  C   UNL d   1      56.466   0.275  32.048  0.00  0.00     0.026 A 
ATOM      6  C   UNL d   1      57.689   0.580  32.726  0.00  0.00     0.026 A 
ENDROOT
BRANCH   1   7
ATOM      7  N   UNL d   1      58.022   0.681  30.570  0.00  0.00    -0.245 NA
BRANCH   7   8
ATOM      8  C   UNL d   1      58.302   0.075  30.071  0.00  0.00     0.093 A 
ATOM      9  C   UNL d   1      58.361  -0.747  29.982  0.00  0.00     0.118 A 
ATOM     10  S   UNL d   1      58.747  -0.894  29.280  0.00  0.00     0.213 S 
ATOM     11  C   UNL d   1      58.932  -0.172  28.925  0.00  0.00     0.100 A 
ATOM     12  O   UNL d   1      59.142  -1.043  28.559  0.00  0.00    -0.217 OA
ATOM     13  O   UNL d   1      58.587  -1.642  29.588  0.00  0.00    -0.217 OA
ATOM     14  C   UNL d   1      58.656   0.427  29.416  0.00  0.00     0.032 A 
ENDBRANCH   7   8
ENDBRANCH   1   7
BRANCH   2  15
ATOM     15  O   UNL d   1      56.511   0.275  33.477  0.00  0.00    -0.305 OA
BRANCH  15  16
ATOM     16  C   UNL d   1      55.703   0.422  33.542  0.00  0.00     0.123 C 
ATOM     17  C   UNL d   1      55.340   0.406  34.289  0.00  0.00     0.029 C 
ENDBRANCH  15  16
ENDBRANCH   2  15
TORSDOF 4
ENDMDL
MODEL 4
REMARK VINA RESULT:      -2.2      9.577     10.262
REMARK  4 active torsions:
REMARK  status: ('A' for Active; 'I' for Inactive)
REMARK    1  A    between atoms: N_8  and  C_7 
REMARK    2  A    between atoms: C_9  and  N_8 
REMARK    3  A    between atoms: O_15  and  C_10 
REMARK    4  A    between atoms: C_16  and  O_15 
ROOT
ATOM      1  C   UNL d   1      59.252  -9.737  33.571  0.00  0.00     0.082 A 
ATOM      2  C   UNL d   1      58.672  -9.772  32.033  0.00  0.00     0.100 A 
ATOM      3  C   UNL d   1      58.442  -9.691  33.438  0.00  0.00     0.021 A 
ATOM      4  C   UNL d   1      59.776  -9.800  32.942  0.00  0.00     0.021 A 
ATOM      5  C   UNL d   1      58.149  -9.709  32.666  0.00  0.00     0.026 A 
ATOM      6  C   UNL d   1      59.485  -9.818  32.166  0.00  0.00     0.026 A 
ENDROOT
BRANCH   1   7
ATOM      7  N   UNL d   1      59.543  -9.719  34.347  0.00  0.00    -0.245 NA
BRANCH   7   8
ATOM      8  C   UNL d   1      59.645  -9.040  34.820  0.00  0.00     0.093 A 
ATOM      9  C   UNL d   1      59.296  -8.324  35.050  0.00  0.00     0.118 A 
ATOM     10  S   UNL d   1      59.803  -7.958  35.571  0.00  0.00     0.213 S 
ATOM     11  C   UNL d   1      60.469  -8.435  35.672  0.00  0.00     0.100 A 
ATOM     12  O   UNL d   1      60.323  -7.582  36.106  0.00  0.00    -0.217 OA
ATOM     13  O   UNL d   1      59.162  -7.442  35.508  0.00  0.00    -0.217 OA
ATOM     14  C   UNL d   1      60.369  -9.105  35.206  0.00  0.00     0.032 A 
ENDBRANCH   7   8
ENDBRANCH   1   7
BRANCH   2  15
ATOM     15  O   UNL d   1      58.382  -9.790  31.257  0.00  0.00    -0.305 OA
BRANCH  15  16
ATOM     16  C   UNL d   1      57.580  -9.658  31.118  0.00  0.00     0.123 C 
ATOM     17  C   UNL d   1      57.266  -9.793  30.361  0.00  0.00     0.029 C 
ENDBRANCH  15  16
ENDBRANCH   2  15
TORSDOF 4
ENDMDL
