MODEL 1
REMARK VINA RESULT:      82.1      0.000      0.000
REMARK  12 active torsions:
REMARK  status: ('A' for Active; 'I' for Inactive)
REMARK    1  A    between atoms: C_8  and  C_1 
REMARK    2  A    between atoms: C_9  and  C_2 
REMARK    3  A    between atoms: C_7  and  C_3 
REMARK    4  A    between atoms: S_10  and  C_4 
REMARK    5  A    between atoms: O_23  and  C_8 
REMARK    6  A    between atoms: C_20  and  S_10 
REMARK    7  A    between atoms: O_25  and  C_13 
REMARK    8  A    between atoms: C_14  and  C_20 
REMARK    9  A    between atoms: O_26  and  C_14 
REMARK   10  A    between atoms: C_21  and  C_28 
REMARK   11  A    between atoms: C_28  and  O_23 
REMARK   12  A    between atoms: C_29  and  O_26 
ROOT
ATOM      1  C   UNL d   1     -50.241  27.194  35.986  0.00  0.00     0.081 A 
ATOM      2  C   UNL d   1     -49.395  27.516  34.875  0.00  0.00     0.045 A 
ATOM      3  C   UNL d   1     -50.017  27.091  35.190  0.00  0.00     0.010 A 
ATOM      4  C   UNL d   1     -48.991  28.044  35.345  0.00  0.00     0.112 A 
ATOM      5  C   UNL d   1     -49.845  27.710  36.445  0.00  0.00     0.087 A 
ATOM      6  N   UNL d   1     -49.207  28.150  36.131  0.00  0.00    -0.239 NA
ATOM      7  C   UNL d   1     -50.102  27.787  37.248  0.00  0.00     0.021 C 
ENDROOT
BRANCH   3   8
ATOM      8  C   UNL d   1     -50.427  26.555  34.714  0.00  0.00     0.003 A 
ATOM      9  C   UNL d   1     -51.074  26.812  34.252  0.00  0.00     0.028 A 
ATOM     10  C   UNL d   1     -51.484  26.277  33.776  0.00  0.00     0.133 A 
ATOM     11  C   UNL d   1     -51.243  25.488  33.766  0.00  0.00     0.218 A 
ATOM     12  C   UNL d   1     -50.609  25.240  34.220  0.00  0.00     0.044 A 
ATOM     13  O   UNL d   1     -51.628  24.938  33.306  0.00  0.00    -0.284 OA
ATOM     14  C   UNL d   1     -50.199  25.776  34.696  0.00  0.00     0.003 A 
BRANCH  10  15
ATOM     15  O   UNL d   1     -52.138  26.526  33.306  0.00  0.00    -0.325 OA
ATOM     16  C   UNL d   1     -52.452  27.284  33.398  0.00  0.00     0.181 C 
ENDBRANCH  10  15
ENDBRANCH   3   8
BRANCH   2  17
ATOM     17  C   UNL d   1     -49.174  27.409  34.075  0.00  0.00     0.124 C 
ATOM     18  N   UNL d   1     -48.530  26.909  33.888  0.00  0.00    -0.146 N 
ENDBRANCH   2  17
BRANCH   1  19
ATOM     19  C   UNL d   1     -50.882  26.767  36.341  0.00  0.00     0.302 C 
ATOM     20  O   UNL d   1     -51.577  26.640  35.925  0.00  0.00    -0.259 OA
BRANCH  19  21
ATOM     21  O   UNL d   1     -50.794  26.488  37.099  0.00  0.00    -0.271 OA
BRANCH  21  22
ATOM     22  C   UNL d   1     -51.434  26.470  37.622  0.00  0.00     0.126 C 
BRANCH  22  23
ATOM     23  C   UNL d   1     -51.521  25.830  38.123  0.00  0.00     0.027 C 
ATOM     24  C   UNL d   1     -52.164  25.750  38.594  0.00  0.00     0.002 C 
ENDBRANCH  22  23
ENDBRANCH  21  22
ENDBRANCH  19  21
ENDBRANCH   1  19
BRANCH   4  25
ATOM     25  S   UNL d   1     -48.361  28.491  35.072  0.00  0.00    -0.062 SA
BRANCH  25  26
ATOM     26  C   UNL d   1     -47.991  29.004  35.579  0.00  0.00     0.105 C 
BRANCH  26  27
ATOM     27  C   UNL d   1     -47.534  29.618  35.266  0.00  0.00     0.307 C 
ATOM     28  O   UNL d   1     -46.834  29.450  34.873  0.00  0.00    -0.258 OA
BRANCH  27  29
ATOM     29  O   UNL d   1     -47.789  30.389  35.353  0.00  0.00    -0.271 OA
BRANCH  29  30
ATOM     30  C   UNL d   1     -47.232  30.986  35.373  0.00  0.00     0.126 C 
ATOM     31  C   UNL d   1     -47.322  31.642  34.900  0.00  0.00     0.029 C 
ENDBRANCH  29  30
ENDBRANCH  27  29
ENDBRANCH  26  27
ENDBRANCH  25  26
ENDBRANCH   4  25
TORSDOF 12
ENDMDL
MODEL 2
REMARK VINA RESULT:      84.0      2.104      5.716
REMARK  12 active torsions:
REMARK  status: ('A' for Active; 'I' for Inactive)
REMARK    1  A    between atoms: C_8  and  C_1 
REMARK    2  A    between atoms: C_9  and  C_2 
REMARK    3  A    between atoms: C_7  and  C_3 
REMARK    4  A    between atoms: S_10  and  C_4 
REMARK    5  A    between atoms: O_23  and  C_8 
REMARK    6  A    between atoms: C_20  and  S_10 
REMARK    7  A    between atoms: O_25  and  C_13 
REMARK    8  A    between atoms: C_14  and  C_20 
REMARK    9  A    between atoms: O_26  and  C_14 
REMARK   10  A    between atoms: C_21  and  C_28 
REMARK   11  A    between atoms: C_28  and  O_23 
REMARK   12  A    between atoms: C_29  and  O_26 
ROOT
ATOM      1  C   UNL d   1     -48.314  30.349  34.610  0.00  0.00     0.081 A 
ATOM      2  C   UNL d   1     -48.396  28.981  35.027  0.00  0.00     0.045 A 
ATOM      3  C   UNL d   1     -48.078  29.728  35.113  0.00  0.00     0.010 A 
ATOM      4  C   UNL d   1     -48.948  28.843  34.445  0.00  0.00     0.112 A 
ATOM      5  C   UNL d   1     -48.854  30.215  34.041  0.00  0.00     0.087 A 
ATOM      6  N   UNL d   1     -49.185  29.452  33.946  0.00  0.00    -0.239 NA
ATOM      7  C   UNL d   1     -49.068  30.870  33.550  0.00  0.00     0.021 C 
ENDROOT
BRANCH   3   8
ATOM      8  C   UNL d   1     -47.518  29.868  35.704  0.00  0.00     0.003 A 
ATOM      9  C   UNL d   1     -47.688  29.675  36.499  0.00  0.00     0.028 A 
ATOM     10  C   UNL d   1     -47.128  29.814  37.089  0.00  0.00     0.133 A 
ATOM     11  C   UNL d   1     -46.403  30.145  36.879  0.00  0.00     0.218 A 
ATOM     12  C   UNL d   1     -46.240  30.333  36.099  0.00  0.00     0.044 A 
ATOM     13  O   UNL d   1     -45.832  30.294  37.440  0.00  0.00    -0.284 OA
ATOM     14  C   UNL d   1     -46.800  30.193  35.509  0.00  0.00     0.003 A 
BRANCH  10  15
ATOM     15  O   UNL d   1     -47.290  29.623  37.894  0.00  0.00    -0.325 OA
ATOM     16  C   UNL d   1     -47.789  30.103  38.343  0.00  0.00     0.181 C 
ENDBRANCH  10  15
ENDBRANCH   3   8
BRANCH   2  17
ATOM     17  C   UNL d   1     -48.155  28.360  35.535  0.00  0.00     0.124 C 
ATOM     18  N   UNL d   1     -48.733  27.915  35.945  0.00  0.00    -0.146 N 
ENDBRANCH   2  17
BRANCH   1  19
ATOM     19  C   UNL d   1     -48.002  31.136  34.675  0.00  0.00     0.302 C 
ATOM     20  O   UNL d   1     -48.100  31.566  35.366  0.00  0.00    -0.259 OA
BRANCH  19  21
ATOM     21  O   UNL d   1     -47.606  31.452  34.040  0.00  0.00    -0.271 OA
BRANCH  21  22
ATOM     22  C   UNL d   1     -47.286  32.213  34.077  0.00  0.00     0.126 C 
BRANCH  22  23
ATOM     23  C   UNL d   1     -47.511  32.766  33.518  0.00  0.00     0.027 C 
ATOM     24  C   UNL d   1     -47.839  33.466  33.728  0.00  0.00     0.002 C 
ENDBRANCH  22  23
ENDBRANCH  21  22
ENDBRANCH  19  21
ENDBRANCH   1  19
BRANCH   4  25
ATOM     25  S   UNL d   1     -49.292  28.111  34.323  0.00  0.00    -0.062 SA
BRANCH  25  26
ATOM     26  C   UNL d   1     -49.781  28.005  33.684  0.00  0.00     0.105 C 
BRANCH  26  27
ATOM     27  C   UNL d   1     -50.060  27.245  33.514  0.00  0.00     0.307 C 
ATOM     28  O   UNL d   1     -49.533  26.646  33.325  0.00  0.00    -0.258 OA
BRANCH  27  29
ATOM     29  O   UNL d   1     -50.864  27.102  33.536  0.00  0.00    -0.271 OA
BRANCH  29  30
ATOM     30  C   UNL d   1     -51.136  26.360  33.330  0.00  0.00     0.126 C 
ATOM     31  C   UNL d   1     -51.359  25.833  33.909  0.00  0.00     0.029 C 
ENDBRANCH  29  30
ENDBRANCH  27  29
ENDBRANCH  26  27
ENDBRANCH  25  26
ENDBRANCH   4  25
TORSDOF 12
ENDMDL
