MODEL 1
REMARK VINA RESULT:      70.2      0.000      0.000
REMARK  6 active torsions:
REMARK  status: ('A' for Active; 'I' for Inactive)
REMARK    1  A    between atoms: C_10  and  N_1 
REMARK    2  A    between atoms: S_14  and  C_6 
REMARK       I    between atoms: N_7  and  C_11 
REMARK    3  A    between atoms: C_22  and  N_9 
REMARK    4  A    between atoms: C_13  and  C_10 
REMARK    5  A    between atoms: C_11  and  C_16 
REMARK    6  A    between atoms: C_16  and  S_14 
ROOT
ATOM      1  N   UNL d   1      14.005  17.877  -6.089  0.00  0.00    -0.192 N 
ATOM      2  N   UNL d   1      13.306  17.502  -6.285  0.00  0.00    -0.058 NA
ATOM      3  C   UNL d   1      14.403  17.399  -5.553  0.00  0.00     0.189 A 
ATOM      4  C   UNL d   1      13.939  16.729  -5.426  0.00  0.00     0.164 A 
ATOM      5  N   UNL d   1      13.262  16.805  -5.885  0.00  0.00    -0.125 NA
ATOM      6  C   UNL d   1      14.188  16.145  -4.916  0.00  0.00     0.135 A 
ATOM      7  N   UNL d   1      15.117  17.484  -5.171  0.00  0.00    -0.203 NA
ATOM      8  N   UNL d   1      14.912  16.226  -4.524  0.00  0.00    -0.216 NA
ATOM      9  C   UNL d   1      15.377  16.895  -4.652  0.00  0.00     0.201 A 
ENDROOT
BRANCH   6  10
ATOM     10  S   UNL d   1      13.723  15.475  -4.788  0.00  0.00    -0.061 SA
BRANCH  10  11
ATOM     11  C   UNL d   1      14.066  14.774  -4.558  0.00  0.00     0.098 C 
BRANCH  11  12
ATOM     12  C   UNL d   1      13.590  14.128  -4.366  0.00  0.00     0.272 C 
ATOM     13  N   UNL d   1      13.710  13.737  -3.646  0.00  0.00    -0.269 N 
ATOM     14  C   UNL d   1      14.301  13.992  -3.126  0.00  0.00     0.102 A 
ATOM     15  C   UNL d   1      13.242  13.090  -3.439  0.00  0.00     0.102 A 
ATOM     16  C   UNL d   1      14.421  13.601  -2.406  0.00  0.00     0.100 A 
ATOM     17  N   UNL d   1      13.949  12.954  -2.206  0.00  0.00    -0.301 N 
ATOM     18  C   UNL d   1      13.357  12.699  -2.726  0.00  0.00     0.100 A 
ATOM     19  O   UNL d   1      13.003  13.872  -4.878  0.00  0.00    -0.266 OA
BRANCH  17  20
ATOM     20  C   UNL d   1      14.068  12.562  -1.487  0.00  0.00     0.064 A 
ATOM     21  C   UNL d   1      14.834  12.424  -1.216  0.00  0.00     0.018 A 
ATOM     22  C   UNL d   1      14.944  12.033  -0.499  0.00  0.00     0.002 A 
ATOM     23  C   UNL d   1      14.310  11.786  -0.062  0.00  0.00     0.000 A 
ATOM     24  C   UNL d   1      13.543  11.924  -0.333  0.00  0.00     0.002 A 
ATOM     25  C   UNL d   1      13.425  12.317  -1.053  0.00  0.00     0.018 A 
ENDBRANCH  17  20
ENDBRANCH  11  12
ENDBRANCH  10  11
ENDBRANCH   6  10
BRANCH   1  26
ATOM     26  C   UNL d   1      14.263  18.617  -6.385  0.00  0.00     0.106 C 
BRANCH  26  27
ATOM     27  C   UNL d   1      13.923  19.324  -6.109  0.00  0.00     0.047 A 
ATOM     28  C   UNL d   1      14.386  19.875  -5.706  0.00  0.00     0.142 A 
ATOM     29  F   UNL d   1      15.185  19.738  -5.572  0.00  0.00    -0.204 F 
ATOM     30  C   UNL d   1      14.057  20.569  -5.434  0.00  0.00     0.030 A 
ATOM     31  C   UNL d   1      13.254  20.720  -5.562  0.00  0.00     0.002 A 
ATOM     32  C   UNL d   1      12.782  20.168  -5.967  0.00  0.00     0.000 A 
ATOM     33  C   UNL d   1      13.125  19.484  -6.231  0.00  0.00     0.004 A 
ENDBRANCH  26  27
ENDBRANCH   1  26
TORSDOF 6
ENDMDL
