MODEL 1
REMARK VINA RESULT:      61.7      0.000      0.000
REMARK  6 active torsions:
REMARK  status: ('A' for Active; 'I' for Inactive)
REMARK    1  A    between atoms: C_7  and  C_2 
REMARK    2  A    between atoms: C_16  and  N_3 
REMARK    3  A    between atoms: O_17  and  C_9 
REMARK    4  A    between atoms: O_19  and  C_10 
REMARK    5  A    between atoms: O_18  and  C_11 
REMARK    6  A    between atoms: C_25  and  C_16 
ROOT
ATOM      1  N   UNL d   1      14.741  15.238  -2.875  0.00  0.00    -0.206 NA
ATOM      2  C   UNL d   1      14.353  14.522  -2.717  0.00  0.00     0.151 A 
ATOM      3  N   UNL d   1      13.850  14.359  -3.356  0.00  0.00    -0.273 N 
ATOM      4  C   UNL d   1      13.933  14.974  -3.899  0.00  0.00     0.185 A 
ATOM      5  C   UNL d   1      14.481  15.516  -3.605  0.00  0.00     0.199 A 
ATOM      6  N   UNL d   1      13.575  15.116  -4.638  0.00  0.00    -0.224 NA
ATOM      7  N   UNL d   1      14.672  16.190  -4.037  0.00  0.00    -0.223 NA
ATOM      8  C   UNL d   1      13.770  15.793  -5.067  0.00  0.00     0.101 A 
ATOM      9  C   UNL d   1      14.320  16.330  -4.765  0.00  0.00     0.101 A 
ATOM     10  C   UNL d   1      13.409  15.927  -5.802  0.00  0.00     0.021 A 
ATOM     11  C   UNL d   1      14.510  16.999  -5.194  0.00  0.00     0.021 A 
ATOM     12  C   UNL d   1      14.156  17.140  -5.925  0.00  0.00     0.002 A 
ATOM     13  C   UNL d   1      13.606  16.603  -6.227  0.00  0.00     0.002 A 
ENDROOT
BRANCH   2  14
ATOM     14  C   UNL d   1      14.450  14.058  -2.047  0.00  0.00     0.039 A 
ATOM     15  C   UNL d   1      14.176  13.256  -2.053  0.00  0.00     0.029 A 
ATOM     16  C   UNL d   1      14.265  12.770  -1.383  0.00  0.00     0.118 A 
ATOM     17  C   UNL d   1      14.631  13.091  -0.704  0.00  0.00     0.138 A 
ATOM     18  C   UNL d   1      14.905  13.892  -0.698  0.00  0.00     0.118 A 
ATOM     19  C   UNL d   1      14.816  14.383  -1.372  0.00  0.00     0.029 A 
BRANCH  16  20
ATOM     20  O   UNL d   1      13.997  11.986  -1.389  0.00  0.00    -0.326 OA
ATOM     21  C   UNL d   1      12.984  11.779  -1.228  0.00  0.00     0.181 C 
ENDBRANCH  16  20
BRANCH  17  22
ATOM     22  O   UNL d   1      14.730  12.631  -0.034  0.00  0.00    -0.324 OA
ATOM     23  C   UNL d   1      15.397  11.779  -0.014  0.00  0.00     0.182 C 
ENDBRANCH  17  22
BRANCH  18  24
ATOM     24  O   UNL d   1      15.272  14.217  -0.022  0.00  0.00    -0.326 OA
ATOM     25  C   UNL d   1      15.898  15.130  -0.093  0.00  0.00     0.181 C 
ENDBRANCH  18  24
ENDBRANCH   2  14
BRANCH   3  26
ATOM     26  C   UNL d   1      13.361  13.706  -3.432  0.00  0.00     0.083 C 
BRANCH  26  27
ATOM     27  C   UNL d   1      13.305  13.314  -4.151  0.00  0.00     0.019 C 
ATOM     28  C   UNL d   1      12.882  12.610  -4.204  0.00  0.00     0.002 C 
ENDBRANCH  26  27
ENDBRANCH   3  26
TORSDOF 6
ENDMDL
MODEL 2
REMARK VINA RESULT:      62.1      0.906      2.421
REMARK  6 active torsions:
REMARK  status: ('A' for Active; 'I' for Inactive)
REMARK    1  A    between atoms: C_7  and  C_2 
REMARK    2  A    between atoms: C_16  and  N_3 
REMARK    3  A    between atoms: O_17  and  C_9 
REMARK    4  A    between atoms: O_19  and  C_10 
REMARK    5  A    between atoms: O_18  and  C_11 
REMARK    6  A    between atoms: C_25  and  C_16 
ROOT
ATOM      1  N   UNL d   1      14.250  14.506  -3.608  0.00  0.00    -0.206 NA
ATOM      2  C   UNL d   1      14.373  14.464  -2.789  0.00  0.00     0.151 A 
ATOM      3  N   UNL d   1      14.604  15.218  -2.528  0.00  0.00    -0.273 N 
ATOM      4  C   UNL d   1      14.622  15.712  -3.187  0.00  0.00     0.185 A 
ATOM      5  C   UNL d   1      14.404  15.277  -3.852  0.00  0.00     0.199 A 
ATOM      6  N   UNL d   1      14.810  16.519  -3.272  0.00  0.00    -0.224 NA
ATOM      7  N   UNL d   1      14.374  15.636  -4.592  0.00  0.00    -0.223 NA
ATOM      8  C   UNL d   1      14.779  16.875  -4.015  0.00  0.00     0.101 A 
ATOM      9  C   UNL d   1      14.560  16.430  -4.676  0.00  0.00     0.101 A 
ATOM     10  C   UNL d   1      14.969  17.678  -4.091  0.00  0.00     0.021 A 
ATOM     11  C   UNL d   1      14.530  16.786  -5.412  0.00  0.00     0.021 A 
ATOM     12  C   UNL d   1      14.717  17.584  -5.496  0.00  0.00     0.002 A 
ATOM     13  C   UNL d   1      14.936  18.029  -4.835  0.00  0.00     0.002 A 
ENDROOT
BRANCH   2  14
ATOM     14  C   UNL d   1      14.281  13.798  -2.319  0.00  0.00     0.039 A 
ATOM     15  C   UNL d   1      14.579  13.803  -1.526  0.00  0.00     0.029 A 
ATOM     16  C   UNL d   1      14.495  13.135  -1.036  0.00  0.00     0.118 A 
ATOM     17  C   UNL d   1      14.111  12.460  -1.342  0.00  0.00     0.138 A 
ATOM     18  C   UNL d   1      13.813  12.455  -2.136  0.00  0.00     0.118 A 
ATOM     19  C   UNL d   1      13.897  13.126  -2.631  0.00  0.00     0.029 A 
BRANCH  16  20
ATOM     20  O   UNL d   1      14.786  13.140  -0.259  0.00  0.00    -0.326 OA
ATOM     21  C   UNL d   1      15.803  12.968  -0.082  0.00  0.00     0.181 C 
ENDBRANCH  16  20
BRANCH  17  22
ATOM     22  O   UNL d   1      14.017  11.792  -0.878  0.00  0.00    -0.324 OA
ATOM     23  C   UNL d   1      13.364  11.780  -0.015  0.00  0.00     0.182 C 
ENDBRANCH  17  22
BRANCH  18  24
ATOM     24  O   UNL d   1      13.429  11.783  -2.448  0.00  0.00    -0.326 OA
ATOM     25  C   UNL d   1      13.011  11.788  -3.475  0.00  0.00     0.181 C 
ENDBRANCH  18  24
ENDBRANCH   2  14
BRANCH   3  26
ATOM     26  C   UNL d   1      14.782  15.428  -1.756  0.00  0.00     0.083 C 
BRANCH  26  27
ATOM     27  C   UNL d   1      15.019  16.195  -1.582  0.00  0.00     0.019 C 
ATOM     28  C   UNL d   1      15.262  16.387  -0.820  0.00  0.00     0.002 C 
ENDBRANCH  26  27
ENDBRANCH   3  26
TORSDOF 6
ENDMDL
