MODEL 1
REMARK VINA RESULT:      34.6      0.000      0.000
REMARK  3 active torsions:
REMARK  status: ('A' for Active; 'I' for Inactive)
REMARK    1  A    between atoms: C_4  and  N_1 
REMARK    2  A    between atoms: C_6  and  C_4 
REMARK       I    between atoms: N_8  and  C_6 
REMARK    3  A    between atoms: C_10  and  N_8 
ROOT
ATOM      1  C   UNL d   1     -51.678  25.679  33.802  0.00  0.00     0.165 C 
ENDROOT
BRANCH   1   2
ATOM      2  N   UNL d   1     -51.830  24.879  33.639  0.00  0.00    -0.204 N 
ATOM      3  N   UNL d   1     -51.264  24.315  33.409  0.00  0.00    -0.059 NA
ATOM      4  N   UNL d   1     -51.652  23.593  33.306  0.00  0.00    -0.129 NA
ATOM      5  C   UNL d   1     -52.455  23.704  33.470  0.00  0.00     0.122 A 
ATOM      6  C   UNL d   1     -52.565  24.503  33.678  0.00  0.00     0.104 A 
ATOM      7  C   UNL d   1     -53.096  23.189  33.460  0.00  0.00     0.022 A 
ATOM      8  C   UNL d   1     -53.315  24.779  33.872  0.00  0.00     0.021 A 
ATOM      9  C   UNL d   1     -53.958  24.264  33.862  0.00  0.00     0.002 A 
ATOM     10  C   UNL d   1     -53.849  23.473  33.656  0.00  0.00     0.002 A 
ENDBRANCH   1   2
BRANCH   1  11
ATOM     11  C   UNL d   1     -51.965  26.369  33.454  0.00  0.00     0.299 C 
ATOM     12  N   UNL d   1     -51.298  26.825  33.305  0.00  0.00    -0.207 NA
ATOM     13  O   UNL d   1     -52.776  26.463  33.333  0.00  0.00    -0.263 OA
BRANCH  12  14
ATOM     14  C   UNL d   1     -50.489  26.727  33.428  0.00  0.00     0.085 A 
ATOM     15  C   UNL d   1     -50.142  25.985  33.313  0.00  0.00     0.019 A 
ATOM     16  C   UNL d   1     -49.332  25.888  33.436  0.00  0.00     0.002 A 
ATOM     17  C   UNL d   1     -48.984  25.151  33.323  0.00  0.00     0.000 C 
ATOM     18  C   UNL d   1     -48.870  26.532  33.673  0.00  0.00     0.000 A 
ATOM     19  C   UNL d   1     -49.221  27.277  33.787  0.00  0.00     0.002 A 
ATOM     20  C   UNL d   1     -50.027  27.374  33.665  0.00  0.00     0.019 A 
ENDBRANCH  12  14
ENDBRANCH   1  11
TORSDOF 3
ENDMDL
