MODEL 1
REMARK VINA RESULT:      45.4      0.000      0.000
REMARK  5 active torsions:
REMARK  status: ('A' for Active; 'I' for Inactive)
REMARK    1  A    between atoms: C_14  and  N_1 
REMARK    2  A    between atoms: C_13  and  C_3 
REMARK    3  A    between atoms: C_4  and  S_11 
REMARK    4  A    between atoms: S_11  and  C_13 
REMARK    5  A    between atoms: C_15  and  C_14 
ROOT
ATOM      1  S   UNL d   1      59.274  49.707  50.986  0.00  0.00    -0.058 SA
ENDROOT
BRANCH   1   2
ATOM      2  C   UNL d   1      58.567  49.692  50.578  0.00  0.00     0.141 A 
ATOM      3  N   UNL d   1      57.816  49.661  50.925  0.00  0.00    -0.232 NA
ATOM      4  C   UNL d   1      57.265  49.656  50.318  0.00  0.00     0.088 A 
ATOM      5  C   UNL d   1      56.444  49.629  50.306  0.00  0.00     0.020 A 
ATOM      6  C   UNL d   1      57.678  49.684  49.602  0.00  0.00     0.049 A 
ATOM      7  C   UNL d   1      56.035  49.630  49.609  0.00  0.00     0.002 A 
ATOM      8  C   UNL d   1      56.448  49.658  48.893  0.00  0.00     0.001 A 
ATOM      9  C   UNL d   1      57.266  49.685  48.879  0.00  0.00     0.008 A 
ATOM     10  S   UNL d   1      58.477  49.706  49.776  0.00  0.00    -0.060 SA
ENDBRANCH   1   2
BRANCH   1  11
ATOM     11  C   UNL d   1      59.767  49.042  50.967  0.00  0.00     0.077 C 
BRANCH  11  12
ATOM     12  C   UNL d   1      60.481  49.059  51.372  0.00  0.00     0.178 A 
ATOM     13  N   UNL d   1      60.922  48.387  51.423  0.00  0.00    -0.264 N 
ATOM     14  C   UNL d   1      61.599  48.575  51.857  0.00  0.00     0.227 A 
ATOM     15  N   UNL d   1      61.546  49.346  52.054  0.00  0.00    -0.117 NA
ATOM     16  S   UNL d   1      62.259  48.054  52.074  0.00  0.00    -0.036 SA
ATOM     17  N   UNL d   1      60.876  49.649  51.768  0.00  0.00    -0.127 NA
BRANCH  13  18
ATOM     18  C   UNL d   1      60.758  47.609  51.102  0.00  0.00     0.084 C 
BRANCH  18  19
ATOM     19  C   UNL d   1      61.268  47.297  50.523  0.00  0.00     0.019 C 
ATOM     20  C   UNL d   1      61.035  46.632  50.078  0.00  0.00     0.002 C 
ENDBRANCH  18  19
ENDBRANCH  13  18
ENDBRANCH  11  12
ENDBRANCH   1  11
TORSDOF 5
ENDMDL
MODEL 2
REMARK VINA RESULT:      46.5      1.265      1.789
REMARK  5 active torsions:
REMARK  status: ('A' for Active; 'I' for Inactive)
REMARK    1  A    between atoms: C_14  and  N_1 
REMARK    2  A    between atoms: C_13  and  C_3 
REMARK    3  A    between atoms: C_4  and  S_11 
REMARK    4  A    between atoms: S_11  and  C_13 
REMARK    5  A    between atoms: C_15  and  C_14 
ROOT
ATOM      1  S   UNL d   1      59.390  49.700  51.106  0.00  0.00    -0.058 SA
ENDROOT
BRANCH   1   2
ATOM      2  C   UNL d   1      58.678  49.674  50.707  0.00  0.00     0.141 A 
ATOM      3  N   UNL d   1      58.592  49.681  49.884  0.00  0.00    -0.232 NA
ATOM      4  C   UNL d   1      57.790  49.647  49.720  0.00  0.00     0.088 A 
ATOM      5  C   UNL d   1      57.359  49.638  49.020  0.00  0.00     0.020 A 
ATOM      6  C   UNL d   1      57.386  49.619  50.442  0.00  0.00     0.049 A 
ATOM      7  C   UNL d   1      56.552  49.601  49.026  0.00  0.00     0.002 A 
ATOM      8  C   UNL d   1      56.149  49.573  49.747  0.00  0.00     0.001 A 
ATOM      9  C   UNL d   1      56.555  49.582  50.457  0.00  0.00     0.008 A 
ATOM     10  S   UNL d   1      57.945  49.636  51.040  0.00  0.00    -0.060 SA
ENDBRANCH   1   2
BRANCH   1  11
ATOM     11  C   UNL d   1      60.097  49.697  50.676  0.00  0.00     0.077 C 
BRANCH  11  12
ATOM     12  C   UNL d   1      60.812  49.653  51.077  0.00  0.00     0.178 A 
ATOM     13  N   UNL d   1      60.812  49.625  51.882  0.00  0.00    -0.264 N 
ATOM     14  C   UNL d   1      61.601  49.583  52.121  0.00  0.00     0.227 A 
ATOM     15  N   UNL d   1      62.050  49.587  51.461  0.00  0.00    -0.117 NA
ATOM     16  S   UNL d   1      61.915  49.542  52.930  0.00  0.00    -0.036 SA
ATOM     17  N   UNL d   1      61.585  49.629  50.825  0.00  0.00    -0.127 NA
BRANCH  13  18
ATOM     18  C   UNL d   1      60.147  49.634  52.421  0.00  0.00     0.084 C 
BRANCH  18  19
ATOM     19  C   UNL d   1      60.292  49.617  53.240  0.00  0.00     0.019 C 
ATOM     20  C   UNL d   1      59.691  49.373  53.765  0.00  0.00     0.002 C 
ENDBRANCH  18  19
ENDBRANCH  13  18
ENDBRANCH  11  12
ENDBRANCH   1  11
TORSDOF 5
ENDMDL
