MODEL 1
REMARK VINA RESULT:      -4.1      0.000      0.000
REMARK  4 active torsions:
REMARK  status: ('A' for Active; 'I' for Inactive)
REMARK    1  A    between atoms: C_7  and  C_1 
REMARK    2  A    between atoms: C_8  and  C_7 
REMARK       I    between atoms: N_9  and  C_8 
REMARK    3  A    between atoms: C_14  and  N_9 
REMARK    4  A    between atoms: C_15  and  C_14 
ROOT
ATOM      1  C   UNL d   1      32.877  21.054 -21.608  0.00  0.00     0.032 A 
ATOM      2  C   UNL d   1      32.693  21.857 -21.684  0.00  0.00     0.025 A 
ATOM      3  C   UNL d   1      32.676  20.731 -20.877  0.00  0.00     0.123 A 
ATOM      4  O   UNL d   1      32.316  21.466 -20.459  0.00  0.00    -0.305 OA
ATOM      5  C   UNL d   1      32.794  22.395 -22.305  0.00  0.00     0.002 A 
ATOM      6  C   UNL d   1      32.348  22.110 -20.976  0.00  0.00     0.100 A 
ATOM      7  C   UNL d   1      32.555  23.176 -22.224  0.00  0.00     0.000 A 
ATOM      8  C   UNL d   1      32.107  22.900 -20.895  0.00  0.00     0.025 A 
ATOM      9  C   UNL d   1      32.210  23.430 -21.516  0.00  0.00     0.002 A 
ATOM     10  C   UNL d   1      33.138  22.142 -23.010  0.00  0.00     0.000 A 
ATOM     11  C   UNL d   1      32.657  23.698 -22.838  0.00  0.00     0.000 A 
ATOM     12  C   UNL d   1      33.241  22.672 -23.631  0.00  0.00     0.000 A 
ATOM     13  C   UNL d   1      32.995  23.457 -23.536  0.00  0.00     0.000 A 
ENDROOT
BRANCH   1  14
ATOM     14  C   UNL d   1      33.230  20.578 -22.186  0.00  0.00     0.065 C 
BRANCH  14  15
ATOM     15  C   UNL d   1      33.141  19.757 -22.158  0.00  0.00     0.279 C 
ATOM     16  N   UNL d   1      32.952  19.340 -22.844  0.00  0.00    -0.206 NA
ATOM     17  O   UNL d   1      33.241  19.355 -21.452  0.00  0.00    -0.265 OA
BRANCH  16  18
ATOM     18  C   UNL d   1      32.864  18.529 -22.822  0.00  0.00     0.102 C 
BRANCH  18  19
ATOM     19  C   UNL d   1      32.528  18.125 -23.463  0.00  0.00     0.019 A 
ATOM     20  C   UNL d   1      32.322  17.336 -23.376  0.00  0.00     0.002 A 
ATOM     21  C   UNL d   1      31.988  16.929 -24.007  0.00  0.00     0.000 A 
ATOM     22  C   UNL d   1      31.860  17.311 -24.726  0.00  0.00     0.000 A 
ATOM     23  C   UNL d   1      32.072  18.115 -24.806  0.00  0.00     0.000 A 
ATOM     24  C   UNL d   1      32.404  18.513 -24.172  0.00  0.00     0.002 A 
ENDBRANCH  18  19
ENDBRANCH  16  18
ENDBRANCH  14  15
ENDBRANCH   1  14
TORSDOF 4
ENDMDL
MODEL 2
REMARK VINA RESULT:      -3.3      1.563      2.806
REMARK  4 active torsions:
REMARK  status: ('A' for Active; 'I' for Inactive)
REMARK    1  A    between atoms: C_7  and  C_1 
REMARK    2  A    between atoms: C_8  and  C_7 
REMARK       I    between atoms: N_9  and  C_8 
REMARK    3  A    between atoms: C_14  and  N_9 
REMARK    4  A    between atoms: C_15  and  C_14 
ROOT
ATOM      1  C   UNL d   1      33.149  19.573 -23.544  0.00  0.00     0.032 A 
ATOM      2  C   UNL d   1      33.176  20.241 -23.057  0.00  0.00     0.025 A 
ATOM      3  C   UNL d   1      33.139  19.746 -24.351  0.00  0.00     0.123 A 
ATOM      4  O   UNL d   1      33.164  20.665 -24.329  0.00  0.00    -0.305 OA
ATOM      5  C   UNL d   1      33.194  20.330 -22.234  0.00  0.00     0.002 A 
ATOM      6  C   UNL d   1      33.186  20.913 -23.540  0.00  0.00     0.100 A 
ATOM      7  C   UNL d   1      33.220  21.076 -21.894  0.00  0.00     0.000 A 
ATOM      8  C   UNL d   1      33.212  21.668 -23.196  0.00  0.00     0.025 A 
ATOM      9  C   UNL d   1      33.229  21.748 -22.377  0.00  0.00     0.002 A 
ATOM     10  C   UNL d   1      33.184  19.660 -21.753  0.00  0.00     0.000 A 
ATOM     11  C   UNL d   1      33.237  21.155 -21.085  0.00  0.00     0.000 A 
ATOM     12  C   UNL d   1      33.201  19.741 -20.935  0.00  0.00     0.000 A 
ATOM     13  C   UNL d   1      33.228  20.500 -20.605  0.00  0.00     0.000 A 
ENDROOT
BRANCH   1  14
ATOM     14  C   UNL d   1      33.133  18.786 -23.291  0.00  0.00     0.065 C 
BRANCH  14  15
ATOM     15  C   UNL d   1      32.887  18.189 -23.808  0.00  0.00     0.279 C 
ATOM     16  N   UNL d   1      32.298  17.661 -23.576  0.00  0.00    -0.206 NA
ATOM     17  O   UNL d   1      33.226  18.120 -24.550  0.00  0.00    -0.265 OA
BRANCH  16  18
ATOM     18  C   UNL d   1      32.052  17.070 -24.082  0.00  0.00     0.102 C 
BRANCH  18  19
ATOM     19  C   UNL d   1      31.401  16.595 -23.890  0.00  0.00     0.019 A 
ATOM     20  C   UNL d   1      30.676  16.748 -24.240  0.00  0.00     0.002 A 
ATOM     21  C   UNL d   1      30.026  16.280 -24.054  0.00  0.00     0.000 A 
ATOM     22  C   UNL d   1      30.101  15.660 -23.517  0.00  0.00     0.000 A 
ATOM     23  C   UNL d   1      30.843  15.511 -23.165  0.00  0.00     0.000 A 
ATOM     24  C   UNL d   1      31.486  15.982 -23.355  0.00  0.00     0.002 A 
ENDBRANCH  18  19
ENDBRANCH  16  18
ENDBRANCH  14  15
ENDBRANCH   1  14
TORSDOF 4
ENDMDL
MODEL 3
REMARK VINA RESULT:      -3.0      1.215      2.094
REMARK  4 active torsions:
REMARK  status: ('A' for Active; 'I' for Inactive)
REMARK    1  A    between atoms: C_7  and  C_1 
REMARK    2  A    between atoms: C_8  and  C_7 
REMARK       I    between atoms: N_9  and  C_8 
REMARK    3  A    between atoms: C_14  and  N_9 
REMARK    4  A    between atoms: C_15  and  C_14 
ROOT
ATOM      1  C   UNL d   1      33.214  21.058 -22.920  0.00  0.00     0.032 A 
ATOM      2  C   UNL d   1      33.220  21.634 -22.326  0.00  0.00     0.025 A 
ATOM      3  C   UNL d   1      33.222  21.364 -23.685  0.00  0.00     0.123 A 
ATOM      4  O   UNL d   1      33.234  22.266 -23.509  0.00  0.00    -0.305 OA
ATOM      5  C   UNL d   1      33.215  21.583 -21.500  0.00  0.00     0.002 A 
ATOM      6  C   UNL d   1      33.232  22.378 -22.689  0.00  0.00     0.100 A 
ATOM      7  C   UNL d   1      33.223  22.262 -21.039  0.00  0.00     0.000 A 
ATOM      8  C   UNL d   1      33.241  23.064 -22.223  0.00  0.00     0.025 A 
ATOM      9  C   UNL d   1      33.236  23.006 -21.402  0.00  0.00     0.002 A 
ATOM     10  C   UNL d   1      33.202  20.843 -21.139  0.00  0.00     0.000 A 
ATOM     11  C   UNL d   1      33.219  22.203 -20.228  0.00  0.00     0.000 A 
ATOM     12  C   UNL d   1      33.198  20.784 -20.319  0.00  0.00     0.000 A 
ATOM     13  C   UNL d   1      33.206  21.477 -19.865  0.00  0.00     0.000 A 
ENDROOT
BRANCH   1  14
ATOM     14  C   UNL d   1      33.201  20.239 -22.803  0.00  0.00     0.065 C 
BRANCH  14  15
ATOM     15  C   UNL d   1      33.116  19.730 -23.448  0.00  0.00     0.279 C 
ATOM     16  N   UNL d   1      32.905  18.942 -23.325  0.00  0.00    -0.206 NA
ATOM     17  O   UNL d   1      33.241  20.003 -24.210  0.00  0.00    -0.265 OA
BRANCH  16  18
ATOM     18  C   UNL d   1      32.820  18.434 -23.959  0.00  0.00     0.102 C 
BRANCH  18  19
ATOM     19  C   UNL d   1      32.595  17.646 -23.840  0.00  0.00     0.019 A 
ATOM     20  C   UNL d   1      31.806  17.438 -23.916  0.00  0.00     0.002 A 
ATOM     21  C   UNL d   1      31.576  16.657 -23.799  0.00  0.00     0.000 A 
ATOM     22  C   UNL d   1      32.136  16.085 -23.606  0.00  0.00     0.000 A 
ATOM     23  C   UNL d   1      32.937  16.305 -23.530  0.00  0.00     0.000 A 
ATOM     24  C   UNL d   1      33.158  17.085 -23.648  0.00  0.00     0.002 A 
ENDBRANCH  18  19
ENDBRANCH  16  18
ENDBRANCH  14  15
ENDBRANCH   1  14
TORSDOF 4
ENDMDL
MODEL 4
REMARK VINA RESULT:      -2.6      2.139      5.194
REMARK  4 active torsions:
REMARK  status: ('A' for Active; 'I' for Inactive)
REMARK    1  A    between atoms: C_7  and  C_1 
REMARK    2  A    between atoms: C_8  and  C_7 
REMARK       I    between atoms: N_9  and  C_8 
REMARK    3  A    between atoms: C_14  and  N_9 
REMARK    4  A    between atoms: C_15  and  C_14 
ROOT
ATOM      1  C   UNL d   1      33.034  22.094 -21.993  0.00  0.00     0.032 A 
ATOM      2  C   UNL d   1      33.048  21.441 -22.502  0.00  0.00     0.025 A 
ATOM      3  C   UNL d   1      32.964  22.819 -22.379  0.00  0.00     0.123 A 
ATOM      4  O   UNL d   1      32.932  22.544 -23.255  0.00  0.00    -0.305 OA
ATOM      5  C   UNL d   1      33.109  20.628 -22.363  0.00  0.00     0.002 A 
ATOM      6  C   UNL d   1      32.985  21.719 -23.279  0.00  0.00     0.100 A 
ATOM      7  C   UNL d   1      33.108  20.096 -22.987  0.00  0.00     0.000 A 
ATOM      8  C   UNL d   1      32.984  21.180 -23.910  0.00  0.00     0.025 A 
ATOM      9  C   UNL d   1      33.045  20.373 -23.765  0.00  0.00     0.002 A 
ATOM     10  C   UNL d   1      33.172  20.352 -21.589  0.00  0.00     0.000 A 
ATOM     11  C   UNL d   1      33.169  19.298 -22.842  0.00  0.00     0.000 A 
ATOM     12  C   UNL d   1      33.233  19.544 -21.443  0.00  0.00     0.000 A 
ATOM     13  C   UNL d   1      33.231  19.018 -22.083  0.00  0.00     0.000 A 
ENDROOT
BRANCH   1  14
ATOM     14  C   UNL d   1      33.083  22.069 -21.168  0.00  0.00     0.065 C 
BRANCH  14  15
ATOM     15  C   UNL d   1      32.913  22.743 -20.722  0.00  0.00     0.279 C 
ATOM     16  N   UNL d   1      32.924  22.705 -19.898  0.00  0.00    -0.206 NA
ATOM     17  O   UNL d   1      32.735  23.450 -21.094  0.00  0.00    -0.265 OA
BRANCH  16  18
ATOM     18  C   UNL d   1      32.757  23.368 -19.452  0.00  0.00     0.102 C 
BRANCH  18  19
ATOM     19  C   UNL d   1      32.682  23.314 -18.629  0.00  0.00     0.019 A 
ATOM     20  C   UNL d   1      32.050  23.682 -18.259  0.00  0.00     0.002 A 
ATOM     21  C   UNL d   1      31.970  23.632 -17.442  0.00  0.00     0.000 A 
ATOM     22  C   UNL d   1      32.522  23.215 -16.996  0.00  0.00     0.000 A 
ATOM     23  C   UNL d   1      33.163  22.843 -17.381  0.00  0.00     0.000 A 
ATOM     24  C   UNL d   1      33.235  22.897 -18.194  0.00  0.00     0.002 A 
ENDBRANCH  18  19
ENDBRANCH  16  18
ENDBRANCH  14  15
ENDBRANCH   1  14
TORSDOF 4
ENDMDL
