MODEL 1
REMARK VINA RESULT:      -3.9      0.000      0.000
REMARK  6 active torsions:
REMARK  status: ('A' for Active; 'I' for Inactive)
REMARK    1  A    between atoms: O_8  and  S_1 
REMARK    2  A    between atoms: C_9  and  S_1 
REMARK    3  A    between atoms: C_7  and  C_2 
REMARK    4  A    between atoms: C_20  and  C_7 
REMARK    5  A    between atoms: C_14  and  O_8 
REMARK    6  A    between atoms: O_24  and  C_21 
ROOT
ATOM      1  C   UNL d   1      33.230  21.041 -21.573  0.00  0.00     0.139 A 
ATOM      2  C   UNL d   1      33.223  19.738 -21.835  0.00  0.00     0.064 A 
ATOM      3  C   UNL d   1      33.231  20.291 -21.227  0.00  0.00     0.220 A 
ATOM      4  C   UNL d   1      33.216  20.138 -22.556  0.00  0.00     0.105 A 
ATOM      5  O   UNL d   1      33.221  20.948 -22.392  0.00  0.00    -0.304 OA
ATOM      6  C   UNL d   1      33.206  19.716 -23.253  0.00  0.00     0.050 A 
ATOM      7  C   UNL d   1      33.220  18.914 -21.821  0.00  0.00     0.007 A 
ATOM      8  C   UNL d   1      33.204  18.892 -23.239  0.00  0.00     0.116 A 
ATOM      9  O   UNL d   1      33.240  20.137 -20.418  0.00  0.00    -0.284 OA
ATOM     10  C   UNL d   1      33.210  18.496 -22.525  0.00  0.00     0.026 A 
ENDROOT
BRANCH   8  11
ATOM     11  O   UNL d   1      33.194  18.470 -23.945  0.00  0.00    -0.227 OA
BRANCH  11  12
ATOM     12  S   UNL d   1      32.533  18.020 -24.148  0.00  0.00     0.304 S 
ATOM     13  O   UNL d   1      32.956  17.339 -24.015  0.00  0.00    -0.193 OA
ATOM     14  O   UNL d   1      32.096  18.701 -24.286  0.00  0.00    -0.193 OA
BRANCH  12  15
ATOM     15  C   UNL d   1      31.867  17.561 -24.353  0.00  0.00     0.111 A 
ATOM     16  C   UNL d   1      31.317  17.860 -24.893  0.00  0.00     0.015 A 
ATOM     17  C   UNL d   1      30.658  17.407 -25.096  0.00  0.00     0.025 A 
ATOM     18  C   UNL d   1      30.550  16.655 -24.760  0.00  0.00     0.094 A 
ATOM     19  C   UNL d   1      31.109  16.367 -24.219  0.00  0.00     0.025 A 
ATOM     20  C   UNL d   1      31.767  16.823 -24.019  0.00  0.00     0.015 A 
BRANCH  18  21
ATOM     21  O   UNL d   1      29.897  16.209 -24.963  0.00  0.00    -0.328 OA
ATOM     22  C   UNL d   1      29.331  16.031 -24.396  0.00  0.00     0.181 C 
ENDBRANCH  18  21
ENDBRANCH  12  15
ENDBRANCH  11  12
ENDBRANCH   8  11
BRANCH   1  23
ATOM     23  C   UNL d   1      33.237  21.763 -21.172  0.00  0.00     0.029 C 
BRANCH  23  24
ATOM     24  C   UNL d   1      32.817  22.412 -21.467  0.00  0.00     0.021 A 
ATOM     25  C   UNL d   1      32.114  22.630 -21.107  0.00  0.00     0.099 A 
ATOM     26  N   UNL d   1      31.688  23.271 -21.389  0.00  0.00    -0.242 NA
ATOM     27  C   UNL d   1      31.972  23.702 -22.044  0.00  0.00     0.099 A 
ATOM     28  C   UNL d   1      32.682  23.478 -22.403  0.00  0.00     0.021 A 
ATOM     29  C   UNL d   1      33.102  22.829 -22.108  0.00  0.00     0.003 A 
ENDBRANCH  23  24
ENDBRANCH   1  23
TORSDOF 6
ENDMDL
MODEL 2
REMARK VINA RESULT:      -3.2      0.886      1.574
REMARK  6 active torsions:
REMARK  status: ('A' for Active; 'I' for Inactive)
REMARK    1  A    between atoms: O_8  and  S_1 
REMARK    2  A    between atoms: C_9  and  S_1 
REMARK    3  A    between atoms: C_7  and  C_2 
REMARK    4  A    between atoms: C_20  and  C_7 
REMARK    5  A    between atoms: C_14  and  O_8 
REMARK    6  A    between atoms: O_24  and  C_21 
ROOT
ATOM      1  C   UNL d   1      33.225  21.450 -22.680  0.00  0.00     0.139 A 
ATOM      2  C   UNL d   1      33.187  20.554 -23.663  0.00  0.00     0.064 A 
ATOM      3  C   UNL d   1      33.191  21.360 -23.500  0.00  0.00     0.220 A 
ATOM      4  C   UNL d   1      33.217  20.142 -22.949  0.00  0.00     0.105 A 
ATOM      5  O   UNL d   1      33.241  20.699 -22.339  0.00  0.00    -0.304 OA
ATOM      6  C   UNL d   1      33.220  19.327 -22.953  0.00  0.00     0.050 A 
ATOM      7  C   UNL d   1      33.158  20.143 -24.375  0.00  0.00     0.007 A 
ATOM      8  C   UNL d   1      33.191  18.915 -23.666  0.00  0.00     0.116 A 
ATOM      9  O   UNL d   1      33.166  21.975 -24.049  0.00  0.00    -0.284 OA
ATOM     10  C   UNL d   1      33.161  19.324 -24.373  0.00  0.00     0.026 A 
ENDROOT
BRANCH   8  11
ATOM     11  O   UNL d   1      33.194  18.093 -23.665  0.00  0.00    -0.227 OA
BRANCH  11  12
ATOM     12  S   UNL d   1      32.500  17.677 -23.829  0.00  0.00     0.304 S 
ATOM     13  O   UNL d   1      32.688  17.677 -24.620  0.00  0.00    -0.193 OA
ATOM     14  O   UNL d   1      32.300  17.671 -23.033  0.00  0.00    -0.193 OA
BRANCH  12  15
ATOM     15  C   UNL d   1      31.800  17.257 -24.000  0.00  0.00     0.111 A 
ATOM     16  C   UNL d   1      31.590  16.608 -23.534  0.00  0.00     0.015 A 
ATOM     17  C   UNL d   1      30.898  16.192 -23.702  0.00  0.00     0.025 A 
ATOM     18  C   UNL d   1      30.416  16.425 -24.338  0.00  0.00     0.094 A 
ATOM     19  C   UNL d   1      30.638  17.078 -24.798  0.00  0.00     0.025 A 
ATOM     20  C   UNL d   1      31.331  17.492 -24.626  0.00  0.00     0.015 A 
BRANCH  18  21
ATOM     21  O   UNL d   1      29.731  16.011 -24.501  0.00  0.00    -0.328 OA
ATOM     22  C   UNL d   1      29.024  16.415 -24.602  0.00  0.00     0.181 C 
ENDBRANCH  18  21
ENDBRANCH  12  15
ENDBRANCH  11  12
ENDBRANCH   8  11
BRANCH   1  23
ATOM     23  C   UNL d   1      33.240  22.164 -22.268  0.00  0.00     0.029 C 
BRANCH  23  24
ATOM     24  C   UNL d   1      32.848  22.240 -21.542  0.00  0.00     0.021 A 
ATOM     25  C   UNL d   1      32.063  22.476 -21.535  0.00  0.00     0.099 A 
ATOM     26  N   UNL d   1      31.663  22.555 -20.824  0.00  0.00    -0.242 NA
ATOM     27  C   UNL d   1      32.057  22.395 -20.106  0.00  0.00     0.099 A 
ATOM     28  C   UNL d   1      32.849  22.157 -20.119  0.00  0.00     0.021 A 
ATOM     29  C   UNL d   1      33.240  22.082 -20.844  0.00  0.00     0.003 A 
ENDBRANCH  23  24
ENDBRANCH   1  23
TORSDOF 6
ENDMDL
MODEL 3
REMARK VINA RESULT:      -2.9      1.922      5.476
REMARK  6 active torsions:
REMARK  status: ('A' for Active; 'I' for Inactive)
REMARK    1  A    between atoms: O_8  and  S_1 
REMARK    2  A    between atoms: C_9  and  S_1 
REMARK    3  A    between atoms: C_7  and  C_2 
REMARK    4  A    between atoms: C_20  and  C_7 
REMARK    5  A    between atoms: C_14  and  O_8 
REMARK    6  A    between atoms: O_24  and  C_21 
ROOT
ATOM      1  C   UNL d   1      31.011  16.561 -24.086  0.00  0.00     0.139 A 
ATOM      2  C   UNL d   1      32.140  16.990 -23.530  0.00  0.00     0.064 A 
ATOM      3  C   UNL d   1      31.660  16.330 -23.631  0.00  0.00     0.220 A 
ATOM      4  C   UNL d   1      31.794  17.629 -23.920  0.00  0.00     0.105 A 
ATOM      5  O   UNL d   1      31.093  17.362 -24.264  0.00  0.00    -0.304 OA
ATOM      6  C   UNL d   1      32.161  18.357 -23.906  0.00  0.00     0.050 A 
ATOM      7  C   UNL d   1      32.854  17.088 -23.131  0.00  0.00     0.007 A 
ATOM      8  C   UNL d   1      32.874  18.455 -23.507  0.00  0.00     0.116 A 
ATOM      9  O   UNL d   1      31.793  15.572 -23.336  0.00  0.00    -0.284 OA
ATOM     10  C   UNL d   1      33.217  17.822 -23.121  0.00  0.00     0.026 A 
ENDROOT
BRANCH   8  11
ATOM     11  O   UNL d   1      33.241  19.192 -23.496  0.00  0.00    -0.227 OA
BRANCH  11  12
ATOM     12  S   UNL d   1      33.104  19.712 -22.870  0.00  0.00     0.304 S 
ATOM     13  O   UNL d   1      32.967  20.313 -23.401  0.00  0.00    -0.193 OA
ATOM     14  O   UNL d   1      33.241  19.114 -22.325  0.00  0.00    -0.193 OA
BRANCH  12  15
ATOM     15  C   UNL d   1      32.965  20.242 -22.242  0.00  0.00     0.111 A 
ATOM     16  C   UNL d   1      33.038  19.977 -21.462  0.00  0.00     0.015 A 
ATOM     17  C   UNL d   1      32.901  20.500 -20.839  0.00  0.00     0.025 A 
ATOM     18  C   UNL d   1      32.691  21.289 -20.996  0.00  0.00     0.094 A 
ATOM     19  C   UNL d   1      32.622  21.542 -21.783  0.00  0.00     0.025 A 
ATOM     20  C   UNL d   1      32.760  21.016 -22.403  0.00  0.00     0.015 A 
BRANCH  18  21
ATOM     21  O   UNL d   1      32.556  21.804 -20.377  0.00  0.00    -0.328 OA
ATOM     22  C   UNL d   1      32.746  22.599 -20.458  0.00  0.00     0.181 C 
ENDBRANCH  18  21
ENDBRANCH  12  15
ENDBRANCH  11  12
ENDBRANCH   8  11
BRANCH   1  23
ATOM     23  C   UNL d   1      30.386  16.078 -24.324  0.00  0.00     0.029 C 
BRANCH  23  24
ATOM     24  C   UNL d   1      29.606  16.269 -24.121  0.00  0.00     0.021 A 
ATOM     25  C   UNL d   1      29.258  15.898 -23.478  0.00  0.00     0.099 A 
ATOM     26  N   UNL d   1      28.487  16.077 -23.267  0.00  0.00    -0.242 NA
ATOM     27  C   UNL d   1      28.056  16.638 -23.708  0.00  0.00     0.099 A 
ATOM     28  C   UNL d   1      28.411  17.010 -24.355  0.00  0.00     0.021 A 
ATOM     29  C   UNL d   1      29.190  16.819 -24.557  0.00  0.00     0.003 A 
ENDBRANCH  23  24
ENDBRANCH   1  23
TORSDOF 6
ENDMDL
