MODEL 1
REMARK VINA RESULT:      -7.8      0.000      0.000
REMARK  2 active torsions:
REMARK  status: ('A' for Active; 'I' for Inactive)
REMARK    1  A    between atoms: N_9  and  C_3 
REMARK    2  A    between atoms: C_11  and  C_5 
ROOT
ATOM      1  N   UNL d   1     -47.666  13.570  22.752  0.00  0.00    -0.196 N 
ATOM      2  C   UNL d   1     -48.460  13.556  22.971  0.00  0.00     0.167 A 
ATOM      3  C   UNL d   1     -47.201  12.898  22.845  0.00  0.00     0.152 A 
ATOM      4  N   UNL d   1     -47.500  14.317  22.463  0.00  0.00    -0.163 NA
ATOM      5  C   UNL d   1     -48.785  14.294  22.818  0.00  0.00     0.055 A 
ATOM      6  C   UNL d   1     -48.193  14.766  22.504  0.00  0.00     0.104 A 
ATOM      7  N   UNL d   1     -48.790  12.870  23.285  0.00  0.00    -0.227 NA
ATOM      8  C   UNL d   1     -47.529  12.205  23.161  0.00  0.00     0.057 A 
ATOM      9  C   UNL d   1     -48.323  12.190  23.380  0.00  0.00     0.086 A 
ATOM     10  C   UNL d   1     -48.276  15.553  22.269  0.00  0.00     0.023 C 
ATOM     11  C   UNL d   1     -48.664  11.500  23.698  0.00  0.00     0.021 C 
ENDROOT
BRANCH   5  12
ATOM     12  C   UNL d   1     -49.544  14.603  22.922  0.00  0.00     0.004 A 
ATOM     13  C   UNL d   1     -50.127  14.465  22.350  0.00  0.00     0.000 A 
ATOM     14  C   UNL d   1     -50.886  14.775  22.454  0.00  0.00     0.000 A 
ATOM     15  C   UNL d   1     -51.064  15.219  23.125  0.00  0.00     0.000 A 
ATOM     16  C   UNL d   1     -50.477  15.356  23.698  0.00  0.00     0.000 A 
ATOM     17  C   UNL d   1     -49.722  15.048  23.593  0.00  0.00     0.000 A 
ENDBRANCH   5  12
BRANCH   3  18
ATOM     18  N   UNL d   1     -46.406  12.913  22.625  0.00  0.00    -0.289 N 
ATOM     19  C   UNL d   1     -46.136  12.847  21.850  0.00  0.00     0.082 A 
ATOM     20  C   UNL d   1     -45.308  12.886  21.858  0.00  0.00     0.021 A 
ATOM     21  C   UNL d   1     -45.076  12.975  22.644  0.00  0.00     0.021 A 
ATOM     22  C   UNL d   1     -45.736  12.993  23.119  0.00  0.00     0.082 A 
ENDBRANCH   3  18
TORSDOF 2
ENDMDL
MODEL 2
REMARK VINA RESULT:      -7.3      1.139      2.015
REMARK  2 active torsions:
REMARK  status: ('A' for Active; 'I' for Inactive)
REMARK    1  A    between atoms: N_9  and  C_3 
REMARK    2  A    between atoms: C_11  and  C_5 
ROOT
ATOM      1  N   UNL d   1     -47.780  12.596  22.947  0.00  0.00    -0.196 N 
ATOM      2  C   UNL d   1     -48.225  13.269  22.780  0.00  0.00     0.167 A 
ATOM      3  C   UNL d   1     -46.972  12.662  23.087  0.00  0.00     0.152 A 
ATOM      4  N   UNL d   1     -48.284  11.952  22.936  0.00  0.00    -0.163 NA
ATOM      5  C   UNL d   1     -49.006  13.040  22.665  0.00  0.00     0.055 A 
ATOM      6  C   UNL d   1     -49.044  12.227  22.761  0.00  0.00     0.104 A 
ATOM      7  N   UNL d   1     -47.864  14.008  22.753  0.00  0.00    -0.227 NA
ATOM      8  C   UNL d   1     -46.603  13.404  23.061  0.00  0.00     0.057 A 
ATOM      9  C   UNL d   1     -47.049  14.077  22.894  0.00  0.00     0.086 A 
ATOM     10  C   UNL d   1     -49.724  11.765  22.694  0.00  0.00     0.023 C 
ATOM     11  C   UNL d   1     -46.691  14.828  22.865  0.00  0.00     0.021 C 
ENDROOT
BRANCH   5  12
ATOM     12  C   UNL d   1     -49.691  13.465  22.485  0.00  0.00     0.004 A 
ATOM     13  C   UNL d   1     -49.946  13.521  21.699  0.00  0.00     0.000 A 
ATOM     14  C   UNL d   1     -50.632  13.946  21.519  0.00  0.00     0.000 A 
ATOM     15  C   UNL d   1     -51.062  14.313  22.119  0.00  0.00     0.000 A 
ATOM     16  C   UNL d   1     -50.804  14.255  22.907  0.00  0.00     0.000 A 
ATOM     17  C   UNL d   1     -50.121  13.832  23.086  0.00  0.00     0.000 A 
ENDBRANCH   5  12
BRANCH   3  18
ATOM     18  N   UNL d   1     -46.525  11.988  23.255  0.00  0.00    -0.289 N 
ATOM     19  C   UNL d   1     -45.745  11.875  23.017  0.00  0.00     0.082 A 
ATOM     20  C   UNL d   1     -45.493  11.136  23.290  0.00  0.00     0.021 A 
ATOM     21  C   UNL d   1     -46.126  10.797  23.697  0.00  0.00     0.021 A 
ATOM     22  C   UNL d   1     -46.758  11.308  23.682  0.00  0.00     0.082 A 
ENDBRANCH   3  18
TORSDOF 2
ENDMDL
MODEL 3
REMARK VINA RESULT:      -7.1      7.871      9.895
REMARK  2 active torsions:
REMARK  status: ('A' for Active; 'I' for Inactive)
REMARK    1  A    between atoms: N_9  and  C_3 
REMARK    2  A    between atoms: C_11  and  C_5 
ROOT
ATOM      1  N   UNL d   1     -39.616  14.938  17.661  0.00  0.00    -0.196 N 
ATOM      2  C   UNL d   1     -40.244  15.161  18.145  0.00  0.00     0.167 A 
ATOM      3  C   UNL d   1     -39.668  15.038  16.846  0.00  0.00     0.152 A 
ATOM      4  N   UNL d   1     -39.024  14.639  18.140  0.00  0.00    -0.163 NA
ATOM      5  C   UNL d   1     -40.041  15.000  18.924  0.00  0.00     0.055 A 
ATOM      6  C   UNL d   1     -39.287  14.677  18.923  0.00  0.00     0.104 A 
ATOM      7  N   UNL d   1     -40.925  15.484  17.815  0.00  0.00    -0.227 NA
ATOM      8  C   UNL d   1     -40.352  15.363  16.509  0.00  0.00     0.057 A 
ATOM      9  C   UNL d   1     -40.980  15.586  16.993  0.00  0.00     0.086 A 
ATOM     10  C   UNL d   1     -38.866  14.433  19.589  0.00  0.00     0.023 C 
ATOM     11  C   UNL d   1     -41.673  15.914  16.666  0.00  0.00     0.021 C 
ENDROOT
BRANCH   5  12
ATOM     12  C   UNL d   1     -40.442  15.104  19.639  0.00  0.00     0.004 A 
ATOM     13  C   UNL d   1     -40.906  14.488  19.944  0.00  0.00     0.000 A 
ATOM     14  C   UNL d   1     -41.307  14.592  20.658  0.00  0.00     0.000 A 
ATOM     15  C   UNL d   1     -41.246  15.305  21.068  0.00  0.00     0.000 A 
ATOM     16  C   UNL d   1     -40.780  15.921  20.760  0.00  0.00     0.000 A 
ATOM     17  C   UNL d   1     -40.381  15.817  20.048  0.00  0.00     0.000 A 
ENDBRANCH   5  12
BRANCH   3  18
ATOM     18  N   UNL d   1     -39.039  14.814  16.361  0.00  0.00    -0.289 N 
ATOM     19  C   UNL d   1     -38.909  14.048  16.089  0.00  0.00     0.082 A 
ATOM     20  C   UNL d   1     -38.226  14.048  15.621  0.00  0.00     0.021 A 
ATOM     21  C   UNL d   1     -37.940  14.822  15.609  0.00  0.00     0.021 A 
ATOM     22  C   UNL d   1     -38.426  15.295  16.056  0.00  0.00     0.082 A 
ENDBRANCH   3  18
TORSDOF 2
ENDMDL
MODEL 4
REMARK VINA RESULT:      -6.6      8.607      9.765
REMARK  2 active torsions:
REMARK  status: ('A' for Active; 'I' for Inactive)
REMARK    1  A    between atoms: N_9  and  C_3 
REMARK    2  A    between atoms: C_11  and  C_5 
ROOT
ATOM      1  N   UNL d   1     -39.894  14.827  18.824  0.00  0.00    -0.196 N 
ATOM      2  C   UNL d   1     -39.470  14.399  19.386  0.00  0.00     0.167 A 
ATOM      3  C   UNL d   1     -39.843  14.625  18.028  0.00  0.00     0.152 A 
ATOM      4  N   UNL d   1     -40.310  15.412  19.217  0.00  0.00    -0.163 NA
ATOM      5  C   UNL d   1     -39.624  14.719  20.126  0.00  0.00     0.055 A 
ATOM      6  C   UNL d   1     -40.142  15.345  20.024  0.00  0.00     0.104 A 
ATOM      7  N   UNL d   1     -38.995  13.768  19.153  0.00  0.00    -0.227 NA
ATOM      8  C   UNL d   1     -39.366  13.991  17.789  0.00  0.00     0.057 A 
ATOM      9  C   UNL d   1     -38.942  13.562  18.351  0.00  0.00     0.086 A 
ATOM     10  C   UNL d   1     -40.445  15.825  20.624  0.00  0.00     0.023 C 
ATOM     11  C   UNL d   1     -38.459  12.923  18.123  0.00  0.00     0.021 C 
ENDROOT
BRANCH   5  12
ATOM     12  C   UNL d   1     -39.360  14.525  20.885  0.00  0.00     0.004 A 
ATOM     13  C   UNL d   1     -39.790  13.985  21.344  0.00  0.00     0.000 A 
ATOM     14  C   UNL d   1     -39.526  13.790  22.103  0.00  0.00     0.000 A 
ATOM     15  C   UNL d   1     -38.838  14.132  22.403  0.00  0.00     0.000 A 
ATOM     16  C   UNL d   1     -38.409  14.673  21.940  0.00  0.00     0.000 A 
ATOM     17  C   UNL d   1     -38.672  14.866  21.185  0.00  0.00     0.000 A 
ENDBRANCH   5  12
BRANCH   3  18
ATOM     18  N   UNL d   1     -40.268  15.054  17.466  0.00  0.00    -0.289 N 
ATOM     19  C   UNL d   1     -39.939  15.616  16.962  0.00  0.00     0.082 A 
ATOM     20  C   UNL d   1     -40.540  15.922  16.482  0.00  0.00     0.021 A 
ATOM     21  C   UNL d   1     -41.240  15.541  16.697  0.00  0.00     0.021 A 
ATOM     22  C   UNL d   1     -41.085  15.012  17.294  0.00  0.00     0.082 A 
ENDBRANCH   3  18
TORSDOF 2
ENDMDL
MODEL 5
REMARK VINA RESULT:      -6.6      7.821      9.480
REMARK  2 active torsions:
REMARK  status: ('A' for Active; 'I' for Inactive)
REMARK    1  A    between atoms: N_9  and  C_3 
REMARK    2  A    between atoms: C_11  and  C_5 
ROOT
ATOM      1  N   UNL d   1     -39.436  14.587  20.243  0.00  0.00    -0.196 N 
ATOM      2  C   UNL d   1     -39.942  14.962  19.711  0.00  0.00     0.167 A 
ATOM      3  C   UNL d   1     -39.568  14.652  21.052  0.00  0.00     0.152 A 
ATOM      4  N   UNL d   1     -38.863  14.196  19.809  0.00  0.00    -0.163 NA
ATOM      5  C   UNL d   1     -39.680  14.804  18.949  0.00  0.00     0.055 A 
ATOM      6  C   UNL d   1     -39.014  14.330  19.008  0.00  0.00     0.104 A 
ATOM      7  N   UNL d   1     -40.579  15.404  19.988  0.00  0.00    -0.227 NA
ATOM      8  C   UNL d   1     -40.209  15.096  21.336  0.00  0.00     0.057 A 
ATOM      9  C   UNL d   1     -40.714  15.471  20.804  0.00  0.00     0.086 A 
ATOM     10  C   UNL d   1     -38.572  14.039  18.375  0.00  0.00     0.023 C 
ATOM     11  C   UNL d   1     -41.361  15.919  21.077  0.00  0.00     0.021 C 
ENDROOT
BRANCH   5  12
ATOM     12  C   UNL d   1     -39.960  15.027  18.205  0.00  0.00     0.004 A 
ATOM     13  C   UNL d   1     -40.546  14.574  17.832  0.00  0.00     0.000 A 
ATOM     14  C   UNL d   1     -40.826  14.797  17.087  0.00  0.00     0.000 A 
ATOM     15  C   UNL d   1     -40.525  15.469  16.715  0.00  0.00     0.000 A 
ATOM     16  C   UNL d   1     -39.938  15.922  17.092  0.00  0.00     0.000 A 
ATOM     17  C   UNL d   1     -39.660  15.699  17.833  0.00  0.00     0.000 A 
ENDBRANCH   5  12
BRANCH   3  18
ATOM     18  N   UNL d   1     -39.062  14.276  21.585  0.00  0.00    -0.289 N 
ATOM     19  C   UNL d   1     -39.203  13.537  21.919  0.00  0.00     0.082 A 
ATOM     20  C   UNL d   1     -38.571  13.352  22.421  0.00  0.00     0.021 A 
ATOM     21  C   UNL d   1     -38.042  13.985  22.390  0.00  0.00     0.021 A 
ATOM     22  C   UNL d   1     -38.331  14.552  21.885  0.00  0.00     0.082 A 
ENDBRANCH   3  18
TORSDOF 2
ENDMDL
MODEL 6
REMARK VINA RESULT:      -6.5      1.151      4.088
REMARK  2 active torsions:
REMARK  status: ('A' for Active; 'I' for Inactive)
REMARK    1  A    between atoms: N_9  and  C_3 
REMARK    2  A    between atoms: C_11  and  C_5 
ROOT
ATOM      1  N   UNL d   1     -48.625  13.135  22.776  0.00  0.00    -0.196 N 
ATOM      2  C   UNL d   1     -47.962  13.578  22.570  0.00  0.00     0.167 A 
ATOM      3  C   UNL d   1     -49.371  13.483  22.772  0.00  0.00     0.152 A 
ATOM      4  N   UNL d   1     -48.374  12.377  22.955  0.00  0.00    -0.163 NA
ATOM      5  C   UNL d   1     -47.301  13.095  22.622  0.00  0.00     0.055 A 
ATOM      6  C   UNL d   1     -47.553  12.352  22.860  0.00  0.00     0.104 A 
ATOM      7  N   UNL d   1     -48.044  14.370  22.360  0.00  0.00    -0.227 NA
ATOM      8  C   UNL d   1     -49.458  14.280  22.561  0.00  0.00     0.057 A 
ATOM      9  C   UNL d   1     -48.795  14.724  22.355  0.00  0.00     0.086 A 
ATOM     10  C   UNL d   1     -47.070  11.695  22.982  0.00  0.00     0.023 C 
ATOM     11  C   UNL d   1     -48.869  15.525  22.142  0.00  0.00     0.021 C 
ENDROOT
BRANCH   5  12
ATOM     12  C   UNL d   1     -46.497  13.230  22.484  0.00  0.00     0.004 A 
ATOM     13  C   UNL d   1     -46.069  13.721  22.996  0.00  0.00     0.000 A 
ATOM     14  C   UNL d   1     -45.265  13.856  22.859  0.00  0.00     0.000 A 
ATOM     15  C   UNL d   1     -44.890  13.505  22.214  0.00  0.00     0.000 A 
ATOM     16  C   UNL d   1     -45.323  13.014  21.701  0.00  0.00     0.000 A 
ATOM     17  C   UNL d   1     -46.122  12.879  21.839  0.00  0.00     0.000 A 
ENDBRANCH   5  12
BRANCH   3  18
ATOM     18  N   UNL d   1     -50.035  13.038  22.978  0.00  0.00    -0.289 N 
ATOM     19  C   UNL d   1     -50.431  13.099  23.698  0.00  0.00     0.082 A 
ATOM     20  C   UNL d   1     -51.064  12.566  23.694  0.00  0.00     0.021 A 
ATOM     21  C   UNL d   1     -51.052  12.179  22.965  0.00  0.00     0.021 A 
ATOM     22  C   UNL d   1     -50.430  12.459  22.523  0.00  0.00     0.082 A 
ENDBRANCH   3  18
TORSDOF 2
ENDMDL
MODEL 7
REMARK VINA RESULT:      -6.5      1.223      4.095
REMARK  2 active torsions:
REMARK  status: ('A' for Active; 'I' for Inactive)
REMARK    1  A    between atoms: N_9  and  C_3 
REMARK    2  A    between atoms: C_11  and  C_5 
ROOT
ATOM      1  N   UNL d   1     -49.012  13.801  23.074  0.00  0.00    -0.196 N 
ATOM      2  C   UNL d   1     -48.308  13.384  22.979  0.00  0.00     0.167 A 
ATOM      3  C   UNL d   1     -49.036  14.609  22.922  0.00  0.00     0.152 A 
ATOM      4  N   UNL d   1     -49.585  13.272  23.322  0.00  0.00    -0.163 NA
ATOM      5  C   UNL d   1     -48.446  12.597  23.168  0.00  0.00     0.055 A 
ATOM      6  C   UNL d   1     -49.234  12.526  23.380  0.00  0.00     0.104 A 
ATOM      7  N   UNL d   1     -47.627  13.774  22.732  0.00  0.00    -0.227 NA
ATOM      8  C   UNL d   1     -48.352  15.007  22.672  0.00  0.00     0.057 A 
ATOM      9  C   UNL d   1     -47.648  14.590  22.577  0.00  0.00     0.086 A 
ATOM     10  C   UNL d   1     -49.611  11.829  23.611  0.00  0.00     0.023 C 
ATOM     11  C   UNL d   1     -46.955  14.977  22.327  0.00  0.00     0.021 C 
ENDROOT
BRANCH   5  12
ATOM     12  C   UNL d   1     -47.957  11.931  23.176  0.00  0.00     0.004 A 
ATOM     13  C   UNL d   1     -47.307  11.903  23.689  0.00  0.00     0.000 A 
ATOM     14  C   UNL d   1     -46.818  11.237  23.696  0.00  0.00     0.000 A 
ATOM     15  C   UNL d   1     -46.976  10.601  23.196  0.00  0.00     0.000 A 
ATOM     16  C   UNL d   1     -47.630  10.631  22.683  0.00  0.00     0.000 A 
ATOM     17  C   UNL d   1     -48.115  11.295  22.675  0.00  0.00     0.000 A 
ENDBRANCH   5  12
BRANCH   3  18
ATOM     18  N   UNL d   1     -49.741  15.027  23.017  0.00  0.00    -0.289 N 
ATOM     19  C   UNL d   1     -49.943  15.452  23.693  0.00  0.00     0.082 A 
ATOM     20  C   UNL d   1     -50.690  15.791  23.575  0.00  0.00     0.021 A 
ATOM     21  C   UNL d   1     -50.942  15.570  22.821  0.00  0.00     0.021 A 
ATOM     22  C   UNL d   1     -50.372  15.105  22.474  0.00  0.00     0.082 A 
ENDBRANCH   3  18
TORSDOF 2
ENDMDL
MODEL 8
REMARK VINA RESULT:      -6.4      7.654      9.580
REMARK  2 active torsions:
REMARK  status: ('A' for Active; 'I' for Inactive)
REMARK    1  A    between atoms: N_9  and  C_3 
REMARK    2  A    between atoms: C_11  and  C_5 
ROOT
ATOM      1  N   UNL d   1     -39.712  14.718  19.906  0.00  0.00    -0.196 N 
ATOM      2  C   UNL d   1     -39.738  14.743  20.729  0.00  0.00     0.167 A 
ATOM      3  C   UNL d   1     -40.297  15.092  19.464  0.00  0.00     0.152 A 
ATOM      4  N   UNL d   1     -39.051  14.287  19.689  0.00  0.00    -0.163 NA
ATOM      5  C   UNL d   1     -39.092  14.328  21.021  0.00  0.00     0.055 A 
ATOM      6  C   UNL d   1     -38.667  14.045  20.380  0.00  0.00     0.104 A 
ATOM      7  N   UNL d   1     -40.347  15.142  21.111  0.00  0.00    -0.227 NA
ATOM      8  C   UNL d   1     -40.913  15.495  19.845  0.00  0.00     0.057 A 
ATOM      9  C   UNL d   1     -40.939  15.520  20.668  0.00  0.00     0.086 A 
ATOM     10  C   UNL d   1     -37.975  13.598  20.419  0.00  0.00     0.023 C 
ATOM     11  C   UNL d   1     -41.552  15.922  21.063  0.00  0.00     0.021 C 
ENDROOT
BRANCH   5  12
ATOM     12  C   UNL d   1     -38.832  14.167  21.788  0.00  0.00     0.004 A 
ATOM     13  C   UNL d   1     -39.073  13.471  22.167  0.00  0.00     0.000 A 
ATOM     14  C   UNL d   1     -38.813  13.310  22.935  0.00  0.00     0.000 A 
ATOM     15  C   UNL d   1     -38.315  13.840  23.324  0.00  0.00     0.000 A 
ATOM     16  C   UNL d   1     -38.075  14.538  22.941  0.00  0.00     0.000 A 
ATOM     17  C   UNL d   1     -38.334  14.697  22.177  0.00  0.00     0.000 A 
ENDBRANCH   5  12
BRANCH   3  18
ATOM     18  N   UNL d   1     -40.271  15.067  18.640  0.00  0.00    -0.289 N 
ATOM     19  C   UNL d   1     -39.945  15.656  18.166  0.00  0.00     0.082 A 
ATOM     20  C   UNL d   1     -40.026  15.429  17.373  0.00  0.00     0.021 A 
ATOM     21  C   UNL d   1     -40.404  14.695  17.368  0.00  0.00     0.021 A 
ATOM     22  C   UNL d   1     -40.558  14.467  18.133  0.00  0.00     0.082 A 
ENDBRANCH   3  18
TORSDOF 2
ENDMDL
MODEL 9
REMARK VINA RESULT:      -6.2      8.189     10.634
REMARK  2 active torsions:
REMARK  status: ('A' for Active; 'I' for Inactive)
REMARK    1  A    between atoms: N_9  and  C_3 
REMARK    2  A    between atoms: C_11  and  C_5 
ROOT
ATOM      1  N   UNL d   1     -39.874  14.915  18.267  0.00  0.00    -0.196 N 
ATOM      2  C   UNL d   1     -39.791  14.931  17.447  0.00  0.00     0.167 A 
ATOM      3  C   UNL d   1     -40.548  15.230  18.618  0.00  0.00     0.152 A 
ATOM      4  N   UNL d   1     -39.208  14.558  18.579  0.00  0.00    -0.163 NA
ATOM      5  C   UNL d   1     -39.073  14.583  17.253  0.00  0.00     0.055 A 
ATOM      6  C   UNL d   1     -38.711  14.352  17.951  0.00  0.00     0.104 A 
ATOM      7  N   UNL d   1     -40.381  15.261  16.978  0.00  0.00    -0.227 NA
ATOM      8  C   UNL d   1     -41.146  15.563  18.149  0.00  0.00     0.057 A 
ATOM      9  C   UNL d   1     -41.062  15.579  17.330  0.00  0.00     0.086 A 
ATOM     10  C   UNL d   1     -37.978  13.979  18.014  0.00  0.00     0.023 C 
ATOM     11  C   UNL d   1     -41.655  15.911  16.849  0.00  0.00     0.021 C 
ENDROOT
BRANCH   5  12
ATOM     12  C   UNL d   1     -38.696  14.444  16.531  0.00  0.00     0.004 A 
ATOM     13  C   UNL d   1     -38.316  15.067  16.138  0.00  0.00     0.000 A 
ATOM     14  C   UNL d   1     -37.940  14.929  15.416  0.00  0.00     0.000 A 
ATOM     15  C   UNL d   1     -37.942  14.173  15.085  0.00  0.00     0.000 A 
ATOM     16  C   UNL d   1     -38.324  13.550  15.481  0.00  0.00     0.000 A 
ATOM     17  C   UNL d   1     -38.698  13.689  16.200  0.00  0.00     0.000 A 
ENDBRANCH   5  12
BRANCH   3  18
ATOM     18  N   UNL d   1     -40.631  15.214  19.439  0.00  0.00    -0.289 N 
ATOM     19  C   UNL d   1     -40.746  15.881  19.908  0.00  0.00     0.082 A 
ATOM     20  C   UNL d   1     -40.804  15.638  20.698  0.00  0.00     0.021 A 
ATOM     21  C   UNL d   1     -40.724  14.817  20.707  0.00  0.00     0.021 A 
ATOM     22  C   UNL d   1     -40.618  14.550  19.946  0.00  0.00     0.082 A 
ENDBRANCH   3  18
TORSDOF 2
ENDMDL
