MODEL 1
REMARK VINA RESULT:      48.8      0.000      0.000
REMARK  4 active torsions:
REMARK  status: ('A' for Active; 'I' for Inactive)
REMARK    1  A    between atoms: C_12  and  N_1 
REMARK    2  A    between atoms: N_3  and  C_11 
REMARK    3  A    between atoms: C_11  and  C_15 
REMARK    4  A    between atoms: C_15  and  C_12 
ROOT
ATOM      1  N   UNL d   1     -56.797 -98.819 -44.139  0.00  0.00    -0.303 N 
ATOM      2  C   UNL d   1     -57.119 -98.823 -43.372  0.00  0.00     0.064 A 
ATOM      3  C   UNL d   1     -57.941 -98.813 -43.441  0.00  0.00     0.018 A 
ATOM      4  C   UNL d   1     -58.134 -98.804 -44.245  0.00  0.00     0.018 A 
ATOM      5  C   UNL d   1     -57.423 -98.808 -44.678  0.00  0.00     0.064 A 
ATOM      6  C   UNL d   1     -57.444 -98.800 -45.504  0.00  0.00     0.018 A 
ATOM      7  C   UNL d   1     -58.858 -98.793 -44.642  0.00  0.00     0.002 A 
ATOM      8  C   UNL d   1     -58.166 -98.789 -45.896  0.00  0.00     0.002 A 
ATOM      9  C   UNL d   1     -58.869 -98.785 -45.467  0.00  0.00     0.000 A 
ATOM     10  C   UNL d   1     -56.690 -98.834 -42.669  0.00  0.00     0.019 C 
ATOM     11  C   UNL d   1     -58.476 -98.813 -42.814  0.00  0.00     0.002 C 
ATOM     12  C   UNL d   1     -59.592 -98.774 -45.861  0.00  0.00     0.000 C 
ENDROOT
BRANCH   1  13
ATOM     13  C   UNL d   1     -55.992 -98.826 -44.328  0.00  0.00     0.124 C 
BRANCH  13  14
ATOM     14  C   UNL d   1     -55.518 -99.455 -44.071  0.00  0.00     0.232 C 
ATOM     15  O   UNL d   1     -55.410 -99.584 -43.271  0.00  0.00    -0.283 OA
BRANCH  14  16
ATOM     16  C   UNL d   1     -55.160 -99.945 -44.627  0.00  0.00     0.144 C 
BRANCH  16  17
ATOM     17  N   UNL d   1     -55.046-100.743 -44.469  0.00  0.00    -0.225 N 
ATOM     18  N   UNL d   1     -54.957-101.074 -43.715  0.00  0.00    -0.165 NA
ATOM     19  C   UNL d   1     -54.856-101.891 -43.807  0.00  0.00     0.103 A 
ATOM     20  C   UNL d   1     -54.748-102.443 -43.206  0.00  0.00     0.022 C 
ATOM     21  C   UNL d   1     -54.881-102.063 -44.618  0.00  0.00     0.040 A 
ATOM     22  C   UNL d   1     -54.999-101.351 -45.025  0.00  0.00     0.085 A 
ATOM     23  C   UNL d   1     -55.059-101.263 -45.840  0.00  0.00     0.021 C 
ENDBRANCH  16  17
ENDBRANCH  14  16
ENDBRANCH  13  14
ENDBRANCH   1  13
TORSDOF 4
ENDMDL
