MODEL 1
REMARK VINA RESULT:      65.6      0.000      0.000
REMARK  3 active torsions:
REMARK  status: ('A' for Active; 'I' for Inactive)
REMARK    1  A    between atoms: N_5  and  C_1 
REMARK    2  A    between atoms: C_9  and  C_2 
REMARK       I    between atoms: C_8  and  N_5 
REMARK    3  A    between atoms: C_13  and  C_8 
ROOT
ATOM      1  C   UNL d   1     -51.423  24.884  33.427  0.00  0.00     0.156 A 
ATOM      2  C   UNL d   1     -51.775  25.631  33.393  0.00  0.00     0.091 A 
ATOM      3  N   UNL d   1     -51.896  24.204  33.427  0.00  0.00    -0.289 N 
ATOM      4  C   UNL d   1     -52.601  25.698  33.358  0.00  0.00     0.201 A 
ATOM      5  C   UNL d   1     -53.070  25.019  33.358  0.00  0.00     0.055 A 
ATOM      6  C   UNL d   1     -52.718  24.272  33.392  0.00  0.00     0.069 A 
ATOM      7  O   UNL d   1     -52.953  26.445  33.323  0.00  0.00    -0.286 OA
ATOM      8  C   UNL d   1     -51.544  23.456  33.461  0.00  0.00     0.101 C 
ATOM      9  C   UNL d   1     -53.891  25.088  33.323  0.00  0.00     0.005 A 
ATOM     10  C   UNL d   1     -53.187  23.594  33.392  0.00  0.00     0.018 A 
ATOM     11  C   UNL d   1     -54.365  24.399  33.323  0.00  0.00     0.000 A 
ATOM     12  C   UNL d   1     -54.016  23.659  33.357  0.00  0.00     0.002 A 
ENDROOT
BRANCH   1  13
ATOM     13  N   UNL d   1     -50.588  24.807  33.462  0.00  0.00    -0.190 NA
ATOM     14  C   UNL d   1     -50.209  24.074  33.404  0.00  0.00     0.280 C 
ATOM     15  O   UNL d   1     -50.674  23.400  33.308  0.00  0.00    -0.265 OA
BRANCH  14  16
ATOM     16  C   UNL d   1     -49.388  24.006  33.440  0.00  0.00     0.058 A 
ATOM     17  C   UNL d   1     -49.036  23.266  33.326  0.00  0.00     0.005 A 
ATOM     18  C   UNL d   1     -48.215  23.198  33.361  0.00  0.00     0.000 A 
ATOM     19  C   UNL d   1     -47.753  23.865  33.510  0.00  0.00     0.000 A 
ATOM     20  C   UNL d   1     -48.113  24.601  33.623  0.00  0.00     0.000 A 
ATOM     21  C   UNL d   1     -48.934  24.669  33.587  0.00  0.00     0.005 A 
ENDBRANCH  14  16
ENDBRANCH   1  13
BRANCH   2  22
ATOM     22  C   UNL d   1     -51.305  26.310  33.393  0.00  0.00     0.087 A 
ATOM     23  N   UNL d   1     -51.655  27.051  33.307  0.00  0.00    -0.244 NA
ATOM     24  C   UNL d   1     -51.181  27.738  33.307  0.00  0.00     0.099 A 
ATOM     25  C   UNL d   1     -50.354  27.664  33.395  0.00  0.00     0.021 A 
ATOM     26  C   UNL d   1     -50.012  26.923  33.480  0.00  0.00     0.003 A 
ATOM     27  C   UNL d   1     -50.485  26.246  33.479  0.00  0.00     0.019 A 
ENDBRANCH   2  22
TORSDOF 3
ENDMDL
