MODEL 1
REMARK VINA RESULT:      -2.3      0.000      0.000
REMARK  6 active torsions:
REMARK  status: ('A' for Active; 'I' for Inactive)
REMARK    1  A    between atoms: S_7  and  C_1 
REMARK       I    between atoms: C_6  and  N_9 
REMARK    2  A    between atoms: C_13  and  C_6 
REMARK    3  A    between atoms: C_15  and  S_7 
REMARK    4  A    between atoms: N_9  and  C_16 
REMARK    5  A    between atoms: O_14  and  C_13 
REMARK    6  A    between atoms: C_16  and  C_15 
ROOT
ATOM      1  C   UNL d   1      32.899  21.386 -21.620  0.00  0.00     0.049 A 
ATOM      2  N   UNL d   1      32.374  22.038 -20.582  0.00  0.00    -0.245 NA
ATOM      3  C   UNL d   1      32.698  21.323 -20.822  0.00  0.00     0.087 A 
ATOM      4  C   UNL d   1      32.701  22.138 -21.878  0.00  0.00     0.025 A 
ATOM      5  C   UNL d   1      32.373  22.547 -21.234  0.00  0.00     0.082 A 
ATOM      6  C   UNL d   1      32.807  20.654 -20.352  0.00  0.00     0.021 C 
ATOM      7  C   UNL d   1      32.770  22.510 -22.605  0.00  0.00     0.002 A 
ATOM      8  C   UNL d   1      32.118  23.326 -21.323  0.00  0.00     0.019 A 
ATOM      9  C   UNL d   1      32.515  23.289 -22.695  0.00  0.00     0.000 A 
ATOM     10  C   UNL d   1      32.192  23.692 -22.058  0.00  0.00     0.002 A 
ENDROOT
BRANCH   1  11
ATOM     11  S   UNL d   1      33.241  20.793 -22.083  0.00  0.00    -0.083 SA
BRANCH  11  12
ATOM     12  C   UNL d   1      32.841  20.069 -22.183  0.00  0.00     0.056 C 
BRANCH  12  13
ATOM     13  C   UNL d   1      33.060  19.565 -22.800  0.00  0.00     0.109 C 
BRANCH  13  14
ATOM     14  N   UNL d   1      32.735  18.818 -22.837  0.00  0.00    -0.204 NA
ATOM     15  C   UNL d   1      32.672  18.438 -23.563  0.00  0.00     0.304 C 
ATOM     16  O   UNL d   1      32.936  18.809 -24.253  0.00  0.00    -0.263 OA
BRANCH  15  17
ATOM     17  C   UNL d   1      32.339  17.673 -23.601  0.00  0.00     0.179 C 
BRANCH  17  18
ATOM     18  O   UNL d   1      32.104  17.371 -24.334  0.00  0.00    -0.322 OA
ATOM     19  C   UNL d   1      31.916  16.567 -24.412  0.00  0.00     0.182 C 
ENDBRANCH  17  18
ENDBRANCH  15  17
ENDBRANCH  13  14
ENDBRANCH  12  13
ENDBRANCH  11  12
ENDBRANCH   1  11
TORSDOF 6
ENDMDL
MODEL 2
REMARK VINA RESULT:      -2.3      1.983      3.070
REMARK  6 active torsions:
REMARK  status: ('A' for Active; 'I' for Inactive)
REMARK    1  A    between atoms: S_7  and  C_1 
REMARK       I    between atoms: C_6  and  N_9 
REMARK    2  A    between atoms: C_13  and  C_6 
REMARK    3  A    between atoms: C_15  and  S_7 
REMARK    4  A    between atoms: N_9  and  C_16 
REMARK    5  A    between atoms: O_14  and  C_13 
REMARK    6  A    between atoms: C_16  and  C_15 
ROOT
ATOM      1  C   UNL d   1      33.140  19.193 -23.334  0.00  0.00     0.049 A 
ATOM      2  N   UNL d   1      33.237  20.427 -23.830  0.00  0.00    -0.245 NA
ATOM      3  C   UNL d   1      33.192  19.632 -24.030  0.00  0.00     0.087 A 
ATOM      4  C   UNL d   1      33.152  19.711 -22.699  0.00  0.00     0.025 A 
ATOM      5  C   UNL d   1      33.213  20.482 -23.005  0.00  0.00     0.082 A 
ATOM      6  C   UNL d   1      33.198  19.321 -24.794  0.00  0.00     0.021 C 
ATOM      7  C   UNL d   1      33.116  19.595 -21.889  0.00  0.00     0.002 A 
ATOM      8  C   UNL d   1      33.237  21.129 -22.494  0.00  0.00     0.019 A 
ATOM      9  C   UNL d   1      33.141  20.243 -21.378  0.00  0.00     0.000 A 
ATOM     10  C   UNL d   1      33.201  21.002 -21.681  0.00  0.00     0.002 A 
ENDROOT
BRANCH   1  11
ATOM     11  S   UNL d   1      33.084  18.370 -23.282  0.00  0.00    -0.083 SA
BRANCH  11  12
ATOM     12  C   UNL d   1      32.349  18.001 -23.411  0.00  0.00     0.056 C 
BRANCH  12  13
ATOM     13  C   UNL d   1      32.288  17.179 -23.340  0.00  0.00     0.109 C 
BRANCH  13  14
ATOM     14  N   UNL d   1      31.569  16.820 -23.477  0.00  0.00    -0.204 NA
ATOM     15  C   UNL d   1      31.474  16.021 -23.308  0.00  0.00     0.304 C 
ATOM     16  O   UNL d   1      32.105  15.583 -23.002  0.00  0.00    -0.263 OA
BRANCH  15  17
ATOM     17  C   UNL d   1      30.738  15.654 -23.448  0.00  0.00     0.179 C 
BRANCH  17  18
ATOM     18  O   UNL d   1      30.186  15.610 -22.834  0.00  0.00    -0.322 OA
ATOM     19  C   UNL d   1      29.389  15.453 -23.002  0.00  0.00     0.182 C 
ENDBRANCH  17  18
ENDBRANCH  15  17
ENDBRANCH  13  14
ENDBRANCH  12  13
ENDBRANCH  11  12
ENDBRANCH   1  11
TORSDOF 6
ENDMDL
MODEL 3
REMARK VINA RESULT:       0.6      1.975      5.134
REMARK  6 active torsions:
REMARK  status: ('A' for Active; 'I' for Inactive)
REMARK    1  A    between atoms: S_7  and  C_1 
REMARK       I    between atoms: C_6  and  N_9 
REMARK    2  A    between atoms: C_13  and  C_6 
REMARK    3  A    between atoms: C_15  and  S_7 
REMARK    4  A    between atoms: N_9  and  C_16 
REMARK    5  A    between atoms: O_14  and  C_13 
REMARK    6  A    between atoms: C_16  and  C_15 
ROOT
ATOM      1  C   UNL d   1      32.771  18.322 -23.834  0.00  0.00     0.049 A 
ATOM      2  N   UNL d   1      32.410  18.056 -25.090  0.00  0.00    -0.245 NA
ATOM      3  C   UNL d   1      32.808  18.593 -24.613  0.00  0.00     0.087 A 
ATOM      4  C   UNL d   1      32.352  17.618 -23.824  0.00  0.00     0.025 A 
ATOM      5  C   UNL d   1      32.125  17.449 -24.605  0.00  0.00     0.082 A 
ATOM      6  C   UNL d   1      33.181  19.284 -24.863  0.00  0.00     0.021 C 
ATOM      7  C   UNL d   1      32.143  17.107 -23.219  0.00  0.00     0.002 A 
ATOM      8  C   UNL d   1      31.691  16.768 -24.773  0.00  0.00     0.019 A 
ATOM      9  C   UNL d   1      31.709  16.426 -23.386  0.00  0.00     0.000 A 
ATOM     10  C   UNL d   1      31.486  16.260 -24.158  0.00  0.00     0.002 A 
ENDROOT
BRANCH   1  11
ATOM     11  S   UNL d   1      33.101  18.695 -23.174  0.00  0.00    -0.083 SA
BRANCH  11  12
ATOM     12  C   UNL d   1      32.721  19.361 -22.849  0.00  0.00     0.056 C 
BRANCH  12  13
ATOM     13  C   UNL d   1      33.011  19.694 -22.150  0.00  0.00     0.109 C 
BRANCH  13  14
ATOM     14  N   UNL d   1      32.819  20.464 -21.966  0.00  0.00    -0.204 NA
ATOM     15  C   UNL d   1      32.933  20.741 -21.201  0.00  0.00     0.304 C 
ATOM     16  O   UNL d   1      33.241  20.241 -20.619  0.00  0.00    -0.263 OA
BRANCH  15  17
ATOM     17  C   UNL d   1      32.736  21.531 -21.013  0.00  0.00     0.179 C 
BRANCH  17  18
ATOM     18  O   UNL d   1      32.770  21.778 -20.225  0.00  0.00    -0.322 OA
ATOM     19  C   UNL d   1      32.604  22.567 -20.030  0.00  0.00     0.182 C 
ENDBRANCH  17  18
ENDBRANCH  15  17
ENDBRANCH  13  14
ENDBRANCH  12  13
ENDBRANCH  11  12
ENDBRANCH   1  11
TORSDOF 6
ENDMDL
