MODEL 1
REMARK VINA RESULT:      12.1      0.000      0.000
REMARK  4 active torsions:
REMARK  status: ('A' for Active; 'I' for Inactive)
REMARK    1  A    between atoms: N_9  and  C_1 
REMARK    2  A    between atoms: C_5  and  O_12 
REMARK    3  A    between atoms: C_13  and  N_9 
REMARK    4  A    between atoms: O_12  and  C_17 
ROOT
ATOM      1  C   UNL d   1      45.884 -16.619  44.945  0.00  0.00     0.083 A 
ATOM      2  C   UNL d   1      45.354 -15.053  44.927  0.00  0.00     0.102 A 
ATOM      3  C   UNL d   1      45.066 -16.459  44.955  0.00  0.00     0.021 A 
ATOM      4  C   UNL d   1      46.432 -16.004  44.926  0.00  0.00     0.021 A 
ATOM      5  C   UNL d   1      44.804 -15.677  44.946  0.00  0.00     0.026 A 
ATOM      6  C   UNL d   1      46.163 -15.220  44.918  0.00  0.00     0.026 A 
ENDROOT
BRANCH   1   7
ATOM      7  N   UNL d   1      46.144 -17.408  44.954  0.00  0.00    -0.227 NA
BRANCH   7   8
ATOM      8  C   UNL d   1      46.238 -17.817  44.242  0.00  0.00     0.169 A 
ATOM      9  C   UNL d   1      46.330 -18.593  44.246  0.00  0.00     0.094 A 
ATOM     10  C   UNL d   1      46.420 -18.976  43.563  0.00  0.00     0.190 A 
ATOM     11  C   UNL d   1      46.426 -19.774  44.922  0.00  0.00     0.128 A 
ATOM     12  N   UNL d   1      46.512 -19.757  43.574  0.00  0.00    -0.128 NA
ATOM     13  N   UNL d   1      46.418 -18.594  42.892  0.00  0.00    -0.203 NA
ATOM     14  N   UNL d   1      46.516 -20.157  44.240  0.00  0.00    -0.145 NA
ATOM     15  C   UNL d   1      46.326 -17.813  42.881  0.00  0.00     0.202 A 
ATOM     16  N   UNL d   1      46.236 -17.422  43.560  0.00  0.00    -0.205 NA
ENDBRANCH   7   8
ENDBRANCH   1   7
BRANCH   2  17
ATOM     17  O   UNL d   1      45.093 -14.272  44.919  0.00  0.00    -0.253 OA
BRANCH  17  18
ATOM     18  C   UNL d   1      45.210 -13.811  44.244  0.00  0.00     0.530 C 
ATOM     19  F   UNL d   1      44.668 -13.836  43.618  0.00  0.00    -0.144 F 
ATOM     20  F   UNL d   1      45.873 -13.323  44.195  0.00  0.00    -0.144 F 
ATOM     21  F   UNL d   1      45.395 -13.110  43.224  0.00  0.00    -0.144 F 
ENDBRANCH  17  18
ENDBRANCH   2  17
TORSDOF 4
ENDMDL
