MODEL 1
REMARK VINA RESULT:      64.2      0.000      0.000
REMARK  5 active torsions:
REMARK  status: ('A' for Active; 'I' for Inactive)
REMARK    1  A    between atoms: C_10  and  C_4 
REMARK    2  A    between atoms: N_11  and  C_7 
REMARK    3  A    between atoms: C_13  and  N_11 
REMARK    4  A    between atoms: C_15  and  C_13 
REMARK    5  A    between atoms: O_25  and  C_17 
ROOT
ATOM      1  C   UNL d   1     -54.726-101.434 -42.988  0.00  0.00     0.186 A 
ATOM      2  N   UNL d   1     -54.731-101.902 -43.684  0.00  0.00    -0.193 N 
ATOM      3  N   UNL d   1     -54.721-100.608 -43.056  0.00  0.00    -0.206 NA
ATOM      4  C   UNL d   1     -54.726-101.951 -42.340  0.00  0.00     0.140 A 
ATOM      5  N   UNL d   1     -54.735-102.701 -43.455  0.00  0.00    -0.058 NA
ATOM      6  N   UNL d   1     -54.732-102.726 -42.626  0.00  0.00    -0.127 NA
ATOM      7  C   UNL d   1     -54.722-100.243 -43.794  0.00  0.00     0.166 A 
ATOM      8  C   UNL d   1     -54.727-100.715 -44.477  0.00  0.00     0.054 A 
ATOM      9  C   UNL d   1     -54.732-101.538 -44.422  0.00  0.00     0.089 A 
ATOM     10  C   UNL d   1     -54.728-100.351 -45.215  0.00  0.00     0.005 A 
ATOM     11  C   UNL d   1     -54.737-101.997 -45.105  0.00  0.00     0.019 A 
ATOM     12  C   UNL d   1     -54.733-100.810 -45.899  0.00  0.00     0.000 A 
ATOM     13  C   UNL d   1     -54.738-101.632 -45.844  0.00  0.00     0.002 A 
ENDROOT
BRANCH   7  14
ATOM     14  N   UNL d   1     -54.718 -99.422 -43.862  0.00  0.00    -0.225 NA
BRANCH  14  15
ATOM     15  C   UNL d   1     -55.263 -99.049 -44.361  0.00  0.00     0.101 C 
BRANCH  15  16
ATOM     16  C   UNL d   1     -56.063 -99.021 -44.163  0.00  0.00     0.019 A 
ATOM     17  C   UNL d   1     -56.291 -98.870 -43.386  0.00  0.00     0.004 A 
ATOM     18  C   UNL d   1     -57.091 -98.843 -43.187  0.00  0.00     0.024 A 
ATOM     19  C   UNL d   1     -57.667 -98.969 -43.777  0.00  0.00     0.094 A 
ATOM     20  C   UNL d   1     -57.427 -99.120 -44.556  0.00  0.00     0.024 A 
ATOM     21  C   UNL d   1     -56.624 -99.145 -44.744  0.00  0.00     0.004 A 
BRANCH  19  22
ATOM     22  O   UNL d   1     -58.468 -98.942 -43.582  0.00  0.00    -0.328 OA
ATOM     23  C   UNL d   1     -58.693 -98.794 -42.800  0.00  0.00     0.181 C 
ENDBRANCH  19  22
ENDBRANCH  15  16
ENDBRANCH  14  15
ENDBRANCH   7  14
BRANCH   4  24
ATOM     24  C   UNL d   1     -54.722-101.722 -41.554  0.00  0.00     0.025 A 
ATOM     25  C   UNL d   1     -54.723-102.297 -40.964  0.00  0.00     0.031 A 
ATOM     26  C   UNL d   1     -54.718-102.072 -40.164  0.00  0.00     0.140 A 
ATOM     27  F   UNL d   1     -54.719-102.647 -39.575  0.00  0.00    -0.204 F 
ATOM     28  C   UNL d   1     -54.713-101.270 -39.967  0.00  0.00     0.030 A 
ATOM     29  C   UNL d   1     -54.712-100.696 -40.570  0.00  0.00     0.002 A 
ATOM     30  C   UNL d   1     -54.716-100.924 -41.357  0.00  0.00     0.002 A 
ENDBRANCH   4  24
TORSDOF 5
ENDMDL
