MODEL 1
REMARK VINA RESULT:      40.6      0.000      0.000
REMARK  2 active torsions:
REMARK  status: ('A' for Active; 'I' for Inactive)
REMARK    1  A    between atoms: N_2  and  S_1 
REMARK    2  A    between atoms: C_3  and  S_1 
ROOT
ATOM      1  S   UNL d   1      58.659  49.415  50.383  0.00  0.00     0.273 S 
ATOM      2  O   UNL d   1      58.607  49.120  51.167  0.00  0.00    -0.200 OA
ATOM      3  O   UNL d   1      58.720  49.708  49.610  0.00  0.00    -0.200 OA
ENDROOT
BRANCH   1   4
ATOM      4  N   UNL d   1      59.493  49.416  50.436  0.00  0.00    -0.231 N 
ATOM      5  C   UNL d   1      59.856  49.517  51.176  0.00  0.00     0.075 A 
ATOM      6  C   UNL d   1      60.668  49.493  51.054  0.00  0.00     0.018 A 
ATOM      7  C   UNL d   1      59.552  49.623  51.916  0.00  0.00     0.018 A 
ATOM      8  C   UNL d   1      61.170  49.576  51.679  0.00  0.00     0.002 A 
ATOM      9  C   UNL d   1      60.809  49.383  50.280  0.00  0.00     0.021 A 
ATOM     10  C   UNL d   1      60.871  49.686  52.445  0.00  0.00     0.000 A 
ATOM     11  C   UNL d   1      60.052  49.707  52.544  0.00  0.00     0.002 A 
ATOM     12  C   UNL d   1      60.080  49.334  49.888  0.00  0.00     0.092 A 
ENDBRANCH   1   4
BRANCH   1  13
ATOM     13  C   UNL d   1      57.836  49.412  50.338  0.00  0.00     0.121 A 
ATOM     14  C   UNL d   1      57.369  49.509  51.011  0.00  0.00     0.093 A 
ATOM     15  N   UNL d   1      57.728  49.612  51.749  0.00  0.00    -0.243 NA
ATOM     16  C   UNL d   1      56.542  49.502  50.942  0.00  0.00     0.018 A 
ATOM     17  C   UNL d   1      57.263  49.708  52.419  0.00  0.00     0.099 A 
ATOM     18  C   UNL d   1      56.434  49.702  52.357  0.00  0.00     0.021 A 
ATOM     19  C   UNL d   1      56.077  49.599  51.612  0.00  0.00     0.003 A 
ATOM     20  C   UNL d   1      56.183  49.400  50.204  0.00  0.00     0.002 A 
ATOM     21  C   UNL d   1      56.650  49.303  49.531  0.00  0.00     0.001 A 
ATOM     22  C   UNL d   1      57.472  49.310  49.601  0.00  0.00     0.014 A 
ENDBRANCH   1  13
TORSDOF 2
ENDMDL
