MODEL 1
REMARK VINA RESULT:      -5.4      0.000      0.000
REMARK  4 active torsions:
REMARK  status: ('A' for Active; 'I' for Inactive)
REMARK       I    between atoms: C_5  and  N_1 
REMARK    1  A    between atoms: N_3  and  C_8 
REMARK    2  A    between atoms: C_7  and  C_5 
REMARK    3  A    between atoms: C_11  and  C_7 
REMARK    4  A    between atoms: C_15  and  C_11 
ROOT
ATOM      1  N   UNL d   1     -41.538-122.816 -53.162  0.00  0.00    -0.256 N 
ATOM      2  C   UNL d   1     -41.148-123.548 -53.229  0.00  0.00     0.185 A 
ATOM      3  N   UNL d   1     -41.129-123.716 -54.022  0.00  0.00    -0.224 NA
ATOM      4  C   UNL d   1     -41.699-122.400 -52.451  0.00  0.00     0.266 C 
ATOM      5  C   UNL d   1     -41.738-122.571 -53.916  0.00  0.00     0.086 A 
ATOM      6  C   UNL d   1     -41.487-123.125 -54.453  0.00  0.00     0.099 A 
ATOM      7  O   UNL d   1     -42.098-121.664 -52.460  0.00  0.00    -0.267 OA
ATOM      8  C   UNL d   1     -42.132-121.886 -54.176  0.00  0.00     0.019 A 
ATOM      9  C   UNL d   1     -41.616-123.019 -55.251  0.00  0.00     0.021 A 
ATOM     10  C   UNL d   1     -42.272-121.762 -54.989  0.00  0.00     0.002 A 
ATOM     11  C   UNL d   1     -42.007-122.347 -55.553  0.00  0.00     0.002 A 
ENDROOT
BRANCH   4  12
ATOM     12  C   UNL d   1     -41.464-122.714 -51.731  0.00  0.00     0.061 C 
BRANCH  12  13
ATOM     13  C   UNL d   1     -41.742-122.375 -51.032  0.00  0.00     0.005 C 
BRANCH  13  14
ATOM     14  C   UNL d   1     -41.717-122.815 -50.335  0.00  0.00     0.002 A 
ATOM     15  C   UNL d   1     -42.291-122.674 -49.739  0.00  0.00     0.024 A 
ATOM     16  C   UNL d   1     -42.271-123.105 -49.050  0.00  0.00     0.127 A 
ATOM     17  C   UNL d   1     -41.686-123.682 -48.935  0.00  0.00     0.024 A 
ATOM     18  C   UNL d   1     -41.124-123.817 -49.524  0.00  0.00     0.002 A 
ATOM     19  C   UNL d   1     -41.134-123.386 -50.229  0.00  0.00     0.000 A 
BRANCH  16  20
ATOM     20  N   UNL d   1     -42.817-122.994 -48.446  0.00  0.00    -0.114 N 
ATOM     21  O   UNL d   1     -43.209-123.653 -48.115  0.00  0.00    -0.532 OA
ATOM     22  O   UNL d   1     -42.977-122.245 -48.169  0.00  0.00    -0.532 OA
ENDBRANCH  16  20
ENDBRANCH  13  14
ENDBRANCH  12  13
ENDBRANCH   4  12
TORSDOF 4
ENDMDL
MODEL 2
REMARK VINA RESULT:      -3.4      1.450      4.983
REMARK  4 active torsions:
REMARK  status: ('A' for Active; 'I' for Inactive)
REMARK       I    between atoms: C_5  and  N_1 
REMARK    1  A    between atoms: N_3  and  C_8 
REMARK    2  A    between atoms: C_7  and  C_5 
REMARK    3  A    between atoms: C_11  and  C_7 
REMARK    4  A    between atoms: C_15  and  C_11 
ROOT
ATOM      1  N   UNL d   1     -42.346-123.189 -50.243  0.00  0.00    -0.256 N 
ATOM      2  C   UNL d   1     -43.035-123.612 -50.436  0.00  0.00     0.185 A 
ATOM      3  N   UNL d   1     -43.374-123.818 -49.729  0.00  0.00    -0.224 NA
ATOM      4  C   UNL d   1     -41.798-122.855 -50.783  0.00  0.00     0.266 C 
ATOM      5  C   UNL d   1     -42.296-123.155 -49.427  0.00  0.00     0.086 A 
ATOM      6  C   UNL d   1     -42.931-123.543 -49.104  0.00  0.00     0.099 A 
ATOM      7  O   UNL d   1     -41.123-122.440 -50.514  0.00  0.00    -0.267 OA
ATOM      8  C   UNL d   1     -41.726-122.804 -48.934  0.00  0.00     0.019 A 
ATOM      9  C   UNL d   1     -43.019-123.594 -48.294  0.00  0.00     0.021 A 
ATOM     10  C   UNL d   1     -41.801-122.846 -48.104  0.00  0.00     0.002 A 
ATOM     11  C   UNL d   1     -42.470-123.255 -47.766  0.00  0.00     0.002 A 
ENDROOT
BRANCH   4  12
ATOM     12  C   UNL d   1     -41.919-122.932 -51.590  0.00  0.00     0.061 C 
BRANCH  12  13
ATOM     13  C   UNL d   1     -41.355-122.637 -52.114  0.00  0.00     0.005 C 
BRANCH  13  14
ATOM     14  C   UNL d   1     -41.415-122.824 -52.915  0.00  0.00     0.002 A 
ATOM     15  C   UNL d   1     -41.770-122.274 -53.440  0.00  0.00     0.024 A 
ATOM     16  C   UNL d   1     -41.832-122.454 -54.231  0.00  0.00     0.127 A 
ATOM     17  C   UNL d   1     -41.544-123.177 -54.519  0.00  0.00     0.024 A 
ATOM     18  C   UNL d   1     -41.196-123.714 -53.999  0.00  0.00     0.002 A 
ATOM     19  C   UNL d   1     -41.127-123.543 -53.192  0.00  0.00     0.000 A 
BRANCH  16  20
ATOM     20  N   UNL d   1     -42.174-121.939 -54.773  0.00  0.00    -0.114 N 
ATOM     21  O   UNL d   1     -43.006-121.871 -54.811  0.00  0.00    -0.532 OA
ATOM     22  O   UNL d   1     -41.707-121.496 -55.272  0.00  0.00    -0.532 OA
ENDBRANCH  16  20
ENDBRANCH  13  14
ENDBRANCH  12  13
ENDBRANCH   4  12
TORSDOF 4
ENDMDL
