MODEL 1
REMARK VINA RESULT:      27.3      0.000      0.000
REMARK  3 active torsions:
REMARK  status: ('A' for Active; 'I' for Inactive)
REMARK    1  A    between atoms: C_6  and  C_2 
REMARK    2  A    between atoms: C_8  and  C_3 
REMARK    3  A    between atoms: C_7  and  C_6 
ROOT
ATOM      1  N   UNL d   1     -56.105 -99.963 -44.098  0.00  0.00    -0.238 NA
ATOM      2  C   UNL d   1     -55.290 -99.910 -44.200  0.00  0.00     0.113 A 
ATOM      3  C   UNL d   1     -56.468 -99.244 -44.363  0.00  0.00     0.088 A 
ATOM      4  S   UNL d   1     -55.139 -99.165 -44.526  0.00  0.00    -0.066 SA
ATOM      5  C   UNL d   1     -55.827 -98.755 -44.630  0.00  0.00     0.056 A 
ENDROOT
BRANCH   3   6
ATOM      6  C   UNL d   1     -57.273 -99.120 -44.337  0.00  0.00     0.018 A 
ATOM      7  C   UNL d   1     -57.705 -98.943 -45.000  0.00  0.00     0.002 A 
ATOM      8  C   UNL d   1     -58.509 -98.819 -44.973  0.00  0.00     0.011 A 
ATOM      9  C   UNL d   1     -58.903 -98.876 -44.232  0.00  0.00     0.058 A 
ATOM     10  C   UNL d   1     -58.476 -99.055 -43.553  0.00  0.00     0.011 A 
ATOM     11 CL   UNL d   1     -59.719 -98.755 -44.173  0.00  0.00    -0.082 Cl
ATOM     12  C   UNL d   1     -57.658 -99.179 -43.594  0.00  0.00     0.002 A 
ENDBRANCH   3   6
BRANCH   2  13
ATOM     13  C   UNL d   1     -54.722-100.479 -44.018  0.00  0.00     0.058 C 
BRANCH  13  14
ATOM     14  C   UNL d   1     -54.757-101.222 -44.359  0.00  0.00     0.159 C 
ATOM     15  S   UNL d   1     -54.803-101.968 -43.926  0.00  0.00    -0.055 SA
ATOM     16  N   UNL d   1     -54.745-101.216 -45.126  0.00  0.00    -0.136 N 
ENDBRANCH  13  14
ENDBRANCH   2  13
TORSDOF 3
ENDMDL
MODEL 2
REMARK VINA RESULT:      29.8      2.543      3.883
REMARK  3 active torsions:
REMARK  status: ('A' for Active; 'I' for Inactive)
REMARK    1  A    between atoms: C_6  and  C_2 
REMARK    2  A    between atoms: C_8  and  C_3 
REMARK    3  A    between atoms: C_7  and  C_6 
ROOT
ATOM      1  N   UNL d   1     -58.417 -99.085 -44.688  0.00  0.00    -0.238 NA
ATOM      2  C   UNL d   1     -59.166 -98.873 -44.421  0.00  0.00     0.113 A 
ATOM      3  C   UNL d   1     -57.880 -99.100 -44.033  0.00  0.00     0.088 A 
ATOM      4  S   UNL d   1     -59.103 -98.755 -43.605  0.00  0.00    -0.066 SA
ATOM      5  C   UNL d   1     -58.346 -98.886 -43.356  0.00  0.00     0.056 A 
ENDROOT
BRANCH   3   6
ATOM      6  C   UNL d   1     -57.092 -99.291 -44.112  0.00  0.00     0.018 A 
ATOM      7  C   UNL d   1     -56.542 -98.757 -44.376  0.00  0.00     0.002 A 
ATOM      8  C   UNL d   1     -55.755 -98.947 -44.455  0.00  0.00     0.011 A 
ATOM      9  C   UNL d   1     -55.504 -99.725 -44.255  0.00  0.00     0.058 A 
ATOM     10  C   UNL d   1     -56.052-100.275 -43.986  0.00  0.00     0.011 A 
ATOM     11 CL   UNL d   1     -54.711 -99.948 -44.325  0.00  0.00    -0.082 Cl
ATOM     12  C   UNL d   1     -56.850-100.068 -43.910  0.00  0.00     0.002 A 
ENDBRANCH   3   6
BRANCH   2  13
ATOM     13  C   UNL d   1     -59.854 -98.790 -44.868  0.00  0.00     0.058 C 
BRANCH  13  14
ATOM     14  C   UNL d   1     -59.923 -99.159 -45.594  0.00  0.00     0.159 C 
ATOM     15  S   UNL d   1     -59.956 -98.756 -46.358  0.00  0.00    -0.055 SA
ATOM     16  N   UNL d   1     -59.957 -99.925 -45.556  0.00  0.00    -0.136 N 
ENDBRANCH  13  14
ENDBRANCH   2  13
TORSDOF 3
ENDMDL
MODEL 3
REMARK VINA RESULT:      29.8      2.561      3.900
REMARK  3 active torsions:
REMARK  status: ('A' for Active; 'I' for Inactive)
REMARK    1  A    between atoms: C_6  and  C_2 
REMARK    2  A    between atoms: C_8  and  C_3 
REMARK    3  A    between atoms: C_7  and  C_6 
ROOT
ATOM      1  N   UNL d   1     -58.472 -99.336 -43.675  0.00  0.00    -0.238 NA
ATOM      2  C   UNL d   1     -59.227 -99.072 -43.869  0.00  0.00     0.113 A 
ATOM      3  C   UNL d   1     -57.948 -99.190 -44.325  0.00  0.00     0.088 A 
ATOM      4  S   UNL d   1     -59.181 -98.762 -44.634  0.00  0.00    -0.066 SA
ATOM      5  C   UNL d   1     -58.429 -98.824 -44.922  0.00  0.00     0.056 A 
ENDROOT
BRANCH   3   6
ATOM      6  C   UNL d   1     -57.158 -99.388 -44.309  0.00  0.00     0.018 A 
ATOM      7  C   UNL d   1     -56.905-100.146 -44.168  0.00  0.00     0.002 A 
ATOM      8  C   UNL d   1     -56.116-100.343 -44.152  0.00  0.00     0.011 A 
ATOM      9  C   UNL d   1     -55.545 -99.741 -44.286  0.00  0.00     0.058 A 
ATOM     10  C   UNL d   1     -55.789 -98.970 -44.430  0.00  0.00     0.011 A 
ATOM     11 CL   UNL d   1     -54.736 -99.911 -44.276  0.00  0.00    -0.082 Cl
ATOM     12  C   UNL d   1     -56.595 -98.782 -44.443  0.00  0.00     0.002 A 
ENDBRANCH   3   6
BRANCH   2  13
ATOM     13  C   UNL d   1     -59.907 -99.103 -43.403  0.00  0.00     0.058 C 
BRANCH  13  14
ATOM     14  C   UNL d   1     -59.857 -99.312 -42.613  0.00  0.00     0.159 C 
ATOM     15  S   UNL d   1     -59.773 -98.759 -41.955  0.00  0.00    -0.055 SA
ATOM     16  N   UNL d   1     -59.891-100.068 -42.485  0.00  0.00    -0.136 N 
ENDBRANCH  13  14
ENDBRANCH   2  13
TORSDOF 3
ENDMDL
