MODEL 1
REMARK VINA RESULT:      29.0      0.000      0.000
REMARK  7 active torsions:
REMARK  status: ('A' for Active; 'I' for Inactive)
REMARK    1  A    between atoms: N_4  and  C_1 
REMARK    2  A    between atoms: C_9  and  C_2 
REMARK    3  A    between atoms: C_7  and  N_4 
REMARK       I    between atoms: C_10  and  N_8 
REMARK    4  A    between atoms: C_17  and  C_10 
REMARK    5  A    between atoms: C_12  and  C_18 
REMARK    6  A    between atoms: O_20  and  C_12 
REMARK    7  A    between atoms: C_18  and  C_17 
ROOT
ATOM      1  N   UNL d   1      13.715  12.820  -2.486  0.00  0.00    -0.211 NA
ENDROOT
BRANCH   1   2
ATOM      2  C   UNL d   1      13.604  12.947  -3.313  0.00  0.00     0.118 A 
ATOM      3  C   UNL d   1      13.665  13.690  -3.712  0.00  0.00     0.084 A 
ATOM      4  C   UNL d   1      13.514  13.557  -4.512  0.00  0.00     0.013 A 
ATOM      5  C   UNL d   1      13.516  14.154  -5.127  0.00  0.00     0.001 C 
ATOM      6  C   UNL d   1      13.363  12.772  -4.625  0.00  0.00     0.031 A 
ATOM      7  S   UNL d   1      13.415  12.387  -3.897  0.00  0.00    -0.068 SA
ATOM      8  C   UNL d   1      13.181  12.417  -5.381  0.00  0.00     0.007 C 
BRANCH   3   9
ATOM      9  C   UNL d   1      13.850  14.439  -3.350  0.00  0.00     0.299 C 
ATOM     10  O   UNL d   1      14.652  14.638  -3.179  0.00  0.00    -0.264 OA
ATOM     11  N   UNL d   1      13.229  14.997  -3.156  0.00  0.00    -0.102 N 
ENDBRANCH   3   9
ENDBRANCH   1   2
BRANCH   1  12
ATOM     12  C   UNL d   1      13.380  12.181  -2.136  0.00  0.00     0.224 C 
ATOM     13  N   UNL d   1      13.799  11.817  -1.075  0.00  0.00    -0.179 NA
ATOM     14  C   UNL d   1      14.410  12.219  -0.730  0.00  0.00     0.281 C 
ATOM     15  O   UNL d   1      14.692  11.974  -0.016  0.00  0.00    -0.265 OA
ATOM     16  S   UNL d   1      12.769  11.783  -2.486  0.00  0.00    -0.037 SA
BRANCH  14  17
ATOM     17  C   UNL d   1      14.735  12.854  -1.089  0.00  0.00     0.068 C 
BRANCH  17  18
ATOM     18  C   UNL d   1      15.435  13.144  -0.800  0.00  0.00     0.073 C 
BRANCH  18  19
ATOM     19  C   UNL d   1      15.405  13.807  -0.326  0.00  0.00     0.296 C 
ATOM     20  O   UNL d   1      14.722  14.046  -0.030  0.00  0.00    -0.259 OA
BRANCH  19  21
ATOM     21  O   UNL d   1      16.086  14.215  -0.164  0.00  0.00    -0.296 OA
ATOM     22  C   UNL d   1      16.055  15.029  -0.086  0.00  0.00     0.185 C 
ENDBRANCH  19  21
ENDBRANCH  18  19
ENDBRANCH  17  18
ENDBRANCH  14  17
ENDBRANCH   1  12
TORSDOF 7
ENDMDL
MODEL 2
REMARK VINA RESULT:      29.6      1.564      3.532
REMARK  7 active torsions:
REMARK  status: ('A' for Active; 'I' for Inactive)
REMARK    1  A    between atoms: N_4  and  C_1 
REMARK    2  A    between atoms: C_9  and  C_2 
REMARK    3  A    between atoms: C_7  and  N_4 
REMARK       I    between atoms: C_10  and  N_8 
REMARK    4  A    between atoms: C_17  and  C_10 
REMARK    5  A    between atoms: C_12  and  C_18 
REMARK    6  A    between atoms: O_20  and  C_12 
REMARK    7  A    between atoms: C_18  and  C_17 
ROOT
ATOM      1  N   UNL d   1      13.814  12.937  -2.640  0.00  0.00    -0.211 NA
ENDROOT
BRANCH   1   2
ATOM      2  C   UNL d   1      13.811  12.605  -1.864  0.00  0.00     0.118 A 
ATOM      3  C   UNL d   1      14.495  12.441  -1.394  0.00  0.00     0.084 A 
ATOM      4  C   UNL d   1      14.236  12.122  -0.679  0.00  0.00     0.013 A 
ATOM      5  C   UNL d   1      14.738  11.872  -0.032  0.00  0.00     0.001 C 
ATOM      6  C   UNL d   1      13.430  12.081  -0.685  0.00  0.00     0.031 A 
ATOM      7  S   UNL d   1      13.157  12.375  -1.407  0.00  0.00    -0.068 SA
ATOM      8  C   UNL d   1      12.954  11.781  -0.042  0.00  0.00     0.007 C 
BRANCH   3   9
ATOM      9  C   UNL d   1      15.304  12.582  -1.621  0.00  0.00     0.299 C 
ATOM     10  O   UNL d   1      15.685  12.062  -2.167  0.00  0.00    -0.264 OA
ATOM     11  N   UNL d   1      15.739  13.246  -1.302  0.00  0.00    -0.102 N 
ENDBRANCH   3   9
ENDBRANCH   1   2
BRANCH   1  12
ATOM     12  C   UNL d   1      13.409  12.570  -3.228  0.00  0.00     0.224 C 
ATOM     13  N   UNL d   1      13.063  13.211  -4.178  0.00  0.00    -0.179 NA
ATOM     14  C   UNL d   1      13.240  13.999  -4.213  0.00  0.00     0.281 C 
ATOM     15  O   UNL d   1      13.007  14.430  -4.853  0.00  0.00    -0.265 OA
ATOM     16  S   UNL d   1      13.234  11.781  -3.188  0.00  0.00    -0.037 SA
BRANCH  14  17
ATOM     17  C   UNL d   1      13.643  14.352  -3.621  0.00  0.00     0.068 C 
BRANCH  17  18
ATOM     18  C   UNL d   1      13.696  15.162  -3.619  0.00  0.00     0.073 C 
BRANCH  18  19
ATOM     19  C   UNL d   1      14.316  15.501  -3.213  0.00  0.00     0.296 C 
ATOM     20  O   UNL d   1      15.025  15.541  -3.541  0.00  0.00    -0.259 OA
BRANCH  19  21
ATOM     21  O   UNL d   1      14.193  15.796  -2.468  0.00  0.00    -0.296 OA
ATOM     22  C   UNL d   1      14.812  16.158  -2.074  0.00  0.00     0.185 C 
ENDBRANCH  19  21
ENDBRANCH  18  19
ENDBRANCH  17  18
ENDBRANCH  14  17
ENDBRANCH   1  12
TORSDOF 7
ENDMDL
