MODEL 1
REMARK VINA RESULT:      78.5      0.000      0.000
REMARK  6 active torsions:
REMARK  status: ('A' for Active; 'I' for Inactive)
REMARK    1  A    between atoms: S_9  and  C_3 
REMARK    2  A    between atoms: C_11  and  C_4 
REMARK    3  A    between atoms: C_20  and  S_9 
REMARK    4  A    between atoms: C_12  and  C_20 
REMARK       I    between atoms: N_17  and  C_12 
REMARK    5  A    between atoms: C_25  and  N_17 
REMARK    6  A    between atoms: C_24  and  C_25 
ROOT
ATOM      1  N   UNL d   1     -58.332 -99.006 -44.861  0.00  0.00    -0.263 N 
ATOM      2  C   UNL d   1     -58.945 -99.063 -45.407  0.00  0.00     0.202 A 
ATOM      3  C   UNL d   1     -57.622 -98.990 -45.278  0.00  0.00     0.202 A 
ATOM      4  C   UNL d   1     -58.667 -98.987 -44.108  0.00  0.00     0.074 A 
ATOM      5  N   UNL d   1     -58.624 -99.083 -46.157  0.00  0.00    -0.121 NA
ATOM      6  N   UNL d   1     -57.802 -99.038 -46.089  0.00  0.00    -0.121 NA
ATOM      7  S   UNL d   1     -59.658 -99.080 -44.992  0.00  0.00    -0.046 SA
ATOM      8  C   UNL d   1     -59.491 -99.033 -44.194  0.00  0.00     0.056 A 
ENDROOT
BRANCH   3   9
ATOM      9  S   UNL d   1     -56.902 -98.934 -44.879  0.00  0.00    -0.043 SA
BRANCH   9  10
ATOM     10  C   UNL d   1     -56.207 -98.756 -45.291  0.00  0.00     0.101 C 
BRANCH  10  11
ATOM     11  C   UNL d   1     -55.499 -99.114 -45.074  0.00  0.00     0.286 C 
ATOM     12  N   UNL d   1     -55.510 -99.824 -44.640  0.00  0.00    -0.206 NA
ATOM     13  O   UNL d   1     -54.781 -98.771 -45.288  0.00  0.00    -0.265 OA
BRANCH  12  14
ATOM     14  C   UNL d   1     -54.798-100.187 -44.421  0.00  0.00     0.102 C 
BRANCH  14  15
ATOM     15  C   UNL d   1     -54.809-100.875 -43.951  0.00  0.00     0.021 A 
ATOM     16  C   UNL d   1     -54.747-100.835 -43.126  0.00  0.00     0.028 A 
ATOM     17  C   UNL d   1     -54.760-101.522 -42.683  0.00  0.00     0.119 A 
ATOM     18  O   UNL d   1     -54.712-101.661 -41.879  0.00  0.00    -0.300 OA
ATOM     19  C   UNL d   1     -54.834-102.249 -43.056  0.00  0.00     0.119 A 
ATOM     20  C   UNL d   1     -54.753-102.450 -41.743  0.00  0.00     0.304 A 
ATOM     21  O   UNL d   1     -54.830-102.827 -42.478  0.00  0.00    -0.300 OA
ATOM     22  C   UNL d   1     -54.894-102.284 -43.871  0.00  0.00     0.026 A 
ATOM     23  C   UNL d   1     -54.881-101.585 -44.318  0.00  0.00     0.004 A 
ENDBRANCH  14  15
ENDBRANCH  12  14
ENDBRANCH  10  11
ENDBRANCH   9  10
ENDBRANCH   3   9
BRANCH   4  24
ATOM     24  C   UNL d   1     -58.293 -98.932 -43.374  0.00  0.00     0.017 A 
ATOM     25  C   UNL d   1     -57.479 -98.996 -43.318  0.00  0.00     0.002 A 
ATOM     26  C   UNL d   1     -57.105 -98.943 -42.592  0.00  0.00     0.011 A 
ATOM     27  C   UNL d   1     -57.560 -98.823 -41.906  0.00  0.00     0.058 A 
ATOM     28  C   UNL d   1     -58.383 -98.758 -41.960  0.00  0.00     0.011 A 
ATOM     29 CL   UNL d   1     -57.194 -98.767 -41.166  0.00  0.00    -0.082 Cl
ATOM     30  C   UNL d   1     -58.750 -98.813 -42.696  0.00  0.00     0.002 A 
ENDBRANCH   4  24
TORSDOF 6
ENDMDL
