MODEL 1
REMARK VINA RESULT:      -2.3      0.000      0.000
REMARK  5 active torsions:
REMARK  status: ('A' for Active; 'I' for Inactive)
REMARK    1  A    between atoms: C_11  and  N_2 
REMARK    2  A    between atoms: C_6  and  O_13 
REMARK    3  A    between atoms: C_12  and  C_7 
REMARK    4  A    between atoms: C_16  and  C_11 
REMARK    5  A    between atoms: O_13  and  C_16 
ROOT
ATOM      1  C   UNL d   1     -41.771-122.697 -50.884  0.00  0.00     0.142 C 
ENDROOT
BRANCH   1   2
ATOM      2  O   UNL d   1     -41.672-122.924 -50.100  0.00  0.00    -0.304 OA
BRANCH   2   3
ATOM      3  C   UNL d   1     -42.326-123.181 -49.667  0.00  0.00     0.100 A 
ATOM      4  C   UNL d   1     -42.264-123.294 -48.855  0.00  0.00     0.023 A 
ATOM      5  C   UNL d   1     -42.908-123.549 -48.417  0.00  0.00     0.002 A 
ATOM      6  C   UNL d   1     -43.633-123.694 -48.802  0.00  0.00     0.000 A 
ATOM      7  C   UNL d   1     -43.697-123.580 -49.618  0.00  0.00     0.002 A 
ATOM      8  C   UNL d   1     -43.044-123.323 -50.050  0.00  0.00     0.025 A 
ATOM      9  C   UNL d   1     -44.413-123.723 -49.998  0.00  0.00     0.000 C 
BRANCH   4  10
ATOM     10  C   UNL d   1     -41.544-123.151 -48.476  0.00  0.00     0.002 C 
ATOM     11  C   UNL d   1     -41.238-122.385 -48.436  0.00  0.00     0.000 C 
ATOM     12  C   UNL d   1     -41.124-123.772 -48.133  0.00  0.00     0.000 C 
ENDBRANCH   4  10
ENDBRANCH   2   3
ENDBRANCH   1   2
BRANCH   1  13
ATOM     13  C   UNL d   1     -41.123-122.715 -51.395  0.00  0.00     0.112 C 
BRANCH  13  14
ATOM     14  N   UNL d   1     -41.215-122.482 -52.177  0.00  0.00    -0.249 N 
ATOM     15  C   UNL d   1     -41.219-121.657 -52.290  0.00  0.00     0.378 A 
ATOM     16  O   UNL d   1     -41.314-121.499 -53.098  0.00  0.00    -0.258 OA
ATOM     17  O   UNL d   1     -41.141-121.096 -51.691  0.00  0.00    -0.237 OA
ATOM     18  C   UNL d   1     -41.370-122.233 -53.494  0.00  0.00     0.121 A 
ATOM     19  C   UNL d   1     -41.467-122.430 -54.290  0.00  0.00     0.026 A 
ATOM     20  C   UNL d   1     -41.308-122.835 -52.922  0.00  0.00     0.092 A 
ATOM     21  C   UNL d   1     -41.503-123.219 -54.518  0.00  0.00     0.002 A 
ATOM     22  C   UNL d   1     -41.442-123.816 -53.951  0.00  0.00     0.002 A 
ATOM     23  C   UNL d   1     -41.344-123.628 -53.151  0.00  0.00     0.020 A 
ENDBRANCH  13  14
ENDBRANCH   1  13
TORSDOF 5
ENDMDL
