MODEL 1
REMARK VINA RESULT:      -9.5      0.000      0.000
REMARK  4 active torsions:
REMARK  status: ('A' for Active; 'I' for Inactive)
REMARK    1  A    between atoms: C_14  and  N_1 
REMARK    2  A    between atoms: S_12  and  C_2 
REMARK       I    between atoms: N_7  and  C_10 
REMARK    3  A    between atoms: C_10  and  C_16 
REMARK    4  A    between atoms: C_16  and  S_12 
ROOT
ATOM      1  N   UNL d   1      52.691  33.518  53.541  0.00  0.00    -0.254 N 
ATOM      2  C   UNL d   1      51.955  33.388  53.191  0.00  0.00     0.183 A 
ATOM      3  N   UNL d   1      51.783  32.652  52.863  0.00  0.00    -0.201 NA
ATOM      4  C   UNL d   1      53.258  32.910  53.562  0.00  0.00     0.271 A 
ATOM      5  C   UNL d   1      53.079  32.174  53.230  0.00  0.00     0.115 A 
ATOM      6  C   UNL d   1      52.338  32.046  52.880  0.00  0.00     0.192 A 
ATOM      7  N   UNL d   1      53.042  30.920  52.776  0.00  0.00    -0.145 NA
ATOM      8  N   UNL d   1      52.321  31.265  52.600  0.00  0.00    -0.128 NA
ATOM      9  C   UNL d   1      53.516  31.468  53.164  0.00  0.00     0.130 A 
ATOM     10  O   UNL d   1      54.002  33.045  53.916  0.00  0.00    -0.266 OA
ENDROOT
BRANCH   2  11
ATOM     11  S   UNL d   1      51.400  33.989  53.172  0.00  0.00    -0.044 SA
BRANCH  11  12
ATOM     12  C   UNL d   1      50.748  33.942  52.652  0.00  0.00     0.099 C 
BRANCH  12  13
ATOM     13  C   UNL d   1      50.093  34.430  52.765  0.00  0.00     0.271 C 
ATOM     14  N   UNL d   1      49.563  34.561  52.149  0.00  0.00    -0.273 N 
ATOM     15  C   UNL d   1      48.912  35.046  52.260  0.00  0.00     0.067 A 
ATOM     16  C   UNL d   1      49.693  34.198  51.420  0.00  0.00     0.083 A 
ATOM     17  C   UNL d   1      48.381  35.175  51.641  0.00  0.00     0.016 A 
ATOM     18  C   UNL d   1      48.785  35.406  52.991  0.00  0.00     0.018 A 
ATOM     19  C   UNL d   1      47.730  35.663  51.759  0.00  0.00     0.001 A 
ATOM     20  C   UNL d   1      48.500  34.821  50.915  0.00  0.00     0.003 A 
ATOM     21  C   UNL d   1      47.599  36.026  52.488  0.00  0.00     0.000 A 
ATOM     22  C   UNL d   1      48.131  35.895  53.104  0.00  0.00     0.002 A 
ATOM     23  C   UNL d   1      49.162  34.326  50.798  0.00  0.00     0.019 A 
ATOM     24  O   UNL d   1      49.973  34.787  53.498  0.00  0.00    -0.266 OA
ENDBRANCH  12  13
ENDBRANCH  11  12
ENDBRANCH   2  11
BRANCH   1  25
ATOM     25  C   UNL d   1      52.870  34.259  53.874  0.00  0.00     0.069 A 
ATOM     26  C   UNL d   1      52.778  34.374  54.685  0.00  0.00     0.018 A 
ATOM     27  C   UNL d   1      52.956  35.111  55.019  0.00  0.00     0.002 A 
ATOM     28  C   UNL d   1      53.225  35.727  54.537  0.00  0.00     0.000 A 
ATOM     29  C   UNL d   1      53.315  35.604  53.726  0.00  0.00     0.002 A 
ATOM     30  C   UNL d   1      53.137  34.868  53.396  0.00  0.00     0.018 A 
ENDBRANCH   1  25
TORSDOF 4
ENDMDL
MODEL 2
REMARK VINA RESULT:      -8.7      1.210      2.806
REMARK  4 active torsions:
REMARK  status: ('A' for Active; 'I' for Inactive)
REMARK    1  A    between atoms: C_14  and  N_1 
REMARK    2  A    between atoms: S_12  and  C_2 
REMARK       I    between atoms: N_7  and  C_10 
REMARK    3  A    between atoms: C_10  and  C_16 
REMARK    4  A    between atoms: C_16  and  S_12 
ROOT
ATOM      1  N   UNL d   1      53.242  32.648  53.825  0.00  0.00    -0.254 N 
ATOM      2  C   UNL d   1      52.840  33.349  53.659  0.00  0.00     0.183 A 
ATOM      3  N   UNL d   1      53.084  34.053  54.010  0.00  0.00    -0.201 NA
ATOM      4  C   UNL d   1      53.892  32.650  54.344  0.00  0.00     0.271 A 
ATOM      5  C   UNL d   1      54.133  33.361  54.693  0.00  0.00     0.115 A 
ATOM      6  C   UNL d   1      53.726  34.064  54.524  0.00  0.00     0.192 A 
ATOM      7  N   UNL d   1      54.711  34.352  55.373  0.00  0.00    -0.145 NA
ATOM      8  N   UNL d   1      54.090  34.676  54.949  0.00  0.00    -0.128 NA
ATOM      9  C   UNL d   1      54.748  33.544  55.223  0.00  0.00     0.130 A 
ATOM     10  O   UNL d   1      54.297  31.939  54.509  0.00  0.00    -0.266 OA
ENDROOT
BRANCH   2  11
ATOM     11  S   UNL d   1      52.201  33.342  53.148  0.00  0.00    -0.044 SA
BRANCH  11  12
ATOM     12  C   UNL d   1      51.678  33.993  53.121  0.00  0.00     0.099 C 
BRANCH  12  13
ATOM     13  C   UNL d   1      51.130  34.057  52.509  0.00  0.00     0.271 C 
ATOM     14  N   UNL d   1      50.406  34.427  52.638  0.00  0.00    -0.273 N 
ATOM     15  C   UNL d   1      49.860  34.491  52.031  0.00  0.00     0.067 A 
ATOM     16  C   UNL d   1      50.235  34.732  53.386  0.00  0.00     0.083 A 
ATOM     17  C   UNL d   1      49.134  34.863  52.163  0.00  0.00     0.016 A 
ATOM     18  C   UNL d   1      50.035  34.185  51.284  0.00  0.00     0.018 A 
ATOM     19  C   UNL d   1      48.591  34.924  51.548  0.00  0.00     0.001 A 
ATOM     20  C   UNL d   1      48.955  35.168  52.899  0.00  0.00     0.003 A 
ATOM     21  C   UNL d   1      48.761  34.620  50.801  0.00  0.00     0.000 A 
ATOM     22  C   UNL d   1      49.486  34.250  50.672  0.00  0.00     0.002 A 
ATOM     23  C   UNL d   1      49.508  35.104  53.521  0.00  0.00     0.019 A 
ATOM     24  O   UNL d   1      51.311  33.749  51.766  0.00  0.00    -0.266 OA
ENDBRANCH  12  13
ENDBRANCH  11  12
ENDBRANCH   2  11
BRANCH   1  25
ATOM     25  C   UNL d   1      53.000  31.934  53.474  0.00  0.00     0.069 A 
ATOM     26  C   UNL d   1      53.379  31.666  52.792  0.00  0.00     0.018 A 
ATOM     27  C   UNL d   1      53.139  30.955  52.441  0.00  0.00     0.002 A 
ATOM     28  C   UNL d   1      52.521  30.518  52.775  0.00  0.00     0.000 A 
ATOM     29  C   UNL d   1      52.147  30.793  53.457  0.00  0.00     0.002 A 
ATOM     30  C   UNL d   1      52.388  31.503  53.805  0.00  0.00     0.018 A 
ENDBRANCH   1  25
TORSDOF 4
ENDMDL
MODEL 3
REMARK VINA RESULT:      -7.6      1.223      1.535
REMARK  4 active torsions:
REMARK  status: ('A' for Active; 'I' for Inactive)
REMARK    1  A    between atoms: C_14  and  N_1 
REMARK    2  A    between atoms: S_12  and  C_2 
REMARK       I    between atoms: N_7  and  C_10 
REMARK    3  A    between atoms: C_10  and  C_16 
REMARK    4  A    between atoms: C_16  and  S_12 
ROOT
ATOM      1  N   UNL d   1      53.405  32.245  53.762  0.00  0.00    -0.254 N 
ATOM      2  C   UNL d   1      52.678  32.388  53.398  0.00  0.00     0.183 A 
ATOM      3  N   UNL d   1      52.273  31.769  53.035  0.00  0.00    -0.201 NA
ATOM      4  C   UNL d   1      53.729  31.479  53.764  0.00  0.00     0.271 A 
ATOM      5  C   UNL d   1      53.317  30.862  53.398  0.00  0.00     0.115 A 
ATOM      6  C   UNL d   1      52.587  31.009  53.033  0.00  0.00     0.192 A 
ATOM      7  N   UNL d   1      52.864  29.715  52.889  0.00  0.00    -0.145 NA
ATOM      8  N   UNL d   1      52.310  30.293  52.719  0.00  0.00    -0.128 NA
ATOM      9  C   UNL d   1      53.487  30.052  53.306  0.00  0.00     0.130 A 
ATOM     10  O   UNL d   1      54.463  31.337  54.133  0.00  0.00    -0.266 OA
ENDROOT
BRANCH   2  11
ATOM     11  S   UNL d   1      52.364  33.144  53.399  0.00  0.00    -0.044 SA
BRANCH  11  12
ATOM     12  C   UNL d   1      51.779  33.355  52.840  0.00  0.00     0.099 C 
BRANCH  12  13
ATOM     13  C   UNL d   1      51.159  33.852  53.060  0.00  0.00     0.271 C 
ATOM     14  N   UNL d   1      50.608  34.100  52.500  0.00  0.00    -0.273 N 
ATOM     15  C   UNL d   1      49.992  34.593  52.717  0.00  0.00     0.067 A 
ATOM     16  C   UNL d   1      50.685  33.847  51.719  0.00  0.00     0.083 A 
ATOM     17  C   UNL d   1      49.441  34.841  52.153  0.00  0.00     0.016 A 
ATOM     18  C   UNL d   1      49.919  34.844  53.500  0.00  0.00     0.018 A 
ATOM     19  C   UNL d   1      48.823  35.336  52.378  0.00  0.00     0.001 A 
ATOM     20  C   UNL d   1      49.507  34.596  51.377  0.00  0.00     0.003 A 
ATOM     21  C   UNL d   1      48.747  35.589  53.160  0.00  0.00     0.000 A 
ATOM     22  C   UNL d   1      49.298  35.341  53.720  0.00  0.00     0.002 A 
ATOM     23  C   UNL d   1      50.134  34.093  51.152  0.00  0.00     0.019 A 
ATOM     24  O   UNL d   1      51.092  34.098  53.844  0.00  0.00    -0.266 OA
ENDBRANCH  12  13
ENDBRANCH  11  12
ENDBRANCH   2  11
BRANCH   1  25
ATOM     25  C   UNL d   1      53.818  32.866  54.130  0.00  0.00     0.069 A 
ATOM     26  C   UNL d   1      54.330  33.335  53.684  0.00  0.00     0.018 A 
ATOM     27  C   UNL d   1      54.743  33.954  54.048  0.00  0.00     0.002 A 
ATOM     28  C   UNL d   1      54.639  34.099  54.856  0.00  0.00     0.000 A 
ATOM     29  C   UNL d   1      54.125  33.626  55.295  0.00  0.00     0.002 A 
ATOM     30  C   UNL d   1      53.715  33.009  54.929  0.00  0.00     0.018 A 
ENDBRANCH   1  25
TORSDOF 4
ENDMDL
MODEL 4
REMARK VINA RESULT:      -7.1     10.105     11.113
REMARK  4 active torsions:
REMARK  status: ('A' for Active; 'I' for Inactive)
REMARK    1  A    between atoms: C_14  and  N_1 
REMARK    2  A    between atoms: S_12  and  C_2 
REMARK       I    between atoms: N_7  and  C_10 
REMARK    3  A    between atoms: C_10  and  C_16 
REMARK    4  A    between atoms: C_16  and  S_12 
ROOT
ATOM      1  N   UNL d   1      44.845  28.556  57.500  0.00  0.00    -0.254 N 
ATOM      2  C   UNL d   1      44.738  29.103  58.108  0.00  0.00     0.183 A 
ATOM      3  N   UNL d   1      44.627  29.899  57.927  0.00  0.00    -0.201 NA
ATOM      4  C   UNL d   1      44.842  28.805  56.707  0.00  0.00     0.271 A 
ATOM      5  C   UNL d   1      44.729  29.606  56.532  0.00  0.00     0.115 A 
ATOM      6  C   UNL d   1      44.622  30.153  57.145  0.00  0.00     0.192 A 
ATOM      7  N   UNL d   1      44.572  30.815  55.991  0.00  0.00    -0.145 NA
ATOM      8  N   UNL d   1      44.524  30.903  56.803  0.00  0.00    -0.128 NA
ATOM      9  C   UNL d   1      44.697  30.023  55.811  0.00  0.00     0.130 A 
ATOM     10  O   UNL d   1      44.951  28.249  56.094  0.00  0.00    -0.266 OA
ENDROOT
BRANCH   2  11
ATOM     11  S   UNL d   1      44.743  28.853  58.887  0.00  0.00    -0.044 SA
BRANCH  11  12
ATOM     12  C   UNL d   1      44.635  29.405  59.506  0.00  0.00     0.099 C 
BRANCH  12  13
ATOM     13  C   UNL d   1      44.611  29.148  60.289  0.00  0.00     0.271 C 
ATOM     14  N   UNL d   1      44.591  29.695  60.904  0.00  0.00    -0.273 N 
ATOM     15  C   UNL d   1      44.567  29.441  61.682  0.00  0.00     0.067 A 
ATOM     16  C   UNL d   1      44.596  30.501  60.728  0.00  0.00     0.083 A 
ATOM     17  C   UNL d   1      44.547  29.992  62.297  0.00  0.00     0.016 A 
ATOM     18  C   UNL d   1      44.562  28.634  61.854  0.00  0.00     0.018 A 
ATOM     19  C   UNL d   1      44.523  29.731  63.077  0.00  0.00     0.001 A 
ATOM     20  C   UNL d   1      44.552  30.793  62.135  0.00  0.00     0.003 A 
ATOM     21  C   UNL d   1      44.518  28.925  63.253  0.00  0.00     0.000 A 
ATOM     22  C   UNL d   1      44.537  28.377  62.637  0.00  0.00     0.002 A 
ATOM     23  C   UNL d   1      44.577  31.055  61.342  0.00  0.00     0.019 A 
ATOM     24  O   UNL d   1      44.606  28.340  60.453  0.00  0.00    -0.266 OA
ENDBRANCH  12  13
ENDBRANCH  11  12
ENDBRANCH   2  11
BRANCH   1  25
ATOM     25  C   UNL d   1      44.958  27.751  57.677  0.00  0.00     0.069 A 
ATOM     26  C   UNL d   1      45.721  27.467  57.815  0.00  0.00     0.018 A 
ATOM     27  C   UNL d   1      45.835  26.666  57.991  0.00  0.00     0.002 A 
ATOM     28  C   UNL d   1      45.185  26.155  58.028  0.00  0.00     0.000 A 
ATOM     29  C   UNL d   1      44.425  26.447  57.889  0.00  0.00     0.002 A 
ATOM     30  C   UNL d   1      44.315  27.247  57.713  0.00  0.00     0.018 A 
ENDBRANCH   1  25
TORSDOF 4
ENDMDL
