MODEL 1
REMARK VINA RESULT:      -3.5      0.000      0.000
REMARK  7 active torsions:
REMARK  status: ('A' for Active; 'I' for Inactive)
REMARK    1  A    between atoms: C_6  and  C_2 
REMARK    2  A    between atoms: S_7  and  C_4 
REMARK    3  A    between atoms: C_12  and  S_7 
REMARK    4  A    between atoms: C_8  and  C_12 
REMARK    5  A    between atoms: O_16  and  C_8 
REMARK    6  A    between atoms: O_17  and  C_13 
REMARK    7  A    between atoms: C_18  and  O_16 
ROOT
ATOM      1  N   UNL d   1      58.211  -0.387  30.530  0.00  0.00    -0.212 NA
ATOM      2  C   UNL d   1      58.465  -0.443  29.754  0.00  0.00     0.171 A 
ATOM      3  N   UNL d   1      58.186   0.218  29.341  0.00  0.00    -0.188 NA
ATOM      4  C   UNL d   1      57.770   0.307  30.614  0.00  0.00     0.160 A 
ATOM      5  S   UNL d   1      57.756   0.682  29.873  0.00  0.00     0.041 SA
ENDROOT
BRANCH   2   6
ATOM      6  C   UNL d   1      58.922  -1.050  29.428  0.00  0.00     0.037 A 
ATOM      7  C   UNL d   1      58.583  -1.786  29.232  0.00  0.00     0.005 A 
ATOM      8  C   UNL d   1      59.038  -2.382  28.910  0.00  0.00     0.024 A 
ATOM      9  C   UNL d   1      59.840  -2.256  28.779  0.00  0.00     0.094 A 
ATOM     10  C   UNL d   1      60.185  -1.526  28.972  0.00  0.00     0.024 A 
ATOM     11  C   UNL d   1      59.719  -0.934  29.294  0.00  0.00     0.005 A 
BRANCH   9  12
ATOM     12  O   UNL d   1      60.307  -2.851  28.455  0.00  0.00    -0.328 OA
ATOM     13  C   UNL d   1      60.664  -3.402  28.946  0.00  0.00     0.181 C 
ENDBRANCH   9  12
ENDBRANCH   2   6
BRANCH   4  14
ATOM     14  S   UNL d   1      57.407   0.584  31.304  0.00  0.00    -0.054 SA
BRANCH  14  15
ATOM     15  C   UNL d   1      57.006   0.066  31.794  0.00  0.00     0.106 C 
BRANCH  15  16
ATOM     16  C   UNL d   1      56.746   0.308  32.539  0.00  0.00     0.307 C 
ATOM     17  O   UNL d   1      57.300   0.536  33.112  0.00  0.00    -0.258 OA
BRANCH  16  18
ATOM     18  O   UNL d   1      55.938   0.322  32.717  0.00  0.00    -0.271 OA
BRANCH  18  19
ATOM     19  C   UNL d   1      55.678   0.185  33.495  0.00  0.00     0.126 C 
ATOM     20  C   UNL d   1      54.887   0.308  33.694  0.00  0.00     0.029 C 
ENDBRANCH  18  19
ENDBRANCH  16  18
ENDBRANCH  15  16
ENDBRANCH  14  15
ENDBRANCH   4  14
TORSDOF 7
ENDMDL
MODEL 2
REMARK VINA RESULT:      -2.6      1.516      1.930
REMARK  7 active torsions:
REMARK  status: ('A' for Active; 'I' for Inactive)
REMARK    1  A    between atoms: C_6  and  C_2 
REMARK    2  A    between atoms: S_7  and  C_4 
REMARK    3  A    between atoms: C_12  and  S_7 
REMARK    4  A    between atoms: C_8  and  C_12 
REMARK    5  A    between atoms: O_16  and  C_8 
REMARK    6  A    between atoms: O_17  and  C_13 
REMARK    7  A    between atoms: C_18  and  O_16 
ROOT
ATOM      1  N   UNL d   1      57.721   0.161  31.076  0.00  0.00    -0.212 NA
ATOM      2  C   UNL d   1      58.519   0.340  31.048  0.00  0.00     0.171 A 
ATOM      3  N   UNL d   1      58.739   0.664  31.777  0.00  0.00    -0.188 NA
ATOM      4  C   UNL d   1      57.431   0.369  31.821  0.00  0.00     0.160 A 
ATOM      5  S   UNL d   1      58.066   0.682  32.255  0.00  0.00     0.041 SA
ENDROOT
BRANCH   2   6
ATOM      6  C   UNL d   1      59.028   0.221  30.406  0.00  0.00     0.037 A 
ATOM      7  C   UNL d   1      59.777   0.587  30.377  0.00  0.00     0.005 A 
ATOM      8  C   UNL d   1      60.275   0.468  29.742  0.00  0.00     0.024 A 
ATOM      9  C   UNL d   1      60.036  -0.019  29.124  0.00  0.00     0.094 A 
ATOM     10  C   UNL d   1      59.292  -0.387  29.146  0.00  0.00     0.024 A 
ATOM     11  C   UNL d   1      58.800  -0.260  29.788  0.00  0.00     0.005 A 
BRANCH   9  12
ATOM     12  O   UNL d   1      60.532  -0.146  28.480  0.00  0.00    -0.328 OA
ATOM     13  C   UNL d   1      61.021  -0.803  28.464  0.00  0.00     0.181 C 
ENDBRANCH   9  12
ENDBRANCH   2   6
BRANCH   4  14
ATOM     14  S   UNL d   1      56.654   0.286  32.092  0.00  0.00    -0.054 SA
BRANCH  14  15
ATOM     15  C   UNL d   1      56.511   0.078  32.871  0.00  0.00     0.106 C 
BRANCH  15  16
ATOM     16  C   UNL d   1      55.767  -0.195  33.105  0.00  0.00     0.307 C 
ATOM     17  O   UNL d   1      55.554  -0.982  32.953  0.00  0.00    -0.258 OA
BRANCH  16  18
ATOM     18  O   UNL d   1      55.236   0.311  33.487  0.00  0.00    -0.271 OA
BRANCH  18  19
ATOM     19  C   UNL d   1      54.970   0.136  34.255  0.00  0.00     0.126 C 
ATOM     20  C   UNL d   1      54.507   0.681  34.666  0.00  0.00     0.029 C 
ENDBRANCH  18  19
ENDBRANCH  16  18
ENDBRANCH  15  16
ENDBRANCH  14  15
ENDBRANCH   4  14
TORSDOF 7
ENDMDL
MODEL 3
REMARK VINA RESULT:      -2.0      8.655      9.755
REMARK  7 active torsions:
REMARK  status: ('A' for Active; 'I' for Inactive)
REMARK    1  A    between atoms: C_6  and  C_2 
REMARK    2  A    between atoms: S_7  and  C_4 
REMARK    3  A    between atoms: C_12  and  S_7 
REMARK    4  A    between atoms: C_8  and  C_12 
REMARK    5  A    between atoms: O_16  and  C_8 
REMARK    6  A    between atoms: O_17  and  C_13 
REMARK    7  A    between atoms: C_18  and  O_16 
ROOT
ATOM      1  N   UNL d   1      59.254  -8.865  33.778  0.00  0.00    -0.212 NA
ATOM      2  C   UNL d   1      59.286  -8.768  34.590  0.00  0.00     0.171 A 
ATOM      3  N   UNL d   1      58.822  -9.356  34.941  0.00  0.00    -0.188 NA
ATOM      4  C   UNL d   1      58.772  -9.514  33.610  0.00  0.00     0.160 A 
ATOM      5  S   UNL d   1      58.504  -9.818  34.335  0.00  0.00     0.041 SA
ENDROOT
BRANCH   2   6
ATOM      6  C   UNL d   1      59.707  -8.184  34.999  0.00  0.00     0.037 A 
ATOM      7  C   UNL d   1      59.310  -7.578  35.413  0.00  0.00     0.005 A 
ATOM      8  C   UNL d   1      59.729  -7.006  35.815  0.00  0.00     0.024 A 
ATOM      9  C   UNL d   1      60.551  -7.026  35.813  0.00  0.00     0.094 A 
ATOM     10  C   UNL d   1      60.953  -7.626  35.404  0.00  0.00     0.024 A 
ATOM     11  C   UNL d   1      60.522  -8.197  35.003  0.00  0.00     0.005 A 
BRANCH   9  12
ATOM     12  O   UNL d   1      60.982  -6.452  36.217  0.00  0.00    -0.328 OA
ATOM     13  C   UNL d   1      60.681  -5.694  36.292  0.00  0.00     0.181 C 
ENDBRANCH   9  12
ENDBRANCH   2   6
BRANCH   4  14
ATOM     14  S   UNL d   1      58.584  -9.813  32.861  0.00  0.00    -0.054 SA
BRANCH  14  15
ATOM     15  C   UNL d   1      58.238  -9.328  32.300  0.00  0.00     0.106 C 
BRANCH  15  16
ATOM     16  C   UNL d   1      57.896  -9.648  31.620  0.00  0.00     0.307 C 
ATOM     17  O   UNL d   1      57.081  -9.800  31.603  0.00  0.00    -0.258 OA
BRANCH  16  18
ATOM     18  O   UNL d   1      58.361  -9.817  30.957  0.00  0.00    -0.271 OA
BRANCH  18  19
ATOM     19  C   UNL d   1      58.055  -9.706  30.191  0.00  0.00     0.126 C 
ATOM     20  C   UNL d   1      58.553  -9.757  29.536  0.00  0.00     0.029 C 
ENDBRANCH  18  19
ENDBRANCH  16  18
ENDBRANCH  15  16
ENDBRANCH  14  15
ENDBRANCH   4  14
TORSDOF 7
ENDMDL
MODEL 4
REMARK VINA RESULT:      -1.5      2.079      5.498
REMARK  7 active torsions:
REMARK  status: ('A' for Active; 'I' for Inactive)
REMARK    1  A    between atoms: C_6  and  C_2 
REMARK    2  A    between atoms: S_7  and  C_4 
REMARK    3  A    between atoms: C_12  and  S_7 
REMARK    4  A    between atoms: C_8  and  C_12 
REMARK    5  A    between atoms: O_16  and  C_8 
REMARK    6  A    between atoms: O_17  and  C_13 
REMARK    7  A    between atoms: C_18  and  O_16 
ROOT
ATOM      1  N   UNL d   1      57.121   0.021  32.217  0.00  0.00    -0.212 NA
ATOM      2  C   UNL d   1      56.500  -0.376  32.573  0.00  0.00     0.171 A 
ATOM      3  N   UNL d   1      56.352  -1.067  32.141  0.00  0.00    -0.188 NA
ATOM      4  C   UNL d   1      57.368  -0.413  31.560  0.00  0.00     0.160 A 
ATOM      5  S   UNL d   1      56.889  -1.089  31.514  0.00  0.00     0.041 SA
ENDROOT
BRANCH   2   6
ATOM      6  C   UNL d   1      56.085  -0.138  33.249  0.00  0.00     0.037 A 
ATOM      7  C   UNL d   1      55.264   0.002  33.222  0.00  0.00     0.005 A 
ATOM      8  C   UNL d   1      54.859   0.236  33.891  0.00  0.00     0.024 A 
ATOM      9  C   UNL d   1      55.266   0.335  34.598  0.00  0.00     0.094 A 
ATOM     10  C   UNL d   1      56.084   0.197  34.633  0.00  0.00     0.024 A 
ATOM     11  C   UNL d   1      56.481  -0.038  33.955  0.00  0.00     0.005 A 
BRANCH   9  12
ATOM     12  O   UNL d   1      54.867   0.572  35.278  0.00  0.00    -0.328 OA
ATOM     13  C   UNL d   1      55.280   0.681  35.977  0.00  0.00     0.181 C 
ENDBRANCH   9  12
ENDBRANCH   2   6
BRANCH   4  14
ATOM     14  S   UNL d   1      57.980  -0.217  31.038  0.00  0.00    -0.054 SA
BRANCH  14  15
ATOM     15  C   UNL d   1      57.835  -0.176  30.233  0.00  0.00     0.106 C 
BRANCH  15  16
ATOM     16  C   UNL d   1      58.452  -0.039  29.701  0.00  0.00     0.307 C 
ATOM     17  O   UNL d   1      58.291  -0.007  28.888  0.00  0.00    -0.258 OA
BRANCH  16  18
ATOM     18  O   UNL d   1      59.226   0.066  29.973  0.00  0.00    -0.271 OA
BRANCH  18  19
ATOM     19  C   UNL d   1      59.748   0.570  29.567  0.00  0.00     0.126 C 
ATOM     20  C   UNL d   1      60.466   0.280  29.284  0.00  0.00     0.029 C 
ENDBRANCH  18  19
ENDBRANCH  16  18
ENDBRANCH  15  16
ENDBRANCH  14  15
ENDBRANCH   4  14
TORSDOF 7
ENDMDL
MODEL 5
REMARK VINA RESULT:      -0.9      8.862     10.065
REMARK  7 active torsions:
REMARK  status: ('A' for Active; 'I' for Inactive)
REMARK    1  A    between atoms: C_6  and  C_2 
REMARK    2  A    between atoms: S_7  and  C_4 
REMARK    3  A    between atoms: C_12  and  S_7 
REMARK    4  A    between atoms: C_8  and  C_12 
REMARK    5  A    between atoms: O_16  and  C_8 
REMARK    6  A    between atoms: O_17  and  C_13 
REMARK    7  A    between atoms: C_18  and  O_16 
ROOT
ATOM      1  N   UNL d   1      59.525  -9.578  32.263  0.00  0.00    -0.212 NA
ATOM      2  C   UNL d   1      59.203  -9.381  32.989  0.00  0.00     0.171 A 
ATOM      3  N   UNL d   1      58.383  -9.310  32.899  0.00  0.00    -0.188 NA
ATOM      4  C   UNL d   1      58.914  -9.632  31.710  0.00  0.00     0.160 A 
ATOM      5  S   UNL d   1      58.205  -9.465  32.108  0.00  0.00     0.041 SA
ENDROOT
BRANCH   2   6
ATOM      6  C   UNL d   1      59.616  -9.271  33.697  0.00  0.00     0.037 A 
ATOM      7  C   UNL d   1      60.422  -9.475  33.762  0.00  0.00     0.005 A 
ATOM      8  C   UNL d   1      60.826  -9.365  34.462  0.00  0.00     0.024 A 
ATOM      9  C   UNL d   1      60.433  -9.048  35.111  0.00  0.00     0.094 A 
ATOM     10  C   UNL d   1      59.631  -8.841  35.055  0.00  0.00     0.024 A 
ATOM     11  C   UNL d   1      59.235  -8.957  34.347  0.00  0.00     0.005 A 
BRANCH   9  12
ATOM     12  O   UNL d   1      60.832  -8.932  35.822  0.00  0.00    -0.328 OA
ATOM     13  C   UNL d   1      60.706  -8.247  36.254  0.00  0.00     0.181 C 
ENDBRANCH   9  12
ENDBRANCH   2   6
BRANCH   4  14
ATOM     14  S   UNL d   1      58.986  -9.818  30.906  0.00  0.00    -0.054 SA
BRANCH  14  15
ATOM     15  C   UNL d   1      59.358  -9.297  30.397  0.00  0.00     0.106 C 
BRANCH  15  16
ATOM     16  C   UNL d   1      59.510  -9.511  29.613  0.00  0.00     0.307 C 
ATOM     17  O   UNL d   1      58.889  -9.780  29.134  0.00  0.00    -0.258 OA
BRANCH  16  18
ATOM     18  O   UNL d   1      60.275  -9.458  29.305  0.00  0.00    -0.271 OA
BRANCH  18  19
ATOM     19  C   UNL d   1      60.420  -9.021  28.613  0.00  0.00     0.126 C 
ATOM     20  C   UNL d   1      61.113  -8.581  28.539  0.00  0.00     0.029 C 
ENDBRANCH  18  19
ENDBRANCH  16  18
ENDBRANCH  15  16
ENDBRANCH  14  15
ENDBRANCH   4  14
TORSDOF 7
ENDMDL
