MODEL 1
REMARK VINA RESULT:      -3.1      0.000      0.000
REMARK  2 active torsions:
REMARK  status: ('A' for Active; 'I' for Inactive)
REMARK    1  A    between atoms: N_2  and  C_1 
REMARK    2  A    between atoms: C_4  and  C_1 
ROOT
ATOM      1  C   UNL d   1      58.139   0.194  29.829  0.00  0.00     0.120 C 
ATOM      2  S   UNL d   1      57.797   0.682  29.257  0.00  0.00    -0.059 SA
ENDROOT
BRANCH   1   3
ATOM      3  N   UNL d   1      58.858  -0.189  29.669  0.00  0.00    -0.293 N 
ATOM      4  C   UNL d   1      59.571   0.175  29.872  0.00  0.00     0.100 A 
ATOM      5  C   UNL d   1      60.287  -0.202  29.715  0.00  0.00     0.100 A 
ATOM      6  N   UNL d   1      60.290  -0.943  29.354  0.00  0.00    -0.299 N 
ATOM      7  C   UNL d   1      59.577  -1.307  29.151  0.00  0.00     0.100 A 
ATOM      8  C   UNL d   1      61.008  -1.323  29.195  0.00  0.00     0.100 C 
ATOM      9  C   UNL d   1      58.857  -0.923  29.311  0.00  0.00     0.100 A 
ENDBRANCH   1   3
BRANCH   1  10
ATOM     10  C   UNL d   1      57.770   0.083  30.563  0.00  0.00     0.027 A 
ATOM     11  C   UNL d   1      57.787   0.682  31.139  0.00  0.00     0.003 A 
ATOM     12  C   UNL d   1      57.418   0.564  31.866  0.00  0.00     0.007 A 
ATOM     13  C   UNL d   1      57.033  -0.147  32.022  0.00  0.00     0.035 A 
ATOM     14  C   UNL d   1      57.015  -0.745  31.446  0.00  0.00     0.007 A 
ATOM     15 BR   UNL d   1      56.662  -0.266  32.752  0.00  0.00    -0.049 Br
ATOM     16  C   UNL d   1      57.384  -0.628  30.719  0.00  0.00     0.003 A 
ENDBRANCH   1  10
TORSDOF 2
ENDMDL
MODEL 2
REMARK VINA RESULT:      -2.7      0.846      1.458
REMARK  2 active torsions:
REMARK  status: ('A' for Active; 'I' for Inactive)
REMARK    1  A    between atoms: N_2  and  C_1 
REMARK    2  A    between atoms: C_4  and  C_1 
ROOT
ATOM      1  C   UNL d   1      58.740  -0.381  29.211  0.00  0.00     0.120 C 
ATOM      2  S   UNL d   1      58.501  -0.013  28.511  0.00  0.00    -0.059 SA
ENDROOT
BRANCH   1   3
ATOM      3  N   UNL d   1      59.339  -0.957  29.191  0.00  0.00    -0.293 N 
ATOM      4  C   UNL d   1      59.138  -1.757  29.144  0.00  0.00     0.100 A 
ATOM      5  C   UNL d   1      59.729  -2.331  29.124  0.00  0.00     0.100 A 
ATOM      6  N   UNL d   1      60.521  -2.105  29.150  0.00  0.00    -0.299 N 
ATOM      7  C   UNL d   1      60.723  -1.306  29.196  0.00  0.00     0.100 A 
ATOM      8  C   UNL d   1      61.116  -2.680  29.129  0.00  0.00     0.100 C 
ATOM      9  C   UNL d   1      60.123  -0.729  29.217  0.00  0.00     0.100 A 
ENDBRANCH   1   3
BRANCH   1  10
ATOM     10  C   UNL d   1      58.389  -0.181  29.934  0.00  0.00     0.027 A 
ATOM     11  C   UNL d   1      57.767  -0.638  30.241  0.00  0.00     0.003 A 
ATOM     12  C   UNL d   1      57.422  -0.432  30.961  0.00  0.00     0.007 A 
ATOM     13  C   UNL d   1      57.694   0.225  31.375  0.00  0.00     0.035 A 
ATOM     14  C   UNL d   1      58.317   0.682  31.068  0.00  0.00     0.007 A 
ATOM     15 BR   UNL d   1      57.349   0.433  32.098  0.00  0.00    -0.049 Br
ATOM     16  C   UNL d   1      58.661   0.477  30.348  0.00  0.00     0.003 A 
ENDBRANCH   1  10
TORSDOF 2
ENDMDL
MODEL 3
REMARK VINA RESULT:      -2.7      1.798      3.390
REMARK  2 active torsions:
REMARK  status: ('A' for Active; 'I' for Inactive)
REMARK    1  A    between atoms: N_2  and  C_1 
REMARK    2  A    between atoms: C_4  and  C_1 
ROOT
ATOM      1  C   UNL d   1      58.770  -0.508  29.186  0.00  0.00     0.120 C 
ATOM      2  S   UNL d   1      58.562  -0.125  28.484  0.00  0.00    -0.059 SA
ENDROOT
BRANCH   1   3
ATOM      3  N   UNL d   1      58.503  -0.211  29.914  0.00  0.00    -0.293 N 
ATOM      4  C   UNL d   1      58.930   0.384  30.296  0.00  0.00     0.100 A 
ATOM      5  C   UNL d   1      58.667   0.682  31.019  0.00  0.00     0.100 A 
ATOM      6  N   UNL d   1      57.978   0.384  31.359  0.00  0.00    -0.299 N 
ATOM      7  C   UNL d   1      57.551  -0.211  30.977  0.00  0.00     0.100 A 
ATOM      8  C   UNL d   1      57.713   0.682  32.085  0.00  0.00     0.100 C 
ATOM      9  C   UNL d   1      57.819  -0.508  30.248  0.00  0.00     0.100 A 
ENDBRANCH   1   3
BRANCH   1  10
ATOM     10  C   UNL d   1      59.244  -1.188  29.170  0.00  0.00     0.027 A 
ATOM     11  C   UNL d   1      58.898  -1.943  29.166  0.00  0.00     0.003 A 
ATOM     12  C   UNL d   1      59.376  -2.615  29.150  0.00  0.00     0.007 A 
ATOM     13  C   UNL d   1      60.196  -2.536  29.139  0.00  0.00     0.035 A 
ATOM     14  C   UNL d   1      60.541  -1.781  29.142  0.00  0.00     0.007 A 
ATOM     15 BR   UNL d   1      60.676  -3.209  29.123  0.00  0.00    -0.049 Br
ATOM     16  C   UNL d   1      60.064  -1.110  29.158  0.00  0.00     0.003 A 
ENDBRANCH   1  10
TORSDOF 2
ENDMDL
MODEL 4
REMARK VINA RESULT:      -2.4      1.733      3.282
REMARK  2 active torsions:
REMARK  status: ('A' for Active; 'I' for Inactive)
REMARK    1  A    between atoms: N_2  and  C_1 
REMARK    2  A    between atoms: C_4  and  C_1 
ROOT
ATOM      1  C   UNL d   1      58.233   0.185  29.811  0.00  0.00     0.120 C 
ATOM      2  S   UNL d   1      57.863   0.682  29.264  0.00  0.00    -0.059 SA
ENDROOT
BRANCH   1   3
ATOM      3  N   UNL d   1      58.017   0.221  30.613  0.00  0.00    -0.293 N 
ATOM      4  C   UNL d   1      58.486   0.644  31.145  0.00  0.00     0.100 A 
ATOM      5  C   UNL d   1      58.275   0.682  31.942  0.00  0.00     0.100 A 
ATOM      6  N   UNL d   1      57.596   0.296  32.205  0.00  0.00    -0.299 N 
ATOM      7  C   UNL d   1      57.128  -0.127  31.673  0.00  0.00     0.100 A 
ATOM      8  C   UNL d   1      57.383   0.333  33.004  0.00  0.00     0.100 C 
ATOM      9  C   UNL d   1      57.344  -0.163  30.870  0.00  0.00     0.100 A 
ENDBRANCH   1   3
BRANCH   1  10
ATOM     10  C   UNL d   1      58.816  -0.349  29.567  0.00  0.00     0.027 A 
ATOM     11  C   UNL d   1      59.589  -0.088  29.407  0.00  0.00     0.003 A 
ATOM     12  C   UNL d   1      60.164  -0.626  29.165  0.00  0.00     0.007 A 
ATOM     13  C   UNL d   1      59.974  -1.422  29.082  0.00  0.00     0.035 A 
ATOM     14  C   UNL d   1      59.202  -1.684  29.242  0.00  0.00     0.007 A 
ATOM     15 BR   UNL d   1      60.550  -1.963  28.839  0.00  0.00    -0.049 Br
ATOM     16  C   UNL d   1      58.626  -1.147  29.483  0.00  0.00     0.003 A 
ENDBRANCH   1  10
TORSDOF 2
ENDMDL
MODEL 5
REMARK VINA RESULT:      -2.3      1.538      2.098
REMARK  2 active torsions:
REMARK  status: ('A' for Active; 'I' for Inactive)
REMARK    1  A    between atoms: N_2  and  C_1 
REMARK    2  A    between atoms: C_4  and  C_1 
ROOT
ATOM      1  C   UNL d   1      57.951   0.390  31.801  0.00  0.00     0.120 C 
ATOM      2  S   UNL d   1      58.583   0.682  32.246  0.00  0.00    -0.059 SA
ENDROOT
BRANCH   1   3
ATOM      3  N   UNL d   1      58.009   0.357  30.973  0.00  0.00    -0.293 N 
ATOM      4  C   UNL d   1      57.409   0.682  30.506  0.00  0.00     0.100 A 
ATOM      5  C   UNL d   1      57.464   0.651  29.684  0.00  0.00     0.100 A 
ATOM      6  N   UNL d   1      58.117   0.296  29.329  0.00  0.00    -0.299 N 
ATOM      7  C   UNL d   1      58.717  -0.028  29.796  0.00  0.00     0.100 A 
ATOM      8  C   UNL d   1      58.173   0.265  28.504  0.00  0.00     0.100 C 
ATOM      9  C   UNL d   1      58.658   0.005  30.625  0.00  0.00     0.100 A 
ENDBRANCH   1   3
BRANCH   1  10
ATOM     10  C   UNL d   1      57.259   0.129  32.174  0.00  0.00     0.027 A 
ATOM     11  C   UNL d   1      56.767   0.666  32.575  0.00  0.00     0.003 A 
ATOM     12  C   UNL d   1      56.080   0.398  32.944  0.00  0.00     0.007 A 
ATOM     13  C   UNL d   1      55.881  -0.400  32.914  0.00  0.00     0.035 A 
ATOM     14  C   UNL d   1      56.373  -0.937  32.513  0.00  0.00     0.007 A 
ATOM     15 BR   UNL d   1      55.192  -0.670  33.283  0.00  0.00    -0.049 Br
ATOM     16  C   UNL d   1      57.059  -0.670  32.145  0.00  0.00     0.003 A 
ENDBRANCH   1  10
TORSDOF 2
ENDMDL
MODEL 6
REMARK VINA RESULT:      -2.2      1.276      1.709
REMARK  2 active torsions:
REMARK  status: ('A' for Active; 'I' for Inactive)
REMARK    1  A    between atoms: N_2  and  C_1 
REMARK    2  A    between atoms: C_4  and  C_1 
ROOT
ATOM      1  C   UNL d   1      57.426   0.349  30.835  0.00  0.00     0.120 C 
ATOM      2  S   UNL d   1      57.010   0.681  30.203  0.00  0.00    -0.059 SA
ENDROOT
BRANCH   1   3
ATOM      3  N   UNL d   1      58.255   0.409  30.860  0.00  0.00    -0.293 N 
ATOM      4  C   UNL d   1      58.698   0.252  30.181  0.00  0.00     0.100 A 
ATOM      5  C   UNL d   1      59.521   0.310  30.203  0.00  0.00     0.100 A 
ATOM      6  N   UNL d   1      59.899   0.524  30.903  0.00  0.00    -0.299 N 
ATOM      7  C   UNL d   1      59.455   0.680  31.582  0.00  0.00     0.100 A 
ATOM      8  C   UNL d   1      60.724   0.582  30.926  0.00  0.00     0.100 C 
ATOM      9  C   UNL d   1      58.626   0.621  31.556  0.00  0.00     0.100 A 
ENDBRANCH   1   3
BRANCH   1  10
ATOM     10  C   UNL d   1      57.025  -0.042  31.444  0.00  0.00     0.027 A 
ATOM     11  C   UNL d   1      56.639   0.388  32.040  0.00  0.00     0.003 A 
ATOM     12  C   UNL d   1      56.241  -0.009  32.644  0.00  0.00     0.007 A 
ATOM     13  C   UNL d   1      56.227  -0.832  32.655  0.00  0.00     0.035 A 
ATOM     14  C   UNL d   1      56.613  -1.263  32.058  0.00  0.00     0.007 A 
ATOM     15 BR   UNL d   1      55.829  -1.232  33.259  0.00  0.00    -0.049 Br
ATOM     16  C   UNL d   1      57.011  -0.866  31.455  0.00  0.00     0.003 A 
ENDBRANCH   1  10
TORSDOF 2
ENDMDL
MODEL 7
REMARK VINA RESULT:      -1.9      2.871      4.703
REMARK  2 active torsions:
REMARK  status: ('A' for Active; 'I' for Inactive)
REMARK    1  A    between atoms: N_2  and  C_1 
REMARK    2  A    between atoms: C_4  and  C_1 
ROOT
ATOM      1  C   UNL d   1      56.123  -0.925  32.619  0.00  0.00     0.120 C 
ATOM      2  S   UNL d   1      55.903  -1.712  32.504  0.00  0.00    -0.059 SA
ENDROOT
BRANCH   1   3
ATOM      3  N   UNL d   1      55.874  -0.521  33.301  0.00  0.00    -0.293 N 
ATOM      4  C   UNL d   1      55.124  -0.176  33.324  0.00  0.00     0.100 A 
ATOM      5  C   UNL d   1      54.874   0.225  34.000  0.00  0.00     0.100 A 
ATOM      6  N   UNL d   1      55.374   0.280  34.653  0.00  0.00    -0.299 N 
ATOM      7  C   UNL d   1      56.124  -0.065  34.630  0.00  0.00     0.100 A 
ATOM      8  C   UNL d   1      55.124   0.682  35.331  0.00  0.00     0.100 C 
ATOM      9  C   UNL d   1      56.373  -0.468  33.947  0.00  0.00     0.100 A 
ENDBRANCH   1   3
BRANCH   1  10
ATOM     10  C   UNL d   1      56.590  -0.532  32.059  0.00  0.00     0.027 A 
ATOM     11  C   UNL d   1      56.630   0.298  32.049  0.00  0.00     0.003 A 
ATOM     12  C   UNL d   1      57.097   0.681  31.488  0.00  0.00     0.007 A 
ATOM     13  C   UNL d   1      57.525   0.242  30.939  0.00  0.00     0.035 A 
ATOM     14  C   UNL d   1      57.485  -0.588  30.949  0.00  0.00     0.007 A 
ATOM     15 BR   UNL d   1      57.994   0.625  30.376  0.00  0.00    -0.049 Br
ATOM     16  C   UNL d   1      57.019  -0.972  31.508  0.00  0.00     0.003 A 
ENDBRANCH   1  10
TORSDOF 2
ENDMDL
MODEL 8
REMARK VINA RESULT:      -1.4      2.519      3.683
REMARK  2 active torsions:
REMARK  status: ('A' for Active; 'I' for Inactive)
REMARK    1  A    between atoms: N_2  and  C_1 
REMARK    2  A    between atoms: C_4  and  C_1 
ROOT
ATOM      1  C   UNL d   1      56.877   0.430  33.415  0.00  0.00     0.120 C 
ATOM      2  S   UNL d   1      57.510   0.667  33.891  0.00  0.00    -0.059 SA
ENDROOT
BRANCH   1   3
ATOM      3  N   UNL d   1      57.022   0.127  32.656  0.00  0.00    -0.293 N 
ATOM      4  C   UNL d   1      56.881  -0.672  32.499  0.00  0.00     0.100 A 
ATOM      5  C   UNL d   1      57.024  -0.977  31.746  0.00  0.00     0.100 A 
ATOM      6  N   UNL d   1      57.308  -0.483  31.151  0.00  0.00    -0.299 N 
ATOM      7  C   UNL d   1      57.448   0.316  31.307  0.00  0.00     0.100 A 
ATOM      8  C   UNL d   1      57.451  -0.787  30.395  0.00  0.00     0.100 C 
ATOM      9  C   UNL d   1      57.303   0.620  32.068  0.00  0.00     0.100 A 
ENDBRANCH   1   3
BRANCH   1  10
ATOM     10  C   UNL d   1      56.098   0.493  33.690  0.00  0.00     0.027 A 
ATOM     11  C   UNL d   1      55.930   0.429  34.501  0.00  0.00     0.003 A 
ATOM     12  C   UNL d   1      55.152   0.492  34.766  0.00  0.00     0.007 A 
ATOM     13  C   UNL d   1      54.542   0.618  34.227  0.00  0.00     0.035 A 
ATOM     14  C   UNL d   1      54.711   0.682  33.416  0.00  0.00     0.007 A 
ATOM     15 BR   UNL d   1      53.761   0.682  34.492  0.00  0.00    -0.049 Br
ATOM     16  C   UNL d   1      55.488   0.619  33.151  0.00  0.00     0.003 A 
ENDBRANCH   1  10
TORSDOF 2
ENDMDL
MODEL 9
REMARK VINA RESULT:      -1.0      9.536      9.987
REMARK  2 active torsions:
REMARK  status: ('A' for Active; 'I' for Inactive)
REMARK    1  A    between atoms: N_2  and  C_1 
REMARK    2  A    between atoms: C_4  and  C_1 
ROOT
ATOM      1  C   UNL d   1      60.092  -9.592  33.220  0.00  0.00     0.120 C 
ATOM      2  S   UNL d   1      60.812  -9.818  32.886  0.00  0.00    -0.059 SA
ENDROOT
BRANCH   1   3
ATOM      3  N   UNL d   1      59.393  -9.649  32.773  0.00  0.00    -0.293 N 
ATOM      4  C   UNL d   1      59.430  -9.614  31.949  0.00  0.00     0.100 A 
ATOM      5  C   UNL d   1      58.738  -9.670  31.502  0.00  0.00     0.100 A 
ATOM      6  N   UNL d   1      58.012  -9.761  31.880  0.00  0.00    -0.299 N 
ATOM      7  C   UNL d   1      57.976  -9.796  32.705  0.00  0.00     0.100 A 
ATOM      8  C   UNL d   1      57.318  -9.818  31.434  0.00  0.00     0.100 C 
ATOM      9  C   UNL d   1      58.675  -9.739  33.152  0.00  0.00     0.100 A 
ENDBRANCH   1   3
BRANCH   1  10
ATOM     10  C   UNL d   1      60.058  -9.309  33.998  0.00  0.00     0.027 A 
ATOM     11  C   UNL d   1      59.860  -9.818  34.624  0.00  0.00     0.003 A 
ATOM     12  C   UNL d   1      59.829  -9.529  35.395  0.00  0.00     0.007 A 
ATOM     13  C   UNL d   1      59.994  -8.736  35.545  0.00  0.00     0.035 A 
ATOM     14  C   UNL d   1      60.193  -8.227  34.918  0.00  0.00     0.007 A 
ATOM     15 BR   UNL d   1      59.963  -8.445  36.318  0.00  0.00    -0.049 Br
ATOM     16  C   UNL d   1      60.224  -8.516  34.148  0.00  0.00     0.003 A 
ENDBRANCH   1  10
TORSDOF 2
ENDMDL
