MODEL 1
REMARK VINA RESULT:      11.4      0.000      0.000
REMARK  6 active torsions:
REMARK  status: ('A' for Active; 'I' for Inactive)
REMARK    1  A    between atoms: N_4  and  C_1 
REMARK    2  A    between atoms: N_8  and  C_1 
REMARK       I    between atoms: C_2  and  N_3 
REMARK    3  A    between atoms: C_6  and  C_2 
REMARK    4  A    between atoms: N_3  and  N_4 
REMARK    5  A    between atoms: C_17  and  N_8 
REMARK    6  A    between atoms: C_11  and  C_17 
ROOT
ATOM      1  C   UNL d   1      46.161 -17.549  43.143  0.00  0.00     0.297 C 
ATOM      2  N   UNL d   1      45.959 -16.835  43.536  0.00  0.00    -0.103 NA
ATOM      3  O   UNL d   1      46.237 -17.548  42.329  0.00  0.00    -0.264 OA
ENDROOT
BRANCH   1   4
ATOM      4  C   UNL d   1      46.283 -18.251  43.584  0.00  0.00     0.059 A 
ATOM      5  C   UNL d   1      46.432 -18.196  44.385  0.00  0.00     0.005 A 
ATOM      6  C   UNL d   1      46.553 -18.882  44.827  0.00  0.00     0.007 A 
ATOM      7  C   UNL d   1      46.523 -19.614  44.462  0.00  0.00     0.035 A 
ATOM      8  C   UNL d   1      46.371 -19.679  43.646  0.00  0.00     0.007 A 
ATOM      9 BR   UNL d   1      46.647 -20.322  44.915  0.00  0.00    -0.049 Br
ATOM     10  C   UNL d   1      46.253 -18.984  43.219  0.00  0.00     0.005 A 
ENDBRANCH   1   4
BRANCH   2  11
ATOM     11  N   UNL d   1      45.881 -16.835  44.370  0.00  0.00    -0.114 NA
BRANCH  11  12
ATOM     12  C   UNL d   1      45.546 -16.202  44.750  0.00  0.00     0.241 C 
ATOM     13  S   UNL d   1      44.742 -16.218  44.954  0.00  0.00    -0.035 SA
BRANCH  12  14
ATOM     14  N   UNL d   1      46.007 -15.530  44.938  0.00  0.00    -0.215 NA
BRANCH  14  15
ATOM     15  C   UNL d   1      45.689 -14.771  44.830  0.00  0.00     0.102 C 
BRANCH  15  16
ATOM     16  C   UNL d   1      46.191 -14.119  44.804  0.00  0.00     0.021 C 
ATOM     17  C   UNL d   1      45.885 -13.364  44.737  0.00  0.00     0.002 C 
ENDBRANCH  15  16
ENDBRANCH  14  15
ENDBRANCH  12  14
ENDBRANCH  11  12
ENDBRANCH   2  11
TORSDOF 6
ENDMDL
MODEL 2
REMARK VINA RESULT:      14.2      2.392      4.491
REMARK  6 active torsions:
REMARK  status: ('A' for Active; 'I' for Inactive)
REMARK    1  A    between atoms: N_4  and  C_1 
REMARK    2  A    between atoms: N_8  and  C_1 
REMARK       I    between atoms: C_2  and  N_3 
REMARK    3  A    between atoms: C_6  and  C_2 
REMARK    4  A    between atoms: N_3  and  N_4 
REMARK    5  A    between atoms: C_17  and  N_8 
REMARK    6  A    between atoms: C_11  and  C_17 
ROOT
ATOM      1  C   UNL d   1      44.455 -14.994  44.586  0.00  0.00     0.297 C 
ATOM      2  N   UNL d   1      44.743 -15.780  44.515  0.00  0.00    -0.103 NA
ATOM      3  O   UNL d   1      43.670 -14.872  44.780  0.00  0.00    -0.264 OA
ENDROOT
BRANCH   1   4
ATOM      4  C   UNL d   1      44.970 -14.344  44.460  0.00  0.00     0.059 A 
ATOM      5  C   UNL d   1      45.612 -14.246  44.955  0.00  0.00     0.005 A 
ATOM      6  C   UNL d   1      46.125 -13.610  44.839  0.00  0.00     0.007 A 
ATOM      7  C   UNL d   1      45.989 -13.081  44.228  0.00  0.00     0.035 A 
ATOM      8  C   UNL d   1      45.337 -13.175  43.719  0.00  0.00     0.007 A 
ATOM      9 BR   UNL d   1      46.515 -12.426  44.106  0.00  0.00    -0.049 Br
ATOM     10  C   UNL d   1      44.834 -13.816  43.849  0.00  0.00     0.005 A 
ENDBRANCH   1   4
BRANCH   2  11
ATOM     11  N   UNL d   1      45.546 -15.904  44.317  0.00  0.00    -0.114 NA
BRANCH  11  12
ATOM     12  C   UNL d   1      45.867 -16.648  44.356  0.00  0.00     0.241 C 
ATOM     13  S   UNL d   1      45.628 -17.173  44.952  0.00  0.00    -0.035 SA
BRANCH  12  14
ATOM     14  N   UNL d   1      46.440 -16.891  43.797  0.00  0.00    -0.215 NA
BRANCH  14  15
ATOM     15  C   UNL d   1      46.644 -17.693  43.741  0.00  0.00     0.102 C 
BRANCH  15  16
ATOM     16  C   UNL d   1      46.124 -18.221  43.381  0.00  0.00     0.021 C 
ATOM     17  C   UNL d   1      46.289 -18.523  42.640  0.00  0.00     0.002 C 
ENDBRANCH  15  16
ENDBRANCH  14  15
ENDBRANCH  12  14
ENDBRANCH  11  12
ENDBRANCH   2  11
TORSDOF 6
ENDMDL
