MODEL 1
REMARK VINA RESULT:      -9.0      0.000      0.000
REMARK  3 active torsions:
REMARK  status: ('A' for Active; 'I' for Inactive)
REMARK    1  A    between atoms: N_2  and  C_1 
REMARK       I    between atoms: C_5  and  N_2 
REMARK    2  A    between atoms: C_8  and  C_5 
REMARK    3  A    between atoms: O_17  and  C_13 
ROOT
ATOM      1  N   UNL d   1      51.882  34.403  53.026  0.00  0.00    -0.184 NA
ATOM      2  C   UNL d   1      51.153  34.017  53.057  0.00  0.00     0.281 C 
ATOM      3  O   UNL d   1      51.066  33.379  53.574  0.00  0.00    -0.265 OA
ENDROOT
BRANCH   1   4
ATOM      4  C   UNL d   1      52.499  34.137  53.514  0.00  0.00     0.182 A 
ATOM      5  N   UNL d   1      52.983  34.583  54.038  0.00  0.00    -0.283 N 
ATOM      6  C   UNL d   1      53.516  34.016  54.386  0.00  0.00     0.072 A 
ATOM      7  C   UNL d   1      52.941  35.365  54.169  0.00  0.00     0.101 C 
ATOM      8  C   UNL d   1      54.136  34.096  54.951  0.00  0.00     0.018 A 
ATOM      9  C   UNL d   1      53.339  33.304  54.076  0.00  0.00     0.048 A 
ATOM     10  C   UNL d   1      54.570  33.408  55.187  0.00  0.00     0.002 A 
ATOM     11  C   UNL d   1      54.383  32.690  54.866  0.00  0.00     0.001 A 
ATOM     12  C   UNL d   1      53.768  32.609  54.306  0.00  0.00     0.008 A 
ATOM     13  S   UNL d   1      52.734  33.360  53.554  0.00  0.00    -0.048 SA
ENDBRANCH   1   4
BRANCH   2  14
ATOM     14  C   UNL d   1      50.520  34.235  52.602  0.00  0.00     0.058 A 
ATOM     15  C   UNL d   1      50.528  34.087  51.803  0.00  0.00     0.007 A 
ATOM     16  C   UNL d   1      49.881  34.312  51.344  0.00  0.00     0.024 A 
ATOM     17  C   UNL d   1      49.239  34.679  51.690  0.00  0.00     0.094 A 
ATOM     18  C   UNL d   1      49.231  34.827  52.490  0.00  0.00     0.024 A 
ATOM     19  C   UNL d   1      49.880  34.607  52.979  0.00  0.00     0.007 A 
BRANCH  17  20
ATOM     20  O   UNL d   1      48.592  34.902  51.220  0.00  0.00    -0.328 OA
ATOM     21  C   UNL d   1      47.861  35.309  51.492  0.00  0.00     0.181 C 
ENDBRANCH  17  20
ENDBRANCH   2  14
TORSDOF 3
ENDMDL
MODEL 2
REMARK VINA RESULT:      -7.0      1.869      5.117
REMARK  3 active torsions:
REMARK  status: ('A' for Active; 'I' for Inactive)
REMARK    1  A    between atoms: N_2  and  C_1 
REMARK       I    between atoms: C_5  and  N_2 
REMARK    2  A    between atoms: C_8  and  C_5 
REMARK    3  A    between atoms: O_17  and  C_13 
ROOT
ATOM      1  N   UNL d   1      49.708  34.407  52.332  0.00  0.00    -0.184 NA
ATOM      2  C   UNL d   1      50.314  34.544  52.876  0.00  0.00     0.281 C 
ATOM      3  O   UNL d   1      50.234  35.174  53.405  0.00  0.00    -0.265 OA
ENDROOT
BRANCH   1   4
ATOM      4  C   UNL d   1      49.043  34.904  52.336  0.00  0.00     0.182 A 
ATOM      5  N   UNL d   1      48.491  35.047  51.718  0.00  0.00    -0.283 N 
ATOM      6  C   UNL d   1      47.933  35.605  52.043  0.00  0.00     0.072 A 
ATOM      7  C   UNL d   1      48.500  34.725  50.993  0.00  0.00     0.101 C 
ATOM      8  C   UNL d   1      47.249  35.974  51.718  0.00  0.00     0.018 A 
ATOM      9  C   UNL d   1      48.161  35.759  52.790  0.00  0.00     0.048 A 
ATOM     10  C   UNL d   1      46.804  36.513  52.196  0.00  0.00     0.002 A 
ATOM     11  C   UNL d   1      47.044  36.663  52.953  0.00  0.00     0.001 A 
ATOM     12  C   UNL d   1      47.723  36.298  53.277  0.00  0.00     0.008 A 
ATOM     13  S   UNL d   1      48.822  35.349  52.980  0.00  0.00    -0.048 SA
ENDBRANCH   1   4
BRANCH   2  14
ATOM     14  C   UNL d   1      50.982  34.090  52.914  0.00  0.00     0.058 A 
ATOM     15  C   UNL d   1      50.938  33.335  53.211  0.00  0.00     0.007 A 
ATOM     16  C   UNL d   1      51.622  32.875  53.248  0.00  0.00     0.024 A 
ATOM     17  C   UNL d   1      52.335  33.176  52.988  0.00  0.00     0.094 A 
ATOM     18  C   UNL d   1      52.378  33.932  52.691  0.00  0.00     0.024 A 
ATOM     19  C   UNL d   1      51.694  34.420  52.644  0.00  0.00     0.007 A 
BRANCH  17  20
ATOM     20  O   UNL d   1      53.018  32.706  53.029  0.00  0.00    -0.328 OA
ATOM     21  C   UNL d   1      53.561  32.627  53.716  0.00  0.00     0.181 C 
ENDBRANCH  17  20
ENDBRANCH   2  14
TORSDOF 3
ENDMDL
MODEL 3
REMARK VINA RESULT:      -6.3      2.524      4.649
REMARK  3 active torsions:
REMARK  status: ('A' for Active; 'I' for Inactive)
REMARK    1  A    between atoms: N_2  and  C_1 
REMARK       I    between atoms: C_5  and  N_2 
REMARK    2  A    between atoms: C_8  and  C_5 
REMARK    3  A    between atoms: O_17  and  C_13 
ROOT
ATOM      1  N   UNL d   1      53.349  32.184  54.496  0.00  0.00    -0.184 NA
ATOM      2  C   UNL d   1      53.212  31.686  53.851  0.00  0.00     0.281 C 
ATOM      3  O   UNL d   1      53.047  32.028  53.118  0.00  0.00    -0.265 OA
ENDROOT
BRANCH   1   4
ATOM      4  C   UNL d   1      53.316  33.006  54.384  0.00  0.00     0.182 A 
ATOM      5  N   UNL d   1      53.826  33.598  54.695  0.00  0.00    -0.283 N 
ATOM      6  C   UNL d   1      53.521  34.335  54.393  0.00  0.00     0.072 A 
ATOM      7  C   UNL d   1      54.453  33.481  55.167  0.00  0.00     0.101 C 
ATOM      8  C   UNL d   1      53.771  35.134  54.491  0.00  0.00     0.018 A 
ATOM      9  C   UNL d   1      52.885  34.162  53.945  0.00  0.00     0.048 A 
ATOM     10  C   UNL d   1      53.338  35.752  54.108  0.00  0.00     0.002 A 
ATOM     11  C   UNL d   1      52.694  35.566  53.657  0.00  0.00     0.001 A 
ATOM     12  C   UNL d   1      52.444  34.774  53.558  0.00  0.00     0.008 A 
ATOM     13  S   UNL d   1      52.749  33.372  53.930  0.00  0.00    -0.048 SA
ENDBRANCH   1   4
BRANCH   2  14
ATOM     14  C   UNL d   1      53.232  30.879  53.906  0.00  0.00     0.058 A 
ATOM     15  C   UNL d   1      53.271  30.527  54.638  0.00  0.00     0.007 A 
ATOM     16  C   UNL d   1      53.292  29.704  54.689  0.00  0.00     0.024 A 
ATOM     17  C   UNL d   1      53.273  29.249  54.012  0.00  0.00     0.094 A 
ATOM     18  C   UNL d   1      53.234  29.602  53.280  0.00  0.00     0.024 A 
ATOM     19  C   UNL d   1      53.212  30.440  53.202  0.00  0.00     0.007 A 
BRANCH  17  20
ATOM     20  O   UNL d   1      53.294  28.421  54.072  0.00  0.00    -0.328 OA
ATOM     21  C   UNL d   1      53.627  27.952  54.738  0.00  0.00     0.181 C 
ENDBRANCH  17  20
ENDBRANCH   2  14
TORSDOF 3
ENDMDL
MODEL 4
REMARK VINA RESULT:      -6.1     10.378     11.064
REMARK  3 active torsions:
REMARK  status: ('A' for Active; 'I' for Inactive)
REMARK    1  A    between atoms: N_2  and  C_1 
REMARK       I    between atoms: C_5  and  N_2 
REMARK    2  A    between atoms: C_8  and  C_5 
REMARK    3  A    between atoms: O_17  and  C_13 
ROOT
ATOM      1  N   UNL d   1      44.502  28.554  59.377  0.00  0.00    -0.184 NA
ATOM      2  C   UNL d   1      45.068  28.634  58.780  0.00  0.00     0.281 C 
ATOM      3  O   UNL d   1      45.585  29.277  58.812  0.00  0.00    -0.265 OA
ENDROOT
BRANCH   1   4
ATOM      4  C   UNL d   1      44.474  29.120  59.983  0.00  0.00     0.182 A 
ATOM      5  N   UNL d   1      44.411  28.998  60.813  0.00  0.00    -0.283 N 
ATOM      6  C   UNL d   1      44.407  29.779  61.154  0.00  0.00     0.072 A 
ATOM      7  C   UNL d   1      44.366  28.298  61.185  0.00  0.00     0.101 C 
ATOM      8  C   UNL d   1      44.357  30.048  61.951  0.00  0.00     0.018 A 
ATOM      9  C   UNL d   1      44.464  30.299  60.553  0.00  0.00     0.048 A 
ATOM     10  C   UNL d   1      44.367  30.880  62.107  0.00  0.00     0.002 A 
ATOM     11  C   UNL d   1      44.425  31.400  61.490  0.00  0.00     0.001 A 
ATOM     12  C   UNL d   1      44.475  31.135  60.699  0.00  0.00     0.008 A 
ATOM     13  S   UNL d   1      44.504  29.922  59.848  0.00  0.00    -0.048 SA
ENDBRANCH   1   4
BRANCH   2  14
ATOM     14  C   UNL d   1      45.138  28.111  58.167  0.00  0.00     0.058 A 
ATOM     15  C   UNL d   1      44.896  28.329  57.423  0.00  0.00     0.007 A 
ATOM     16  C   UNL d   1      44.970  27.792  56.801  0.00  0.00     0.024 A 
ATOM     17  C   UNL d   1      45.282  27.050  56.933  0.00  0.00     0.094 A 
ATOM     18  C   UNL d   1      45.523  26.832  57.679  0.00  0.00     0.024 A 
ATOM     19  C   UNL d   1      45.459  27.362  58.329  0.00  0.00     0.007 A 
BRANCH  17  20
ATOM     20  O   UNL d   1      45.352  26.515  56.301  0.00  0.00    -0.328 OA
ATOM     21  C   UNL d   1      44.851  25.808  56.154  0.00  0.00     0.181 C 
ENDBRANCH  17  20
ENDBRANCH   2  14
TORSDOF 3
ENDMDL
