MODEL 1
REMARK VINA RESULT:      89.2      0.000      0.000
REMARK  3 active torsions:
REMARK  status: ('A' for Active; 'I' for Inactive)
REMARK    1  A    between atoms: S_2  and  N_1 
REMARK    2  A    between atoms: C_8  and  S_2 
REMARK       I    between atoms: C_14  and  N_15 
REMARK    3  A    between atoms: N_15  and  C_19 
ROOT
ATOM      1  S   UNL d   1      59.716  48.775  51.128  0.00  0.00     0.273 S 
ATOM      2  O   UNL d   1      60.390  49.230  50.986  0.00  0.00    -0.200 OA
ATOM      3  O   UNL d   1      59.720  47.971  50.960  0.00  0.00    -0.200 OA
ENDROOT
BRANCH   1   4
ATOM      4  N   UNL d   1      59.037  49.121  51.438  0.00  0.00    -0.212 N 
ATOM      5  C   UNL d   1      58.371  49.237  50.964  0.00  0.00     0.094 A 
ATOM      6  C   UNL d   1      57.692  49.585  51.283  0.00  0.00     0.100 A 
ATOM      7  C   UNL d   1      58.381  49.005  50.169  0.00  0.00     0.020 A 
ATOM      8  C   UNL d   1      57.019  49.704  50.808  0.00  0.00     0.021 A 
ATOM      9  N   UNL d   1      58.342  49.705  52.556  0.00  0.00    -0.223 NA
ATOM     10  C   UNL d   1      57.032  49.468  50.005  0.00  0.00     0.002 A 
ATOM     11  C   UNL d   1      57.715  49.120  49.694  0.00  0.00     0.002 A 
ATOM     12  C   UNL d   1      56.373  49.581  49.532  0.00  0.00     0.000 C 
ATOM     13  C   UNL d   1      57.737  48.886  48.906  0.00  0.00     0.000 C 
ATOM     14  C   UNL d   1      59.024  49.355  52.235  0.00  0.00     0.193 A 
ENDBRANCH   1   4
BRANCH   1  15
ATOM     15  C   UNL d   1      60.388  48.415  50.818  0.00  0.00     0.104 A 
ATOM     16  C   UNL d   1      60.463  48.306  50.010  0.00  0.00     0.014 A 
ATOM     17  C   UNL d   1      61.136  47.946  49.703  0.00  0.00     0.020 A 
ATOM     18  C   UNL d   1      61.737  47.693  50.212  0.00  0.00     0.085 A 
ATOM     19  C   UNL d   1      61.655  47.806  51.024  0.00  0.00     0.020 A 
ATOM     20  C   UNL d   1      60.987  48.164  51.333  0.00  0.00     0.014 A 
BRANCH  18  21
ATOM     21  N   UNL d   1      62.404  47.335  49.899  0.00  0.00    -0.208 NA
ATOM     22  C   UNL d   1      62.343  46.581  49.573  0.00  0.00     0.279 C 
ATOM     23  O   UNL d   1      63.006  46.211  49.255  0.00  0.00    -0.265 OA
ATOM     24  C   UNL d   1      61.618  46.189  49.562  0.00  0.00     0.068 C 
ENDBRANCH  18  21
ENDBRANCH   1  15
TORSDOF 3
ENDMDL
MODEL 2
REMARK VINA RESULT:      91.2      0.929      1.147
REMARK  3 active torsions:
REMARK  status: ('A' for Active; 'I' for Inactive)
REMARK    1  A    between atoms: S_2  and  N_1 
REMARK    2  A    between atoms: C_8  and  S_2 
REMARK       I    between atoms: C_14  and  N_15 
REMARK    3  A    between atoms: N_15  and  C_19 
ROOT
ATOM      1  S   UNL d   1      60.361  48.220  51.015  0.00  0.00     0.273 S 
ATOM      2  O   UNL d   1      60.301  47.418  51.199  0.00  0.00    -0.200 OA
ATOM      3  O   UNL d   1      60.894  48.470  50.442  0.00  0.00    -0.200 OA
ENDROOT
BRANCH   1   4
ATOM      4  N   UNL d   1      59.892  48.774  51.403  0.00  0.00    -0.212 N 
ATOM      5  C   UNL d   1      59.140  48.959  51.117  0.00  0.00     0.094 A 
ATOM      6  C   UNL d   1      58.674  49.517  51.511  0.00  0.00     0.100 A 
ATOM      7  C   UNL d   1      58.850  48.589  50.435  0.00  0.00     0.020 A 
ATOM      8  C   UNL d   1      57.916  49.708  51.227  0.00  0.00     0.021 A 
ATOM      9  N   UNL d   1      59.712  49.708  52.483  0.00  0.00    -0.223 NA
ATOM     10  C   UNL d   1      57.626  49.331  50.537  0.00  0.00     0.002 A 
ATOM     11  C   UNL d   1      58.099  48.774  50.149  0.00  0.00     0.002 A 
ATOM     12  C   UNL d   1      56.880  49.514  50.252  0.00  0.00     0.000 C 
ATOM     13  C   UNL d   1      57.822  48.400  49.471  0.00  0.00     0.000 C 
ATOM     14  C   UNL d   1      60.180  49.147  52.086  0.00  0.00     0.193 A 
ENDBRANCH   1   4
BRANCH   1  15
ATOM     15  C   UNL d   1      60.837  47.678  50.619  0.00  0.00     0.104 A 
ATOM     16  C   UNL d   1      61.287  47.914  49.977  0.00  0.00     0.014 A 
ATOM     17  C   UNL d   1      61.762  47.369  49.583  0.00  0.00     0.020 A 
ATOM     18  C   UNL d   1      61.785  46.582  49.838  0.00  0.00     0.085 A 
ATOM     19  C   UNL d   1      61.330  46.352  50.485  0.00  0.00     0.020 A 
ATOM     20  C   UNL d   1      60.856  46.891  50.878  0.00  0.00     0.014 A 
BRANCH  18  21
ATOM     21  N   UNL d   1      62.260  46.046  49.440  0.00  0.00    -0.208 NA
ATOM     22  C   UNL d   1      61.953  45.311  49.229  0.00  0.00     0.279 C 
ATOM     23  O   UNL d   1      62.420  44.764  48.830  0.00  0.00    -0.265 OA
ATOM     24  C   UNL d   1      61.174  45.116  49.415  0.00  0.00     0.068 C 
ENDBRANCH  18  21
ENDBRANCH   1  15
TORSDOF 3
ENDMDL
