MODEL 1
REMARK VINA RESULT:      -5.7      0.000      0.000
REMARK  6 active torsions:
REMARK  status: ('A' for Active; 'I' for Inactive)
REMARK       I    between atoms: C_2  and  N_1 
REMARK    1  A    between atoms: C_3  and  N_1 
REMARK    2  A    between atoms: C_6  and  C_2 
REMARK    3  A    between atoms: N_7  and  C_3 
REMARK    4  A    between atoms: C_8  and  N_7 
REMARK    5  A    between atoms: C_12  and  C_8 
REMARK    6  A    between atoms: C_9  and  C_12 
ROOT
ATOM      1  C   UNL d   1     -40.251  15.247  18.630  0.00  0.00     0.179 C 
ATOM      2  S   UNL d   1     -40.611  15.864  18.234  0.00  0.00    -0.040 SA
ENDROOT
BRANCH   1   3
ATOM      3  N   UNL d   1     -39.632  14.836  18.282  0.00  0.00    -0.299 N 
ATOM      4  C   UNL d   1     -39.802  14.235  17.767  0.00  0.00     0.259 C 
ATOM      5  O   UNL d   1     -40.576  14.039  17.594  0.00  0.00    -0.267 OA
ATOM      6  H   UNL d   1     -38.864  15.030  18.454  0.00  0.00     0.171 HD
BRANCH   4   7
ATOM      7  C   UNL d   1     -39.180  13.816  17.412  0.00  0.00     0.056 A 
ATOM      8  C   UNL d   1     -38.925  13.118  17.737  0.00  0.00     0.005 A 
ATOM      9  C   UNL d   1     -38.310  12.699  17.391  0.00  0.00     0.000 A 
ATOM     10  C   UNL d   1     -37.957  12.994  16.712  0.00  0.00     0.000 A 
ATOM     11  C   UNL d   1     -38.212  13.692  16.386  0.00  0.00     0.000 A 
ATOM     12  C   UNL d   1     -38.826  14.110  16.733  0.00  0.00     0.005 A 
ENDBRANCH   4   7
ENDBRANCH   1   3
BRANCH   1  13
ATOM     13  N   UNL d   1     -40.504  15.032  19.379  0.00  0.00    -0.330 N 
ATOM     14  H   UNL d   1     -41.094  14.484  19.471  0.00  0.00     0.168 HD
BRANCH  13  15
ATOM     15  C   UNL d   1     -40.155  15.378  20.030  0.00  0.00     0.074 C 
BRANCH  15  16
ATOM     16  C   UNL d   1     -40.430  15.190  20.785  0.00  0.00     0.018 C 
BRANCH  16  17
ATOM     17  C   UNL d   1     -39.909  15.201  21.437  0.00  0.00     0.002 A 
ATOM     18  C   UNL d   1     -39.767  15.908  21.847  0.00  0.00     0.000 A 
ATOM     19  C   UNL d   1     -39.251  15.913  22.491  0.00  0.00     0.000 A 
ATOM     20  C   UNL d   1     -38.874  15.214  22.728  0.00  0.00     0.000 A 
ATOM     21  C   UNL d   1     -39.013  14.510  22.321  0.00  0.00     0.000 A 
ATOM     22  C   UNL d   1     -39.532  14.502  21.674  0.00  0.00     0.000 A 
ENDBRANCH  16  17
ENDBRANCH  15  16
ENDBRANCH  13  15
ENDBRANCH   1  13
TORSDOF 6
ENDMDL
MODEL 2
REMARK VINA RESULT:      -5.6      8.010      9.181
REMARK  6 active torsions:
REMARK  status: ('A' for Active; 'I' for Inactive)
REMARK       I    between atoms: C_2  and  N_1 
REMARK    1  A    between atoms: C_3  and  N_1 
REMARK    2  A    between atoms: C_6  and  C_2 
REMARK    3  A    between atoms: N_7  and  C_3 
REMARK    4  A    between atoms: C_8  and  N_7 
REMARK    5  A    between atoms: C_12  and  C_8 
REMARK    6  A    between atoms: C_9  and  C_12 
ROOT
ATOM      1  C   UNL d   1     -47.335  13.191  22.882  0.00  0.00     0.179 C 
ATOM      2  S   UNL d   1     -47.743  12.532  23.142  0.00  0.00    -0.040 SA
ENDROOT
BRANCH   1   3
ATOM      3  N   UNL d   1     -46.612  13.108  22.504  0.00  0.00    -0.299 N 
ATOM      4  C   UNL d   1     -45.992  12.781  22.911  0.00  0.00     0.259 C 
ATOM      5  O   UNL d   1     -46.083  12.537  23.685  0.00  0.00    -0.267 OA
ATOM      6  H   UNL d   1     -46.521  13.350  21.736  0.00  0.00     0.171 HD
BRANCH   4   7
ATOM      7  C   UNL d   1     -45.259  12.695  22.533  0.00  0.00     0.056 A 
ATOM      8  C   UNL d   1     -45.022  13.238  21.980  0.00  0.00     0.005 A 
ATOM      9  C   UNL d   1     -44.298  13.158  21.603  0.00  0.00     0.000 A 
ATOM     10  C   UNL d   1     -43.815  12.522  21.792  0.00  0.00     0.000 A 
ATOM     11  C   UNL d   1     -44.052  11.979  22.346  0.00  0.00     0.000 A 
ATOM     12  C   UNL d   1     -44.776  12.059  22.722  0.00  0.00     0.005 A 
ENDBRANCH   4   7
ENDBRANCH   1   3
BRANCH   1  13
ATOM     13  N   UNL d   1     -47.644  13.941  22.997  0.00  0.00    -0.330 N 
ATOM     14  H   UNL d   1     -47.170  14.543  23.263  0.00  0.00     0.168 HD
BRANCH  13  15
ATOM     15  C   UNL d   1     -48.433  14.073  22.841  0.00  0.00     0.074 C 
BRANCH  15  16
ATOM     16  C   UNL d   1     -48.696  14.844  22.711  0.00  0.00     0.018 C 
BRANCH  16  17
ATOM     17  C   UNL d   1     -49.487  15.052  22.878  0.00  0.00     0.002 A 
ATOM     18  C   UNL d   1     -49.665  15.540  23.524  0.00  0.00     0.000 A 
ATOM     19  C   UNL d   1     -50.448  15.742  23.685  0.00  0.00     0.000 A 
ATOM     20  C   UNL d   1     -51.059  15.457  23.201  0.00  0.00     0.000 A 
ATOM     21  C   UNL d   1     -50.885  14.971  22.558  0.00  0.00     0.000 A 
ATOM     22  C   UNL d   1     -50.097  14.767  22.395  0.00  0.00     0.000 A 
ENDBRANCH  16  17
ENDBRANCH  15  16
ENDBRANCH  13  15
ENDBRANCH   1  13
TORSDOF 6
ENDMDL
MODEL 3
REMARK VINA RESULT:      -5.6      8.897     10.381
REMARK  6 active torsions:
REMARK  status: ('A' for Active; 'I' for Inactive)
REMARK       I    between atoms: C_2  and  N_1 
REMARK    1  A    between atoms: C_3  and  N_1 
REMARK    2  A    between atoms: C_6  and  C_2 
REMARK    3  A    between atoms: N_7  and  C_3 
REMARK    4  A    between atoms: C_8  and  N_7 
REMARK    5  A    between atoms: C_12  and  C_8 
REMARK    6  A    between atoms: C_9  and  C_12 
ROOT
ATOM      1  C   UNL d   1     -48.760  12.141  23.253  0.00  0.00     0.179 C 
ATOM      2  S   UNL d   1     -49.142  11.426  23.150  0.00  0.00    -0.040 SA
ENDROOT
BRANCH   1   3
ATOM      3  N   UNL d   1     -49.130  12.842  23.043  0.00  0.00    -0.299 N 
ATOM      4  C   UNL d   1     -49.899  12.962  23.267  0.00  0.00     0.259 C 
ATOM      5  O   UNL d   1     -50.302  12.396  23.696  0.00  0.00    -0.267 OA
ATOM      6  H   UNL d   1     -48.730  13.404  22.617  0.00  0.00     0.171 HD
BRANCH   4   7
ATOM      7  C   UNL d   1     -50.278  13.669  23.057  0.00  0.00     0.056 A 
ATOM      8  C   UNL d   1     -50.688  13.717  22.358  0.00  0.00     0.005 A 
ATOM      9  C   UNL d   1     -51.064  14.414  22.145  0.00  0.00     0.000 A 
ATOM     10  C   UNL d   1     -51.022  15.062  22.646  0.00  0.00     0.000 A 
ATOM     11  C   UNL d   1     -50.612  15.015  23.344  0.00  0.00     0.000 A 
ATOM     12  C   UNL d   1     -50.235  14.318  23.557  0.00  0.00     0.005 A 
ENDBRANCH   4   7
ENDBRANCH   1   3
BRANCH   1  13
ATOM     13  N   UNL d   1     -48.004  12.165  23.569  0.00  0.00    -0.330 N 
ATOM     14  H   UNL d   1     -47.887  12.043  24.362  0.00  0.00     0.168 HD
BRANCH  13  15
ATOM     15  C   UNL d   1     -47.373  12.312  23.075  0.00  0.00     0.074 C 
BRANCH  15  16
ATOM     16  C   UNL d   1     -46.628  12.454  23.401  0.00  0.00     0.018 C 
BRANCH  16  17
ATOM     17  C   UNL d   1     -45.995  12.693  22.912  0.00  0.00     0.002 A 
ATOM     18  C   UNL d   1     -45.969  13.463  22.607  0.00  0.00     0.000 A 
ATOM     19  C   UNL d   1     -45.341  13.694  22.124  0.00  0.00     0.000 A 
ATOM     20  C   UNL d   1     -44.735  13.156  21.945  0.00  0.00     0.000 A 
ATOM     21  C   UNL d   1     -44.759  12.390  22.247  0.00  0.00     0.000 A 
ATOM     22  C   UNL d   1     -45.390  12.155  22.732  0.00  0.00     0.000 A 
ENDBRANCH  16  17
ENDBRANCH  15  16
ENDBRANCH  13  15
ENDBRANCH   1  13
TORSDOF 6
ENDMDL
MODEL 4
REMARK VINA RESULT:      -5.4      8.710     10.133
REMARK  6 active torsions:
REMARK  status: ('A' for Active; 'I' for Inactive)
REMARK       I    between atoms: C_2  and  N_1 
REMARK    1  A    between atoms: C_3  and  N_1 
REMARK    2  A    between atoms: C_6  and  C_2 
REMARK    3  A    between atoms: N_7  and  C_3 
REMARK    4  A    between atoms: C_8  and  N_7 
REMARK    5  A    between atoms: C_12  and  C_8 
REMARK    6  A    between atoms: C_9  and  C_12 
ROOT
ATOM      1  C   UNL d   1     -48.515  14.939  22.668  0.00  0.00     0.179 C 
ATOM      2  S   UNL d   1     -48.856  15.595  22.321  0.00  0.00    -0.040 SA
ENDROOT
BRANCH   1   3
ATOM      3  N   UNL d   1     -48.941  14.241  22.741  0.00  0.00    -0.299 N 
ATOM      4  C   UNL d   1     -49.742  14.281  22.852  0.00  0.00     0.259 C 
ATOM      5  O   UNL d   1     -50.123  15.002  22.891  0.00  0.00    -0.267 OA
ATOM      6  H   UNL d   1     -48.562  13.525  22.703  0.00  0.00     0.171 HD
BRANCH   4   7
ATOM      7  C   UNL d   1     -50.177  13.578  22.927  0.00  0.00     0.056 A 
ATOM      8  C   UNL d   1     -50.146  13.155  23.618  0.00  0.00     0.005 A 
ATOM      9  C   UNL d   1     -50.574  12.459  23.698  0.00  0.00     0.000 A 
ATOM     10  C   UNL d   1     -51.033  12.197  23.071  0.00  0.00     0.000 A 
ATOM     11  C   UNL d   1     -51.064  12.620  22.380  0.00  0.00     0.000 A 
ATOM     12  C   UNL d   1     -50.636  13.316  22.301  0.00  0.00     0.005 A 
ENDBRANCH   4   7
ENDBRANCH   1   3
BRANCH   1  13
ATOM     13  N   UNL d   1     -47.746  14.971  22.947  0.00  0.00    -0.330 N 
ATOM     14  H   UNL d   1     -47.569  15.394  23.616  0.00  0.00     0.168 HD
BRANCH  13  15
ATOM     15  C   UNL d   1     -47.161  14.572  22.543  0.00  0.00     0.074 C 
BRANCH  15  16
ATOM     16  C   UNL d   1     -46.451  14.398  22.927  0.00  0.00     0.018 C 
BRANCH  16  17
ATOM     17  C   UNL d   1     -46.090  13.652  22.823  0.00  0.00     0.002 A 
ATOM     18  C   UNL d   1     -45.504  13.547  22.245  0.00  0.00     0.000 A 
ATOM     19  C   UNL d   1     -45.151  12.808  22.148  0.00  0.00     0.000 A 
ATOM     20  C   UNL d   1     -45.380  12.171  22.626  0.00  0.00     0.000 A 
ATOM     21  C   UNL d   1     -45.962  12.273  23.201  0.00  0.00     0.000 A 
ATOM     22  C   UNL d   1     -46.319  13.015  23.301  0.00  0.00     0.000 A 
ENDBRANCH  16  17
ENDBRANCH  15  16
ENDBRANCH  13  15
ENDBRANCH   1  13
TORSDOF 6
ENDMDL
MODEL 5
REMARK VINA RESULT:      -5.3      1.537      2.153
REMARK  6 active torsions:
REMARK  status: ('A' for Active; 'I' for Inactive)
REMARK       I    between atoms: C_2  and  N_1 
REMARK    1  A    between atoms: C_3  and  N_1 
REMARK    2  A    between atoms: C_6  and  C_2 
REMARK    3  A    between atoms: N_7  and  C_3 
REMARK    4  A    between atoms: C_8  and  N_7 
REMARK    5  A    between atoms: C_12  and  C_8 
REMARK    6  A    between atoms: C_9  and  C_12 
ROOT
ATOM      1  C   UNL d   1     -39.093  14.063  19.357  0.00  0.00     0.179 C 
ATOM      2  S   UNL d   1     -38.397  13.683  19.162  0.00  0.00    -0.040 SA
ENDROOT
BRANCH   1   3
ATOM      3  N   UNL d   1     -39.432  14.598  18.836  0.00  0.00    -0.299 N 
ATOM      4  C   UNL d   1     -39.744  14.325  18.140  0.00  0.00     0.259 C 
ATOM      5  O   UNL d   1     -39.722  13.530  17.957  0.00  0.00    -0.267 OA
ATOM      6  H   UNL d   1     -39.454  15.388  19.018  0.00  0.00     0.171 HD
BRANCH   4   7
ATOM      7  C   UNL d   1     -40.088  14.863  17.610  0.00  0.00     0.056 A 
ATOM      8  C   UNL d   1     -40.886  15.005  17.639  0.00  0.00     0.005 A 
ATOM      9  C   UNL d   1     -41.231  15.536  17.117  0.00  0.00     0.000 A 
ATOM     10  C   UNL d   1     -40.761  15.922  16.567  0.00  0.00     0.000 A 
ATOM     11  C   UNL d   1     -39.963  15.780  16.538  0.00  0.00     0.000 A 
ATOM     12  C   UNL d   1     -39.618  15.249  17.060  0.00  0.00     0.005 A 
ENDBRANCH   4   7
ENDBRANCH   1   3
BRANCH   1  13
ATOM     13  N   UNL d   1     -39.461  13.912  20.073  0.00  0.00    -0.330 N 
ATOM     14  H   UNL d   1     -40.162  13.506  20.097  0.00  0.00     0.168 HD
BRANCH  13  15
ATOM     15  C   UNL d   1     -39.111  14.176  20.761  0.00  0.00     0.074 C 
BRANCH  15  16
ATOM     16  C   UNL d   1     -39.494  14.053  21.482  0.00  0.00     0.018 C 
BRANCH  16  17
ATOM     17  C   UNL d   1     -39.143  14.314  22.193  0.00  0.00     0.002 A 
ATOM     18  C   UNL d   1     -38.798  13.768  22.714  0.00  0.00     0.000 A 
ATOM     19  C   UNL d   1     -38.452  14.031  23.415  0.00  0.00     0.000 A 
ATOM     20  C   UNL d   1     -38.449  14.839  23.600  0.00  0.00     0.000 A 
ATOM     21  C   UNL d   1     -38.791  15.384  23.084  0.00  0.00     0.000 A 
ATOM     22  C   UNL d   1     -39.139  15.122  22.378  0.00  0.00     0.000 A 
ENDBRANCH  16  17
ENDBRANCH  15  16
ENDBRANCH  13  15
ENDBRANCH   1  13
TORSDOF 6
ENDMDL
MODEL 6
REMARK VINA RESULT:      -5.2      8.213      9.841
REMARK  6 active torsions:
REMARK  status: ('A' for Active; 'I' for Inactive)
REMARK       I    between atoms: C_2  and  N_1 
REMARK    1  A    between atoms: C_3  and  N_1 
REMARK    2  A    between atoms: C_6  and  C_2 
REMARK    3  A    between atoms: N_7  and  C_3 
REMARK    4  A    between atoms: C_8  and  N_7 
REMARK    5  A    between atoms: C_12  and  C_8 
REMARK    6  A    between atoms: C_9  and  C_12 
ROOT
ATOM      1  C   UNL d   1     -48.235  13.162  22.373  0.00  0.00     0.179 C 
ATOM      2  S   UNL d   1     -48.495  12.416  22.166  0.00  0.00    -0.040 SA
ENDROOT
BRANCH   1   3
ATOM      3  N   UNL d   1     -48.722  13.665  22.801  0.00  0.00    -0.299 N 
ATOM      4  C   UNL d   1     -49.298  14.079  22.409  0.00  0.00     0.259 C 
ATOM      5  O   UNL d   1     -49.395  13.999  21.602  0.00  0.00    -0.267 OA
ATOM      6  H   UNL d   1     -48.626  13.745  23.602  0.00  0.00     0.171 HD
BRANCH   4   7
ATOM      7  C   UNL d   1     -49.792  14.590  22.837  0.00  0.00     0.056 A 
ATOM      8  C   UNL d   1     -49.497  15.283  23.137  0.00  0.00     0.005 A 
ATOM      9  C   UNL d   1     -49.981  15.792  23.561  0.00  0.00     0.000 A 
ATOM     10  C   UNL d   1     -50.769  15.592  23.677  0.00  0.00     0.000 A 
ATOM     11  C   UNL d   1     -51.064  14.899  23.377  0.00  0.00     0.000 A 
ATOM     12  C   UNL d   1     -50.579  14.391  22.954  0.00  0.00     0.005 A 
ENDBRANCH   4   7
ENDBRANCH   1   3
BRANCH   1  13
ATOM     13  N   UNL d   1     -47.487  13.415  22.157  0.00  0.00    -0.330 N 
ATOM     14  H   UNL d   1     -47.395  14.084  21.707  0.00  0.00     0.168 HD
BRANCH  13  15
ATOM     15  C   UNL d   1     -46.838  12.987  22.400  0.00  0.00     0.074 C 
BRANCH  15  16
ATOM     16  C   UNL d   1     -46.124  13.377  22.537  0.00  0.00     0.018 C 
BRANCH  16  17
ATOM     17  C   UNL d   1     -45.399  12.989  22.395  0.00  0.00     0.002 A 
ATOM     18  C   UNL d   1     -45.219  12.279  22.786  0.00  0.00     0.000 A 
ATOM     19  C   UNL d   1     -44.502  11.900  22.641  0.00  0.00     0.000 A 
ATOM     20  C   UNL d   1     -43.959  12.225  22.105  0.00  0.00     0.000 A 
ATOM     21  C   UNL d   1     -44.135  12.930  21.715  0.00  0.00     0.000 A 
ATOM     22  C   UNL d   1     -44.856  13.314  21.859  0.00  0.00     0.000 A 
ENDBRANCH  16  17
ENDBRANCH  15  16
ENDBRANCH  13  15
ENDBRANCH   1  13
TORSDOF 6
ENDMDL
MODEL 7
REMARK VINA RESULT:      -5.2      8.566      9.892
REMARK  6 active torsions:
REMARK  status: ('A' for Active; 'I' for Inactive)
REMARK       I    between atoms: C_2  and  N_1 
REMARK    1  A    between atoms: C_3  and  N_1 
REMARK    2  A    between atoms: C_6  and  C_2 
REMARK    3  A    between atoms: N_7  and  C_3 
REMARK    4  A    between atoms: C_8  and  N_7 
REMARK    5  A    between atoms: C_12  and  C_8 
REMARK    6  A    between atoms: C_9  and  C_12 
ROOT
ATOM      1  C   UNL d   1     -47.345  14.476  22.822  0.00  0.00     0.179 C 
ATOM      2  S   UNL d   1     -46.767  14.996  22.572  0.00  0.00    -0.040 SA
ENDROOT
BRANCH   1   3
ATOM      3  N   UNL d   1     -47.180  13.676  22.892  0.00  0.00    -0.299 N 
ATOM      4  C   UNL d   1     -46.453  13.449  23.168  0.00  0.00     0.259 C 
ATOM      5  O   UNL d   1     -45.891  14.006  23.373  0.00  0.00    -0.267 OA
ATOM      6  H   UNL d   1     -47.737  13.123  22.689  0.00  0.00     0.171 HD
BRANCH   4   7
ATOM      7  C   UNL d   1     -46.280  12.641  23.241  0.00  0.00     0.056 A 
ATOM      8  C   UNL d   1     -45.593  12.344  22.930  0.00  0.00     0.005 A 
ATOM      9  C   UNL d   1     -45.417  11.545  22.999  0.00  0.00     0.000 A 
ATOM     10  C   UNL d   1     -45.945  11.050  23.387  0.00  0.00     0.000 A 
ATOM     11  C   UNL d   1     -46.632  11.347  23.698  0.00  0.00     0.000 A 
ATOM     12  C   UNL d   1     -46.807  12.146  23.628  0.00  0.00     0.005 A 
ENDBRANCH   4   7
ENDBRANCH   1   3
BRANCH   1  13
ATOM     13  N   UNL d   1     -48.095  14.749  23.005  0.00  0.00    -0.330 N 
ATOM     14  H   UNL d   1     -48.211  15.234  23.644  0.00  0.00     0.168 HD
BRANCH  13  15
ATOM     15  C   UNL d   1     -48.724  14.525  22.537  0.00  0.00     0.074 C 
BRANCH  15  16
ATOM     16  C   UNL d   1     -49.490  14.564  22.841  0.00  0.00     0.018 C 
BRANCH  16  17
ATOM     17  C   UNL d   1     -50.018  13.927  22.732  0.00  0.00     0.002 A 
ATOM     18  C   UNL d   1     -50.361  13.550  23.386  0.00  0.00     0.000 A 
ATOM     19  C   UNL d   1     -50.882  12.921  23.272  0.00  0.00     0.000 A 
ATOM     20  C   UNL d   1     -51.064  12.665  22.504  0.00  0.00     0.000 A 
ATOM     21  C   UNL d   1     -50.725  13.039  21.852  0.00  0.00     0.000 A 
ATOM     22  C   UNL d   1     -50.200  13.671  21.964  0.00  0.00     0.000 A 
ENDBRANCH  16  17
ENDBRANCH  15  16
ENDBRANCH  13  15
ENDBRANCH   1  13
TORSDOF 6
ENDMDL
