MODEL 1
REMARK VINA RESULT:      -5.2      0.000      0.000
REMARK  1 active torsions:
REMARK  status: ('A' for Active; 'I' for Inactive)
REMARK    1  A    between atoms: C_7  and  C_1 
ROOT
ATOM      1  C   UNL d   1     -41.539-122.477 -51.352  0.00  0.00     0.062 A 
ATOM      2  C   UNL d   1     -41.664-123.035 -51.930  0.00  0.00     0.199 A 
ATOM      3  C   UNL d   1     -41.277-121.719 -51.537  0.00  0.00     0.103 A 
ATOM      4  C   UNL d   1     -41.527-122.846 -52.739  0.00  0.00     0.062 A 
ATOM      5  C   UNL d   1     -41.269-122.106 -52.945  0.00  0.00     0.106 A 
ATOM      6  O   UNL d   1     -41.140-121.531 -52.346  0.00  0.00    -0.307 OA
ATOM      7  C   UNL d   1     -41.134-121.922 -53.738  0.00  0.00     0.067 A 
ATOM      8  C   UNL d   1     -41.662-123.437 -53.322  0.00  0.00     0.009 A 
ATOM      9  O   UNL d   1     -41.938-123.815 -51.694  0.00  0.00    -0.286 OA
ATOM     10  C   UNL d   1     -41.260-122.480 -54.312  0.00  0.00     0.198 A 
ATOM     11  C   UNL d   1     -41.525-123.249 -54.130  0.00  0.00     0.042 A 
ATOM     12  C   UNL d   1     -41.147-121.142 -50.938  0.00  0.00     0.027 C 
ATOM     13  O   UNL d   1     -41.124-122.293 -55.116  0.00  0.00    -0.286 OA
ENDROOT
BRANCH   1  14
ATOM     14  C   UNL d   1     -41.677-122.678 -50.572  0.00  0.00     0.005 A 
ATOM     15  C   UNL d   1     -42.359-122.420 -50.183  0.00  0.00     0.000 A 
ATOM     16  C   UNL d   1     -42.920-121.946 -50.589  0.00  0.00     0.000 C 
ATOM     17  C   UNL d   1     -42.495-122.626 -49.396  0.00  0.00     0.000 A 
ATOM     18  C   UNL d   1     -41.952-123.083 -49.010  0.00  0.00     0.000 A 
ATOM     19  C   UNL d   1     -41.276-123.349 -49.364  0.00  0.00     0.000 A 
ATOM     20  C   UNL d   1     -41.134-123.143 -50.162  0.00  0.00     0.000 A 
ENDBRANCH   1  14
TORSDOF 1
ENDMDL
MODEL 2
REMARK VINA RESULT:      -4.5      1.157      3.972
REMARK  1 active torsions:
REMARK  status: ('A' for Active; 'I' for Inactive)
REMARK    1  A    between atoms: C_7  and  C_1 
ROOT
ATOM      1  C   UNL d   1     -41.655-122.449 -53.622  0.00  0.00     0.062 A 
ATOM      2  C   UNL d   1     -41.581-121.911 -53.017  0.00  0.00     0.199 A 
ATOM      3  C   UNL d   1     -41.619-123.259 -53.483  0.00  0.00     0.103 A 
ATOM      4  C   UNL d   1     -41.465-122.175 -52.226  0.00  0.00     0.062 A 
ATOM      5  C   UNL d   1     -41.427-122.969 -52.065  0.00  0.00     0.106 A 
ATOM      6  O   UNL d   1     -41.503-123.522 -52.693  0.00  0.00    -0.307 OA
ATOM      7  C   UNL d   1     -41.313-123.228 -51.290  0.00  0.00     0.067 A 
ATOM      8  C   UNL d   1     -41.391-121.604 -51.614  0.00  0.00     0.009 A 
ATOM      9  O   UNL d   1     -41.624-121.073 -53.206  0.00  0.00    -0.286 OA
ATOM     10  C   UNL d   1     -41.240-122.689 -50.688  0.00  0.00     0.198 A 
ATOM     11  C   UNL d   1     -41.276-121.868 -50.824  0.00  0.00     0.042 A 
ATOM     12  C   UNL d   1     -41.695-123.815 -54.111  0.00  0.00     0.027 C 
ATOM     13  O   UNL d   1     -41.125-122.951 -49.902  0.00  0.00    -0.286 OA
ENDROOT
BRANCH   1  14
ATOM     14  C   UNL d   1     -41.767-122.174 -54.384  0.00  0.00     0.005 A 
ATOM     15  C   UNL d   1     -42.512-121.928 -54.640  0.00  0.00     0.000 A 
ATOM     16  C   UNL d   1     -43.167-121.958 -54.115  0.00  0.00     0.000 C 
ATOM     17  C   UNL d   1     -42.621-121.650 -55.409  0.00  0.00     0.000 A 
ATOM     18  C   UNL d   1     -41.987-121.623 -55.910  0.00  0.00     0.000 A 
ATOM     19  C   UNL d   1     -41.245-121.857 -55.688  0.00  0.00     0.000 A 
ATOM     20  C   UNL d   1     -41.131-122.139 -54.908  0.00  0.00     0.000 A 
ENDBRANCH   1  14
TORSDOF 1
ENDMDL
MODEL 3
REMARK VINA RESULT:      -3.6      0.891      1.274
REMARK  1 active torsions:
REMARK  status: ('A' for Active; 'I' for Inactive)
REMARK    1  A    between atoms: C_7  and  C_1 
ROOT
ATOM      1  C   UNL d   1     -41.981-122.703 -50.418  0.00  0.00     0.062 A 
ATOM      2  C   UNL d   1     -41.563-123.123 -50.973  0.00  0.00     0.199 A 
ATOM      3  C   UNL d   1     -42.414-122.034 -50.623  0.00  0.00     0.103 A 
ATOM      4  C   UNL d   1     -41.563-122.880 -51.779  0.00  0.00     0.062 A 
ATOM      5  C   UNL d   1     -41.983-122.223 -52.005  0.00  0.00     0.106 A 
ATOM      6  O   UNL d   1     -42.415-121.791 -51.428  0.00  0.00    -0.307 OA
ATOM      7  C   UNL d   1     -41.983-121.985 -52.795  0.00  0.00     0.067 A 
ATOM      8  C   UNL d   1     -41.124-123.327 -52.339  0.00  0.00     0.009 A 
ATOM      9  O   UNL d   1     -41.123-123.817 -50.717  0.00  0.00    -0.286 OA
ATOM     10  C   UNL d   1     -41.564-122.406 -53.346  0.00  0.00     0.198 A 
ATOM     11  C   UNL d   1     -41.125-123.084 -53.144  0.00  0.00     0.042 A 
ATOM     12  C   UNL d   1     -42.848-121.599 -50.046  0.00  0.00     0.027 C 
ATOM     13  O   UNL d   1     -41.565-122.164 -54.148  0.00  0.00    -0.286 OA
ENDROOT
BRANCH   1  14
ATOM     14  C   UNL d   1     -41.969-122.955 -49.640  0.00  0.00     0.005 A 
ATOM     15  C   UNL d   1     -42.576-123.425 -49.338  0.00  0.00     0.000 A 
ATOM     16  C   UNL d   1     -43.217-123.651 -49.831  0.00  0.00     0.000 C 
ATOM     17  C   UNL d   1     -42.560-123.677 -48.552  0.00  0.00     0.000 A 
ATOM     18  C   UNL d   1     -41.940-123.457 -48.082  0.00  0.00     0.000 A 
ATOM     19  C   UNL d   1     -41.332-122.997 -48.350  0.00  0.00     0.000 A 
ATOM     20  C   UNL d   1     -41.345-122.740 -49.146  0.00  0.00     0.000 A 
ENDBRANCH   1  14
TORSDOF 1
ENDMDL
MODEL 4
REMARK VINA RESULT:      -3.5      1.080      3.552
REMARK  1 active torsions:
REMARK  status: ('A' for Active; 'I' for Inactive)
REMARK    1  A    between atoms: C_7  and  C_1 
ROOT
ATOM      1  C   UNL d   1     -41.537-122.314 -52.947  0.00  0.00     0.062 A 
ATOM      2  C   UNL d   1     -41.639-123.010 -52.541  0.00  0.00     0.199 A 
ATOM      3  C   UNL d   1     -41.305-121.624 -52.564  0.00  0.00     0.103 A 
ATOM      4  C   UNL d   1     -41.509-123.041 -51.710  0.00  0.00     0.062 A 
ATOM      5  C   UNL d   1     -41.279-122.373 -51.311  0.00  0.00     0.106 A 
ATOM      6  O   UNL d   1     -41.175-121.655 -51.733  0.00  0.00    -0.307 OA
ATOM      7  C   UNL d   1     -41.151-122.403 -50.496  0.00  0.00     0.067 A 
ATOM      8  C   UNL d   1     -41.620-123.771 -51.308  0.00  0.00     0.009 A 
ATOM      9  O   UNL d   1     -41.883-123.709 -52.981  0.00  0.00    -0.286 OA
ATOM     10  C   UNL d   1     -41.254-123.100 -50.094  0.00  0.00     0.198 A 
ATOM     11  C   UNL d   1     -41.489-123.801 -50.478  0.00  0.00     0.042 A 
ATOM     12  C   UNL d   1     -41.200-120.902 -52.985  0.00  0.00     0.027 C 
ATOM     13  O   UNL d   1     -41.124-123.130 -49.268  0.00  0.00    -0.286 OA
ENDROOT
BRANCH   1  14
ATOM     14  C   UNL d   1     -41.669-122.303 -53.754  0.00  0.00     0.005 A 
ATOM     15  C   UNL d   1     -42.346-121.951 -54.068  0.00  0.00     0.000 A 
ATOM     16  C   UNL d   1     -42.910-121.597 -53.557  0.00  0.00     0.000 C 
ATOM     17  C   UNL d   1     -42.476-121.943 -54.883  0.00  0.00     0.000 A 
ATOM     18  C   UNL d   1     -41.929-122.285 -55.370  0.00  0.00     0.000 A 
ATOM     19  C   UNL d   1     -41.257-122.638 -55.092  0.00  0.00     0.000 A 
ATOM     20  C   UNL d   1     -41.123-122.648 -54.267  0.00  0.00     0.000 A 
ENDBRANCH   1  14
TORSDOF 1
ENDMDL
