MODEL 1
REMARK VINA RESULT:      -1.7      0.000      0.000
REMARK  5 active torsions:
REMARK  status: ('A' for Active; 'I' for Inactive)
REMARK    1  A    between atoms: C_16  and  N_3 
REMARK    2  A    between atoms: C_11  and  C_6 
REMARK       I    between atoms: N_20  and  C_11 
REMARK    3  A    between atoms: C_21  and  N_20 
REMARK    4  A    between atoms: C_23  and  C_21 
REMARK    5  A    between atoms: C_22  and  C_23 
ROOT
ATOM      1  C   UNL d   1      32.848  22.357 -21.718  0.00  0.00     0.155 A 
ATOM      2  C   UNL d   1      32.990  21.609 -21.394  0.00  0.00     0.091 A 
ATOM      3  N   UNL d   1      32.743  22.442 -22.528  0.00  0.00    -0.275 N 
ATOM      4  N   UNL d   1      32.813  23.014 -21.224  0.00  0.00    -0.210 NA
ATOM      5  C   UNL d   1      32.777  21.781 -23.038  0.00  0.00     0.175 A 
ATOM      6  C   UNL d   1      32.919  21.029 -22.713  0.00  0.00     0.094 A 
ATOM      7  C   UNL d   1      33.096  21.516 -20.581  0.00  0.00     0.269 A 
ATOM      8  N   UNL d   1      33.060  22.178 -20.089  0.00  0.00    -0.258 N 
ATOM      9  C   UNL d   1      32.918  22.933 -20.406  0.00  0.00     0.152 A 
ATOM     10  C   UNL d   1      33.026  20.937 -21.890  0.00  0.00     0.016 A 
ATOM     11  N   UNL d   1      32.671  21.870 -23.850  0.00  0.00    -0.128 N 
ATOM     12  C   UNL d   1      33.166  22.093 -19.269  0.00  0.00     0.084 A 
ATOM     13  O   UNL d   1      33.237  20.769 -20.257  0.00  0.00    -0.266 OA
ATOM     14  C   UNL d   1      32.884  23.585 -19.915  0.00  0.00     0.038 A 
ATOM     15  C   UNL d   1      33.129  22.753 -18.790  0.00  0.00     0.019 A 
ATOM     16  C   UNL d   1      32.987  23.504 -19.115  0.00  0.00     0.005 A 
ENDROOT
BRANCH   6  17
ATOM     17  C   UNL d   1      32.955  20.368 -23.205  0.00  0.00     0.282 C 
ATOM     18  O   UNL d   1      33.240  20.434 -23.974  0.00  0.00    -0.265 OA
ATOM     19  N   UNL d   1      32.700  19.627 -22.921  0.00  0.00    -0.206 NA
BRANCH  19  20
ATOM     20  C   UNL d   1      32.735  18.966 -23.412  0.00  0.00     0.102 C 
BRANCH  20  21
ATOM     21  C   UNL d   1      32.179  18.364 -23.330  0.00  0.00     0.021 C 
BRANCH  21  22
ATOM     22  C   UNL d   1      32.270  17.656 -23.740  0.00  0.00     0.002 A 
ATOM     23  C   UNL d   1      32.922  17.178 -23.588  0.00  0.00     0.000 A 
ATOM     24  C   UNL d   1      33.019  16.469 -23.995  0.00  0.00     0.000 A 
ATOM     25  C   UNL d   1      32.453  16.244 -24.556  0.00  0.00     0.000 A 
ATOM     26  C   UNL d   1      31.800  16.733 -24.702  0.00  0.00     0.000 A 
ATOM     27  C   UNL d   1      31.714  17.433 -24.294  0.00  0.00     0.000 A 
ENDBRANCH  21  22
ENDBRANCH  20  21
ENDBRANCH  19  20
ENDBRANCH   6  17
BRANCH   3  28
ATOM     28  C   UNL d   1      32.601  23.194 -22.853  0.00  0.00     0.067 C 
ATOM     29  C   UNL d   1      31.820  23.432 -23.012  0.00  0.00     0.019 C 
ATOM     30  C   UNL d   1      33.229  23.701 -23.017  0.00  0.00     0.019 C 
ENDBRANCH   3  28
TORSDOF 5
ENDMDL
