MODEL 1
REMARK VINA RESULT:      62.6      0.000      0.000
REMARK  3 active torsions:
REMARK  status: ('A' for Active; 'I' for Inactive)
REMARK    1  A    between atoms: C_10  and  N_2 
REMARK       I    between atoms: N_3  and  C_6 
REMARK    2  A    between atoms: C_6  and  C_11 
REMARK    3  A    between atoms: C_11  and  C_10 
ROOT
ATOM      1  N   UNL d   1      58.504  49.702  50.359  0.00  0.00    -0.275 N 
ATOM      2  C   UNL d   1      58.689  49.703  49.556  0.00  0.00     0.067 A 
ATOM      3  C   UNL d   1      59.041  49.700  50.980  0.00  0.00     0.266 C 
ATOM      4  C   UNL d   1      57.679  49.703  50.420  0.00  0.00     0.067 A 
ATOM      5  C   UNL d   1      57.364  49.705  49.668  0.00  0.00     0.018 A 
ATOM      6  C   UNL d   1      57.992  49.705  49.126  0.00  0.00     0.019 A 
ATOM      7  O   UNL d   1      58.768  49.699  51.759  0.00  0.00    -0.267 OA
ATOM      8  C   UNL d   1      59.461  49.702  49.234  0.00  0.00     0.019 C 
ATOM      9  C   UNL d   1      57.177  49.703  51.078  0.00  0.00     0.018 A 
ATOM     10  C   UNL d   1      56.557  49.707  49.546  0.00  0.00     0.002 A 
ATOM     11  C   UNL d   1      56.366  49.705  50.974  0.00  0.00     0.002 A 
ATOM     12  C   UNL d   1      56.042  49.707  50.206  0.00  0.00     0.000 A 
ENDROOT
BRANCH   3  13
ATOM     13  C   UNL d   1      59.852  49.699  50.832  0.00  0.00     0.080 C 
BRANCH  13  14
ATOM     14  C   UNL d   1      60.365  49.274  51.314  0.00  0.00     0.088 C 
BRANCH  14  15
ATOM     15  N   UNL d   1      60.841  48.683  50.995  0.00  0.00    -0.268 N 
ATOM     16  C   UNL d   1      61.499  48.796  50.514  0.00  0.00     0.296 A 
ATOM     17  S   UNL d   1      61.802  48.016  50.329  0.00  0.00    -0.025 SA
ATOM     18  O   UNL d   1      61.796  49.525  50.266  0.00  0.00    -0.259 OA
ATOM     19  C   UNL d   1      61.338  47.484  50.689  0.00  0.00     0.050 A 
ATOM     20  C   UNL d   1      61.379  46.655  50.697  0.00  0.00     0.008 A 
ATOM     21  C   UNL d   1      60.739  47.871  51.105  0.00  0.00     0.073 A 
ATOM     22  C   UNL d   1      60.819  46.215  51.122  0.00  0.00     0.001 A 
ATOM     23  C   UNL d   1      60.225  46.613  51.534  0.00  0.00     0.002 A 
ATOM     24  C   UNL d   1      60.187  47.440  51.525  0.00  0.00     0.018 A 
ENDBRANCH  14  15
ENDBRANCH  13  14
ENDBRANCH   3  13
TORSDOF 3
ENDMDL
