MODEL 1
REMARK VINA RESULT:      -8.0      0.000      0.000
REMARK  4 active torsions:
REMARK  status: ('A' for Active; 'I' for Inactive)
REMARK    1  A    between atoms: C_8  and  N_2 
REMARK    2  A    between atoms: C_13  and  C_8 
REMARK    3  A    between atoms: O_17  and  C_13 
REMARK    4  A    between atoms: O_18  and  C_15 
ROOT
ATOM      1  C   UNL d   1     -48.529  13.411  23.278  0.00  0.00     0.166 A 
ATOM      2  N   UNL d   1     -48.120  12.703  23.388  0.00  0.00    -0.285 N 
ATOM      3  C   UNL d   1     -48.000  13.960  22.954  0.00  0.00     0.117 A 
ATOM      4  C   UNL d   1     -47.267  13.594  22.864  0.00  0.00     0.039 A 
ATOM      5  C   UNL d   1     -47.342  12.818  23.132  0.00  0.00     0.067 A 
ATOM      6  N   UNL d   1     -49.306  13.617  23.431  0.00  0.00    -0.225 NA
ATOM      7  N   UNL d   1     -48.258  14.722  22.784  0.00  0.00    -0.241 NA
ATOM      8  C   UNL d   1     -49.574  14.385  23.263  0.00  0.00     0.101 A 
ATOM      9  C   UNL d   1     -49.045  14.934  22.938  0.00  0.00     0.099 A 
ATOM     10  C   UNL d   1     -46.690  12.299  23.114  0.00  0.00     0.020 A 
ATOM     11  C   UNL d   1     -46.550  13.856  22.578  0.00  0.00     0.027 A 
ATOM     12  C   UNL d   1     -45.898  13.350  22.556  0.00  0.00     0.094 A 
ATOM     13  C   UNL d   1     -45.972  12.573  22.824  0.00  0.00     0.026 A 
ATOM     14  C   UNL d   1     -49.303  15.696  22.768  0.00  0.00     0.021 A 
ATOM     15  C   UNL d   1     -50.346  14.601  23.411  0.00  0.00     0.021 A 
ATOM     16  C   UNL d   1     -50.612  15.367  23.242  0.00  0.00     0.002 A 
ATOM     17  C   UNL d   1     -50.083  15.916  22.918  0.00  0.00     0.002 A 
ENDROOT
BRANCH   2  18
ATOM     18  C   UNL d   1     -48.430  12.005  23.698  0.00  0.00     0.150 C 
BRANCH  18  19
ATOM     19  C   UNL d   1     -48.958  11.553  23.247  0.00  0.00     0.314 C 
ATOM     20  O   UNL d   1     -48.677  11.144  22.582  0.00  0.00    -0.257 OA
BRANCH  19  21
ATOM     21  O   UNL d   1     -49.741  11.512  23.455  0.00  0.00    -0.295 OA
ATOM     22  C   UNL d   1     -50.073  10.793  23.698  0.00  0.00     0.185 C 
ENDBRANCH  19  21
ENDBRANCH  18  19
ENDBRANCH   2  18
BRANCH  12  23
ATOM     23  O   UNL d   1     -45.180  13.624  22.265  0.00  0.00    -0.328 OA
ATOM     24  C   UNL d   1     -44.714  13.147  21.780  0.00  0.00     0.181 C 
ENDBRANCH  12  23
TORSDOF 4
ENDMDL
MODEL 2
REMARK VINA RESULT:      -7.3      1.180      1.623
REMARK  4 active torsions:
REMARK  status: ('A' for Active; 'I' for Inactive)
REMARK    1  A    between atoms: C_8  and  N_2 
REMARK    2  A    between atoms: C_13  and  C_8 
REMARK    3  A    between atoms: O_17  and  C_13 
REMARK    4  A    between atoms: O_18  and  C_15 
ROOT
ATOM      1  C   UNL d   1     -48.056  13.046  23.153  0.00  0.00     0.166 A 
ATOM      2  N   UNL d   1     -48.170  12.270  23.410  0.00  0.00    -0.285 N 
ATOM      3  C   UNL d   1     -47.242  13.161  23.051  0.00  0.00     0.117 A 
ATOM      4  C   UNL d   1     -46.854  12.461  23.244  0.00  0.00     0.039 A 
ATOM      5  C   UNL d   1     -47.426  11.911  23.465  0.00  0.00     0.067 A 
ATOM      6  N   UNL d   1     -48.587  13.649  23.002  0.00  0.00    -0.225 NA
ATOM      7  N   UNL d   1     -46.964  13.891  22.796  0.00  0.00    -0.241 NA
ATOM      8  C   UNL d   1     -48.314  14.390  22.744  0.00  0.00     0.101 A 
ATOM      9  C   UNL d   1     -47.500  14.505  22.642  0.00  0.00     0.099 A 
ATOM     10  C   UNL d   1     -47.208  11.140  23.695  0.00  0.00     0.020 A 
ATOM     11  C   UNL d   1     -46.066  12.249  23.249  0.00  0.00     0.027 A 
ATOM     12  C   UNL d   1     -45.839  11.487  23.475  0.00  0.00     0.094 A 
ATOM     13  C   UNL d   1     -46.412  10.937  23.696  0.00  0.00     0.026 A 
ATOM     14  C   UNL d   1     -47.222  15.236  22.386  0.00  0.00     0.021 A 
ATOM     15  C   UNL d   1     -48.834  14.999  22.590  0.00  0.00     0.021 A 
ATOM     16  C   UNL d   1     -48.560  15.736  22.333  0.00  0.00     0.002 A 
ATOM     17  C   UNL d   1     -47.746  15.852  22.231  0.00  0.00     0.002 A 
ENDROOT
BRANCH   2  18
ATOM     18  C   UNL d   1     -48.894  11.915  23.581  0.00  0.00     0.150 C 
BRANCH  18  19
ATOM     19  C   UNL d   1     -49.368  11.628  22.965  0.00  0.00     0.314 C 
ATOM     20  O   UNL d   1     -49.085  11.011  22.488  0.00  0.00    -0.257 OA
BRANCH  19  21
ATOM     21  O   UNL d   1     -50.100  11.949  22.830  0.00  0.00    -0.295 OA
ATOM     22  C   UNL d   1     -50.763  11.671  23.243  0.00  0.00     0.185 C 
ENDBRANCH  19  21
ENDBRANCH  18  19
ENDBRANCH   2  18
BRANCH  12  23
ATOM     23  O   UNL d   1     -45.043  11.284  23.476  0.00  0.00    -0.328 OA
ATOM     24  C   UNL d   1     -44.809  10.504  23.350  0.00  0.00     0.181 C 
ENDBRANCH  12  23
TORSDOF 4
ENDMDL
MODEL 3
REMARK VINA RESULT:      -6.7      1.556      3.793
REMARK  4 active torsions:
REMARK  status: ('A' for Active; 'I' for Inactive)
REMARK    1  A    between atoms: C_8  and  N_2 
REMARK    2  A    between atoms: C_13  and  C_8 
REMARK    3  A    between atoms: O_17  and  C_13 
REMARK    4  A    between atoms: O_18  and  C_15 
ROOT
ATOM      1  C   UNL d   1     -46.783  11.828  23.416  0.00  0.00     0.166 A 
ATOM      2  N   UNL d   1     -47.541  12.152  23.449  0.00  0.00    -0.285 N 
ATOM      3  C   UNL d   1     -46.269  12.417  23.140  0.00  0.00     0.117 A 
ATOM      4  C   UNL d   1     -46.707  13.101  23.002  0.00  0.00     0.039 A 
ATOM      5  C   UNL d   1     -47.492  12.938  23.194  0.00  0.00     0.067 A 
ATOM      6  N   UNL d   1     -46.504  11.082  23.601  0.00  0.00    -0.225 NA
ATOM      7  N   UNL d   1     -45.469  12.249  23.050  0.00  0.00    -0.241 NA
ATOM      8  C   UNL d   1     -45.698  10.904  23.513  0.00  0.00     0.101 A 
ATOM      9  C   UNL d   1     -45.184  11.493  23.237  0.00  0.00     0.099 A 
ATOM     10  C   UNL d   1     -48.079  13.524  23.114  0.00  0.00     0.020 A 
ATOM     11  C   UNL d   1     -46.503  13.843  22.733  0.00  0.00     0.027 A 
ATOM     12  C   UNL d   1     -47.076  14.431  22.650  0.00  0.00     0.094 A 
ATOM     13  C   UNL d   1     -47.862  14.268  22.841  0.00  0.00     0.026 A 
ATOM     14  C   UNL d   1     -44.384  11.325  23.147  0.00  0.00     0.021 A 
ATOM     15  C   UNL d   1     -45.409  10.164  23.694  0.00  0.00     0.021 A 
ATOM     16  C   UNL d   1     -44.605   9.988  23.606  0.00  0.00     0.002 A 
ATOM     17  C   UNL d   1     -44.091  10.577  23.330  0.00  0.00     0.002 A 
ENDROOT
BRANCH   2  18
ATOM     18  C   UNL d   1     -48.226  11.764  23.693  0.00  0.00     0.150 C 
BRANCH  18  19
ATOM     19  C   UNL d   1     -48.832  11.615  23.148  0.00  0.00     0.314 C 
ATOM     20  O   UNL d   1     -48.684  11.118  22.501  0.00  0.00    -0.257 OA
BRANCH  19  21
ATOM     21  O   UNL d   1     -49.562  11.954  23.248  0.00  0.00    -0.295 OA
ATOM     22  C   UNL d   1     -50.241  11.481  23.290  0.00  0.00     0.185 C 
ENDBRANCH  19  21
ENDBRANCH  18  19
ENDBRANCH   2  18
BRANCH  12  23
ATOM     23  O   UNL d   1     -46.859  15.176  22.377  0.00  0.00    -0.328 OA
ATOM     24  C   UNL d   1     -47.408  15.791  22.357  0.00  0.00     0.181 C 
ENDBRANCH  12  23
TORSDOF 4
ENDMDL
MODEL 4
REMARK VINA RESULT:      -6.7      8.600      9.946
REMARK  4 active torsions:
REMARK  status: ('A' for Active; 'I' for Inactive)
REMARK    1  A    between atoms: C_8  and  N_2 
REMARK    2  A    between atoms: C_13  and  C_8 
REMARK    3  A    between atoms: O_17  and  C_13 
REMARK    4  A    between atoms: O_18  and  C_15 
ROOT
ATOM      1  C   UNL d   1     -39.934  15.117  18.670  0.00  0.00     0.166 A 
ATOM      2  N   UNL d   1     -39.887  15.136  17.846  0.00  0.00    -0.285 N 
ATOM      3  C   UNL d   1     -39.481  14.475  18.934  0.00  0.00     0.117 A 
ATOM      4  C   UNL d   1     -39.155  14.098  18.277  0.00  0.00     0.039 A 
ATOM      5  C   UNL d   1     -39.406  14.506  17.606  0.00  0.00     0.067 A 
ATOM      6  N   UNL d   1     -40.327  15.598  19.201  0.00  0.00    -0.225 NA
ATOM      7  N   UNL d   1     -39.426  14.320  19.739  0.00  0.00    -0.241 NA
ATOM      8  C   UNL d   1     -40.277  15.448  20.016  0.00  0.00     0.101 A 
ATOM      9  C   UNL d   1     -39.824  14.807  20.280  0.00  0.00     0.099 A 
ATOM     10  C   UNL d   1     -39.168  14.260  16.846  0.00  0.00     0.020 A 
ATOM     11  C   UNL d   1     -38.670  13.448  18.197  0.00  0.00     0.027 A 
ATOM     12  C   UNL d   1     -38.429  13.195  17.449  0.00  0.00     0.094 A 
ATOM     13  C   UNL d   1     -38.679  13.603  16.777  0.00  0.00     0.026 A 
ATOM     14  C   UNL d   1     -39.770  14.651  21.086  0.00  0.00     0.021 A 
ATOM     15  C   UNL d   1     -40.665  15.922  20.555  0.00  0.00     0.021 A 
ATOM     16  C   UNL d   1     -40.614  15.771  21.367  0.00  0.00     0.002 A 
ATOM     17  C   UNL d   1     -40.161  15.129  21.631  0.00  0.00     0.002 A 
ENDROOT
BRANCH   2  18
ATOM     18  C   UNL d   1     -40.253  15.683  17.351  0.00  0.00     0.150 C 
BRANCH  18  19
ATOM     19  C   UNL d   1     -40.986  15.503  17.009  0.00  0.00     0.314 C 
ATOM     20  O   UNL d   1     -41.446  14.893  17.331  0.00  0.00    -0.257 OA
BRANCH  19  21
ATOM     21  O   UNL d   1     -41.250  15.922  16.366  0.00  0.00    -0.295 OA
ATOM     22  C   UNL d   1     -42.034  15.847  16.110  0.00  0.00     0.185 C 
ENDBRANCH  19  21
ENDBRANCH  18  19
ENDBRANCH   2  18
BRANCH  12  23
ATOM     23  O   UNL d   1     -37.940  12.538  17.380  0.00  0.00    -0.328 OA
ATOM     24  C   UNL d   1     -38.257  11.777  17.394  0.00  0.00     0.181 C 
ENDBRANCH  12  23
TORSDOF 4
ENDMDL
MODEL 5
REMARK VINA RESULT:      -6.4      8.595     10.119
REMARK  4 active torsions:
REMARK  status: ('A' for Active; 'I' for Inactive)
REMARK    1  A    between atoms: C_8  and  N_2 
REMARK    2  A    between atoms: C_13  and  C_8 
REMARK    3  A    between atoms: O_17  and  C_13 
REMARK    4  A    between atoms: O_18  and  C_15 
ROOT
ATOM      1  C   UNL d   1     -39.382  14.411  18.948  0.00  0.00     0.166 A 
ATOM      2  N   UNL d   1     -39.188  14.409  18.147  0.00  0.00    -0.285 N 
ATOM      3  C   UNL d   1     -40.122  14.774  19.028  0.00  0.00     0.117 A 
ATOM      4  C   UNL d   1     -40.385  14.997  18.279  0.00  0.00     0.039 A 
ATOM      5  C   UNL d   1     -39.808  14.771  17.735  0.00  0.00     0.067 A 
ATOM      6  N   UNL d   1     -38.981  14.130  19.604  0.00  0.00    -0.225 NA
ATOM      7  N   UNL d   1     -40.459  14.854  19.774  0.00  0.00    -0.241 NA
ATOM      8  C   UNL d   1     -39.314  14.206  20.360  0.00  0.00     0.101 A 
ATOM      9  C   UNL d   1     -40.054  14.570  20.440  0.00  0.00     0.099 A 
ATOM     10  C   UNL d   1     -39.909  14.920  16.922  0.00  0.00     0.020 A 
ATOM     11  C   UNL d   1     -41.062  15.370  18.019  0.00  0.00     0.027 A 
ATOM     12  C   UNL d   1     -41.173  15.522  17.215  0.00  0.00     0.094 A 
ATOM     13  C   UNL d   1     -40.596  15.297  16.670  0.00  0.00     0.026 A 
ATOM     14  C   UNL d   1     -40.390  14.650  21.186  0.00  0.00     0.021 A 
ATOM     15  C   UNL d   1     -38.923  13.930  21.021  0.00  0.00     0.021 A 
ATOM     16  C   UNL d   1     -39.256  14.007  21.775  0.00  0.00     0.002 A 
ATOM     17  C   UNL d   1     -39.996  14.371  21.854  0.00  0.00     0.002 A 
ENDROOT
BRANCH   2  18
ATOM     18  C   UNL d   1     -38.499  14.102  17.814  0.00  0.00     0.150 C 
BRANCH  18  19
ATOM     19  C   UNL d   1     -38.512  13.353  17.458  0.00  0.00     0.314 C 
ATOM     20  O   UNL d   1     -38.667  12.685  17.924  0.00  0.00    -0.257 OA
BRANCH  19  21
ATOM     21  O   UNL d   1     -38.374  13.278  16.663  0.00  0.00    -0.295 OA
ATOM     22  C   UNL d   1     -37.940  12.634  16.371  0.00  0.00     0.185 C 
ENDBRANCH  19  21
ENDBRANCH  18  19
ENDBRANCH   2  18
BRANCH  12  23
ATOM     23  O   UNL d   1     -41.859  15.899  16.963  0.00  0.00    -0.328 OA
ATOM     24  C   UNL d   1     -42.055  15.921  16.163  0.00  0.00     0.181 C 
ENDBRANCH  12  23
TORSDOF 4
ENDMDL
MODEL 6
REMARK VINA RESULT:      -6.2      1.752      2.963
REMARK  4 active torsions:
REMARK  status: ('A' for Active; 'I' for Inactive)
REMARK    1  A    between atoms: C_8  and  N_2 
REMARK    2  A    between atoms: C_13  and  C_8 
REMARK    3  A    between atoms: O_17  and  C_13 
REMARK    4  A    between atoms: O_18  and  C_15 
ROOT
ATOM      1  C   UNL d   1     -48.181  12.585  22.811  0.00  0.00     0.166 A 
ATOM      2  N   UNL d   1     -47.452  12.890  22.576  0.00  0.00    -0.285 N 
ATOM      3  C   UNL d   1     -48.041  11.863  23.192  0.00  0.00     0.117 A 
ATOM      4  C   UNL d   1     -47.230  11.721  23.193  0.00  0.00     0.039 A 
ATOM      5  C   UNL d   1     -46.866  12.356  22.813  0.00  0.00     0.067 A 
ATOM      6  N   UNL d   1     -48.942  12.873  22.725  0.00  0.00    -0.225 NA
ATOM      7  N   UNL d   1     -48.675  11.430  23.488  0.00  0.00    -0.241 NA
ATOM      8  C   UNL d   1     -49.587  12.442  23.021  0.00  0.00     0.101 A 
ATOM      9  C   UNL d   1     -49.447  11.720  23.402  0.00  0.00     0.099 A 
ATOM     10  C   UNL d   1     -46.038  12.379  22.723  0.00  0.00     0.020 A 
ATOM     11  C   UNL d   1     -46.775  11.110  23.484  0.00  0.00     0.027 A 
ATOM     12  C   UNL d   1     -45.954  11.123  23.401  0.00  0.00     0.094 A 
ATOM     13  C   UNL d   1     -45.589  11.757  23.020  0.00  0.00     0.026 A 
ATOM     14  C   UNL d   1     -50.080  11.286  23.698  0.00  0.00     0.021 A 
ATOM     15  C   UNL d   1     -50.349  12.719  22.941  0.00  0.00     0.021 A 
ATOM     16  C   UNL d   1     -50.991  12.288  23.237  0.00  0.00     0.002 A 
ATOM     17  C   UNL d   1     -50.852  11.565  23.618  0.00  0.00     0.002 A 
ENDROOT
BRANCH   2  18
ATOM     18  C   UNL d   1     -47.327  13.600  22.177  0.00  0.00     0.150 C 
BRANCH  18  19
ATOM     19  C   UNL d   1     -47.207  14.299  22.606  0.00  0.00     0.314 C 
ATOM     20  O   UNL d   1     -46.530  14.374  23.079  0.00  0.00    -0.257 OA
BRANCH  19  21
ATOM     21  O   UNL d   1     -47.748  14.902  22.563  0.00  0.00    -0.295 OA
ATOM     22  C   UNL d   1     -47.501  15.691  22.613  0.00  0.00     0.185 C 
ENDBRANCH  19  21
ENDBRANCH  18  19
ENDBRANCH   2  18
BRANCH  12  23
ATOM     23  O   UNL d   1     -45.505  10.501  23.698  0.00  0.00    -0.328 OA
ATOM     24  C   UNL d   1     -44.681  10.535  23.684  0.00  0.00     0.181 C 
ENDBRANCH  12  23
TORSDOF 4
ENDMDL
MODEL 7
REMARK VINA RESULT:      -6.0      1.423      4.055
REMARK  4 active torsions:
REMARK  status: ('A' for Active; 'I' for Inactive)
REMARK    1  A    between atoms: C_8  and  N_2 
REMARK    2  A    between atoms: C_13  and  C_8 
REMARK    3  A    between atoms: O_17  and  C_13 
REMARK    4  A    between atoms: O_18  and  C_15 
ROOT
ATOM      1  C   UNL d   1     -47.880  13.432  22.468  0.00  0.00     0.166 A 
ATOM      2  N   UNL d   1     -48.651  13.726  22.442  0.00  0.00    -0.285 N 
ATOM      3  C   UNL d   1     -47.913  12.663  22.774  0.00  0.00     0.117 A 
ATOM      4  C   UNL d   1     -48.700  12.481  22.937  0.00  0.00     0.039 A 
ATOM      5  C   UNL d   1     -49.155  13.137  22.732  0.00  0.00     0.067 A 
ATOM      6  N   UNL d   1     -47.166  13.767  22.254  0.00  0.00    -0.225 NA
ATOM      7  N   UNL d   1     -47.220  12.231  22.864  0.00  0.00    -0.241 NA
ATOM      8  C   UNL d   1     -46.461  13.338  22.341  0.00  0.00     0.101 A 
ATOM      9  C   UNL d   1     -46.493  12.569  22.648  0.00  0.00     0.099 A 
ATOM     10  C   UNL d   1     -49.983  13.127  22.831  0.00  0.00     0.020 A 
ATOM     11  C   UNL d   1     -49.063  11.816  23.240  0.00  0.00     0.027 A 
ATOM     12  C   UNL d   1     -49.882  11.796  23.343  0.00  0.00     0.094 A 
ATOM     13  C   UNL d   1     -50.338  12.452  23.138  0.00  0.00     0.026 A 
ATOM     14  C   UNL d   1     -45.800  12.136  22.737  0.00  0.00     0.021 A 
ATOM     15  C   UNL d   1     -45.743  13.662  22.131  0.00  0.00     0.021 A 
ATOM     16  C   UNL d   1     -45.040  13.232  22.219  0.00  0.00     0.002 A 
ATOM     17  C   UNL d   1     -45.073  12.463  22.525  0.00  0.00     0.002 A 
ENDROOT
BRANCH   2  18
ATOM     18  C   UNL d   1     -48.879  14.471  22.175  0.00  0.00     0.150 C 
BRANCH  18  19
ATOM     19  C   UNL d   1     -49.180  15.026  22.711  0.00  0.00     0.314 C 
ATOM     20  O   UNL d   1     -48.732  15.234  23.377  0.00  0.00    -0.257 OA
BRANCH  19  21
ATOM     21  O   UNL d   1     -49.908  15.362  22.585  0.00  0.00    -0.295 OA
ATOM     22  C   UNL d   1     -50.210  15.922  23.116  0.00  0.00     0.185 C 
ENDBRANCH  19  21
ENDBRANCH  18  19
ENDBRANCH   2  18
BRANCH  12  23
ATOM     23  O   UNL d   1     -50.237  11.121  23.649  0.00  0.00    -0.328 OA
ATOM     24  C   UNL d   1     -51.058  11.065  23.698  0.00  0.00     0.181 C 
ENDBRANCH  12  23
TORSDOF 4
ENDMDL
MODEL 8
REMARK VINA RESULT:      -5.9      1.734      4.727
REMARK  4 active torsions:
REMARK  status: ('A' for Active; 'I' for Inactive)
REMARK    1  A    between atoms: C_8  and  N_2 
REMARK    2  A    between atoms: C_13  and  C_8 
REMARK    3  A    between atoms: O_17  and  C_13 
REMARK    4  A    between atoms: O_18  and  C_15 
ROOT
ATOM      1  C   UNL d   1     -46.450  12.054  23.638  0.00  0.00     0.166 A 
ATOM      2  N   UNL d   1     -46.945  12.714  23.631  0.00  0.00    -0.285 N 
ATOM      3  C   UNL d   1     -46.930  11.379  23.656  0.00  0.00     0.117 A 
ATOM      4  C   UNL d   1     -47.718  11.619  23.660  0.00  0.00     0.039 A 
ATOM      5  C   UNL d   1     -47.727  12.444  23.645  0.00  0.00     0.067 A 
ATOM      6  N   UNL d   1     -45.635  11.988  23.631  0.00  0.00    -0.225 NA
ATOM      7  N   UNL d   1     -46.584  10.633  23.667  0.00  0.00    -0.241 NA
ATOM      8  C   UNL d   1     -45.277  11.239  23.641  0.00  0.00     0.101 A 
ATOM      9  C   UNL d   1     -45.757  10.564  23.659  0.00  0.00     0.099 A 
ATOM     10  C   UNL d   1     -48.449  12.860  23.645  0.00  0.00     0.020 A 
ATOM     11  C   UNL d   1     -48.422  11.208  23.676  0.00  0.00     0.027 A 
ATOM     12  C   UNL d   1     -49.143  11.611  23.676  0.00  0.00     0.094 A 
ATOM     13  C   UNL d   1     -49.152  12.436  23.661  0.00  0.00     0.026 A 
ATOM     14  C   UNL d   1     -45.411   9.818  23.669  0.00  0.00     0.021 A 
ATOM     15  C   UNL d   1     -44.465  11.161  23.634  0.00  0.00     0.021 A 
ATOM     16  C   UNL d   1     -44.110  10.413  23.644  0.00  0.00     0.002 A 
ATOM     17  C   UNL d   1     -44.590   9.738  23.662  0.00  0.00     0.002 A 
ENDROOT
BRANCH   2  18
ATOM     18  C   UNL d   1     -46.705  13.502  23.614  0.00  0.00     0.150 C 
BRANCH  18  19
ATOM     19  C   UNL d   1     -46.608  13.887  22.886  0.00  0.00     0.314 C 
ATOM     20  O   UNL d   1     -45.915  13.763  22.449  0.00  0.00    -0.257 OA
BRANCH  19  21
ATOM     21  O   UNL d   1     -47.188  14.380  22.607  0.00  0.00    -0.295 OA
ATOM     22  C   UNL d   1     -47.005  15.156  22.379  0.00  0.00     0.185 C 
ENDBRANCH  19  21
ENDBRANCH  18  19
ENDBRANCH   2  18
BRANCH  12  23
ATOM     23  O   UNL d   1     -49.846  11.186  23.692  0.00  0.00    -0.328 OA
ATOM     24  C   UNL d   1     -50.548  11.527  23.425  0.00  0.00     0.181 C 
ENDBRANCH  12  23
TORSDOF 4
ENDMDL
MODEL 9
REMARK VINA RESULT:      -5.8      1.207      3.456
REMARK  4 active torsions:
REMARK  status: ('A' for Active; 'I' for Inactive)
REMARK    1  A    between atoms: C_8  and  N_2 
REMARK    2  A    between atoms: C_13  and  C_8 
REMARK    3  A    between atoms: O_17  and  C_13 
REMARK    4  A    between atoms: O_18  and  C_15 
ROOT
ATOM      1  C   UNL d   1     -48.016  13.179  23.048  0.00  0.00     0.166 A 
ATOM      2  N   UNL d   1     -48.772  12.913  23.241  0.00  0.00    -0.285 N 
ATOM      3  C   UNL d   1     -48.027  14.008  23.069  0.00  0.00     0.117 A 
ATOM      4  C   UNL d   1     -48.786  14.253  23.275  0.00  0.00     0.039 A 
ATOM      5  C   UNL d   1     -49.246  13.577  23.381  0.00  0.00     0.067 A 
ATOM      6  N   UNL d   1     -47.331  12.775  22.858  0.00  0.00    -0.225 NA
ATOM      7  N   UNL d   1     -47.341  14.428  22.898  0.00  0.00    -0.241 NA
ATOM      8  C   UNL d   1     -46.634  13.192  22.684  0.00  0.00     0.101 A 
ATOM      9  C   UNL d   1     -46.645  14.020  22.705  0.00  0.00     0.099 A 
ATOM     10  C   UNL d   1     -50.049  13.639  23.595  0.00  0.00     0.020 A 
ATOM     11  C   UNL d   1     -49.120  14.989  23.380  0.00  0.00     0.027 A 
ATOM     12  C   UNL d   1     -49.915  15.062  23.591  0.00  0.00     0.094 A 
ATOM     13  C   UNL d   1     -50.376  14.386  23.698  0.00  0.00     0.026 A 
ATOM     14  C   UNL d   1     -45.960  14.441  22.534  0.00  0.00     0.021 A 
ATOM     15  C   UNL d   1     -45.946  12.798  22.493  0.00  0.00     0.021 A 
ATOM     16  C   UNL d   1     -45.252  13.216  22.320  0.00  0.00     0.002 A 
ATOM     17  C   UNL d   1     -45.263  14.045  22.341  0.00  0.00     0.002 A 
ENDROOT
BRANCH   2  18
ATOM     18  C   UNL d   1     -49.014  12.126  23.287  0.00  0.00     0.150 C 
BRANCH  18  19
ATOM     19  C   UNL d   1     -49.191  11.708  22.594  0.00  0.00     0.314 C 
ATOM     20  O   UNL d   1     -48.704  11.078  22.364  0.00  0.00    -0.257 OA
BRANCH  19  21
ATOM     21  O   UNL d   1     -49.834  11.916  22.146  0.00  0.00    -0.295 OA
ATOM     22  C   UNL d   1     -49.950  11.580  21.398  0.00  0.00     0.185 C 
ENDBRANCH  19  21
ENDBRANCH  18  19
ENDBRANCH   2  18
BRANCH  12  23
ATOM     23  O   UNL d   1     -50.241  15.810  23.694  0.00  0.00    -0.328 OA
ATOM     24  C   UNL d   1     -51.056  15.922  23.642  0.00  0.00     0.181 C 
ENDBRANCH  12  23
TORSDOF 4
ENDMDL
