MODEL 1
REMARK VINA RESULT:      85.2      0.000      0.000
REMARK  3 active torsions:
REMARK  status: ('A' for Active; 'I' for Inactive)
REMARK    1  A    between atoms: C_7  and  C_1 
REMARK    2  A    between atoms: C_12  and  C_6 
REMARK       I    between atoms: N_10  and  C_7 
REMARK    3  A    between atoms: C_13  and  N_10 
ROOT
ATOM      1  C   UNL d   1     -49.303  26.923  34.027  0.00  0.00     0.108 A 
ATOM      2  C   UNL d   1     -50.275  26.070  33.775  0.00  0.00     0.046 A 
ATOM      3  C   UNL d   1     -50.105  26.866  33.877  0.00  0.00     0.116 A 
ATOM      4  C   UNL d   1     -49.567  25.656  33.867  0.00  0.00     0.112 A 
ATOM      5  S   UNL d   1     -48.973  26.204  34.023  0.00  0.00    -0.061 SA
ATOM      6  C   UNL d   1     -50.970  25.662  33.613  0.00  0.00     0.028 A 
ATOM      7  N   UNL d   1     -49.551  24.832  33.796  0.00  0.00    -0.239 NA
ATOM      8  C   UNL d   1     -50.965  24.839  33.541  0.00  0.00     0.020 A 
ATOM      9  C   UNL d   1     -50.257  24.425  33.632  0.00  0.00     0.082 A 
ATOM     10  N   UNL d   1     -50.642  27.499  33.836  0.00  0.00    -0.147 N 
ATOM     11  C   UNL d   1     -51.661  24.431  33.379  0.00  0.00     0.002 A 
ATOM     12  C   UNL d   1     -50.241  23.601  33.562  0.00  0.00     0.019 A 
ATOM     13  C   UNL d   1     -51.657  23.603  33.306  0.00  0.00     0.000 A 
ATOM     14  C   UNL d   1     -50.950  23.189  33.397  0.00  0.00     0.002 A 
ENDROOT
BRANCH   1  15
ATOM     15  C   UNL d   1     -48.873  27.615  34.167  0.00  0.00     0.287 C 
ATOM     16  N   UNL d   1     -48.774  27.907  34.924  0.00  0.00    -0.208 NA
ATOM     17  O   UNL d   1     -48.537  28.016  33.521  0.00  0.00    -0.265 OA
BRANCH  16  18
ATOM     18  C   UNL d   1     -48.345  28.595  35.049  0.00  0.00     0.085 A 
ATOM     19  C   UNL d   1     -48.177  28.846  35.819  0.00  0.00     0.018 A 
ATOM     20  C   UNL d   1     -48.405  28.460  36.482  0.00  0.00     0.002 C 
ATOM     21  C   UNL d   1     -47.739  29.549  35.928  0.00  0.00     0.002 A 
ATOM     22  C   UNL d   1     -47.473  29.994  35.275  0.00  0.00     0.000 A 
ATOM     23  C   UNL d   1     -47.653  29.725  34.516  0.00  0.00     0.002 A 
ATOM     24  C   UNL d   1     -48.085  29.032  34.398  0.00  0.00     0.019 A 
ENDBRANCH  16  18
ENDBRANCH   1  15
BRANCH   6  25
ATOM     25  C   UNL d   1     -51.674  26.074  33.523  0.00  0.00     0.100 A 
ATOM     26  O   UNL d   1     -52.446  25.795  33.561  0.00  0.00    -0.305 OA
ATOM     27  C   UNL d   1     -52.950  26.437  33.431  0.00  0.00     0.123 A 
ATOM     28  C   UNL d   1     -52.505  27.089  33.316  0.00  0.00     0.029 A 
ATOM     29  C   UNL d   1     -51.718  26.885  33.369  0.00  0.00     0.027 A 
ENDBRANCH   6  25
TORSDOF 3
ENDMDL
MODEL 2
REMARK VINA RESULT:      85.5      1.107      1.985
REMARK  3 active torsions:
REMARK  status: ('A' for Active; 'I' for Inactive)
REMARK    1  A    between atoms: C_7  and  C_1 
REMARK    2  A    between atoms: C_12  and  C_6 
REMARK       I    between atoms: N_10  and  C_7 
REMARK    3  A    between atoms: C_13  and  N_10 
ROOT
ATOM      1  C   UNL d   1     -50.336  27.412  33.925  0.00  0.00     0.108 A 
ATOM      2  C   UNL d   1     -50.810  26.203  33.706  0.00  0.00     0.046 A 
ATOM      3  C   UNL d   1     -50.119  26.635  33.790  0.00  0.00     0.116 A 
ATOM      4  C   UNL d   1     -51.439  26.730  33.792  0.00  0.00     0.112 A 
ATOM      5  S   UNL d   1     -51.125  27.478  33.928  0.00  0.00    -0.061 SA
ATOM      6  C   UNL d   1     -50.959  25.407  33.564  0.00  0.00     0.028 A 
ATOM      7  N   UNL d   1     -52.221  26.464  33.737  0.00  0.00    -0.239 NA
ATOM      8  C   UNL d   1     -51.736  25.130  33.507  0.00  0.00     0.020 A 
ATOM      9  C   UNL d   1     -52.365  25.657  33.593  0.00  0.00     0.082 A 
ATOM     10  N   UNL d   1     -49.342  26.344  33.747  0.00  0.00    -0.147 N 
ATOM     11  C   UNL d   1     -51.885  24.334  33.364  0.00  0.00     0.002 A 
ATOM     12  C   UNL d   1     -53.147  25.391  33.537  0.00  0.00     0.019 A 
ATOM     13  C   UNL d   1     -52.666  24.054  33.306  0.00  0.00     0.000 A 
ATOM     14  C   UNL d   1     -53.294  24.581  33.392  0.00  0.00     0.002 A 
ENDROOT
BRANCH   1  15
ATOM     15  C   UNL d   1     -49.830  28.054  34.044  0.00  0.00     0.287 C 
ATOM     16  N   UNL d   1     -49.207  28.011  34.572  0.00  0.00    -0.208 NA
ATOM     17  O   UNL d   1     -49.963  28.755  33.616  0.00  0.00    -0.265 OA
BRANCH  16  18
ATOM     18  C   UNL d   1     -48.712  28.656  34.681  0.00  0.00     0.085 A 
ATOM     19  C   UNL d   1     -48.280  28.735  35.383  0.00  0.00     0.018 A 
ATOM     20  C   UNL d   1     -48.304  28.215  35.990  0.00  0.00     0.002 C 
ATOM     21  C   UNL d   1     -47.781  29.398  35.477  0.00  0.00     0.002 A 
ATOM     22  C   UNL d   1     -47.715  29.973  34.877  0.00  0.00     0.000 A 
ATOM     23  C   UNL d   1     -48.155  29.875  34.186  0.00  0.00     0.002 A 
ATOM     24  C   UNL d   1     -48.651  29.223  34.084  0.00  0.00     0.019 A 
ENDBRANCH  16  18
ENDBRANCH   1  15
BRANCH   6  25
ATOM     25  C   UNL d   1     -50.334  24.883  33.478  0.00  0.00     0.100 A 
ATOM     26  O   UNL d   1     -50.352  24.068  33.369  0.00  0.00    -0.305 OA
ATOM     27  C   UNL d   1     -49.570  23.807  33.315  0.00  0.00     0.123 A 
ATOM     28  C   UNL d   1     -49.086  24.438  33.388  0.00  0.00     0.029 A 
ATOM     29  C   UNL d   1     -49.538  25.108  33.489  0.00  0.00     0.027 A 
ENDBRANCH   6  25
TORSDOF 3
ENDMDL
MODEL 3
REMARK VINA RESULT:      88.0      1.655      5.798
REMARK  3 active torsions:
REMARK  status: ('A' for Active; 'I' for Inactive)
REMARK    1  A    between atoms: C_7  and  C_1 
REMARK    2  A    between atoms: C_12  and  C_6 
REMARK       I    between atoms: N_10  and  C_7 
REMARK    3  A    between atoms: C_13  and  N_10 
ROOT
ATOM      1  C   UNL d   1     -49.194  28.751  34.197  0.00  0.00     0.108 A 
ATOM      2  C   UNL d   1     -48.492  29.793  34.593  0.00  0.00     0.046 A 
ATOM      3  C   UNL d   1     -48.644  29.003  34.748  0.00  0.00     0.116 A 
ATOM      4  C   UNL d   1     -48.956  30.008  33.946  0.00  0.00     0.112 A 
ATOM      5  S   UNL d   1     -49.386  29.347  33.713  0.00  0.00    -0.061 SA
ATOM      6  C   UNL d   1     -47.999  30.349  34.946  0.00  0.00     0.028 A 
ATOM      7  N   UNL d   1     -48.930  30.780  33.648  0.00  0.00    -0.239 NA
ATOM      8  C   UNL d   1     -47.965  31.122  34.656  0.00  0.00     0.020 A 
ATOM      9  C   UNL d   1     -48.429  31.337  34.009  0.00  0.00     0.082 A 
ATOM     10  N   UNL d   1     -48.306  28.540  35.350  0.00  0.00    -0.147 N 
ATOM     11  C   UNL d   1     -47.471  31.678  35.009  0.00  0.00     0.002 A 
ATOM     12  C   UNL d   1     -48.403  32.109  33.711  0.00  0.00     0.019 A 
ATOM     13  C   UNL d   1     -47.436  32.456  34.720  0.00  0.00     0.000 A 
ATOM     14  C   UNL d   1     -47.900  32.671  34.072  0.00  0.00     0.002 A 
ENDROOT
BRANCH   1  15
ATOM     15  C   UNL d   1     -49.519  27.995  34.132  0.00  0.00     0.287 C 
ATOM     16  N   UNL d   1     -49.953  27.775  33.474  0.00  0.00    -0.208 NA
ATOM     17  O   UNL d   1     -49.399  27.451  34.749  0.00  0.00    -0.265 OA
BRANCH  16  18
ATOM     18  C   UNL d   1     -50.270  27.021  33.421  0.00  0.00     0.085 A 
ATOM     19  C   UNL d   1     -51.089  26.917  33.358  0.00  0.00     0.018 A 
ATOM     20  C   UNL d   1     -51.621  27.514  33.344  0.00  0.00     0.002 C 
ATOM     21  C   UNL d   1     -51.395  26.142  33.306  0.00  0.00     0.002 A 
ATOM     22  C   UNL d   1     -50.888  25.479  33.316  0.00  0.00     0.000 A 
ATOM     23  C   UNL d   1     -50.075  25.606  33.379  0.00  0.00     0.002 A 
ATOM     24  C   UNL d   1     -49.764  26.368  33.431  0.00  0.00     0.019 A 
ENDBRANCH  16  18
ENDBRANCH   1  15
BRANCH   6  25
ATOM     25  C   UNL d   1     -47.537  30.135  35.589  0.00  0.00     0.100 A 
ATOM     26  O   UNL d   1     -47.710  30.188  36.391  0.00  0.00    -0.305 OA
ATOM     27  C   UNL d   1     -47.057  29.898  36.806  0.00  0.00     0.123 A 
ATOM     28  C   UNL d   1     -46.500  29.675  36.280  0.00  0.00     0.029 A 
ATOM     29  C   UNL d   1     -46.778  29.813  35.527  0.00  0.00     0.027 A 
ENDBRANCH   6  25
TORSDOF 3
ENDMDL
