MODEL 1
REMARK VINA RESULT:      -4.8      0.000      0.000
REMARK  4 active torsions:
REMARK  status: ('A' for Active; 'I' for Inactive)
REMARK    1  A    between atoms: C_10  and  C_4 
REMARK       I    between atoms: N_11  and  C_10 
REMARK    2  A    between atoms: C_12  and  C_19 
REMARK    3  A    between atoms: O_26  and  C_12 
REMARK    4  A    between atoms: C_27  and  O_26 
ROOT
ATOM      1  C   UNL d   1      59.596  -1.601  29.198  0.00  0.00     0.154 A 
ATOM      2  C   UNL d   1      58.900  -2.039  29.153  0.00  0.00     0.093 A 
ATOM      3  N   UNL d   1      60.328  -1.972  29.052  0.00  0.00    -0.211 NA
ATOM      4  C   UNL d   1      58.579  -0.782  29.471  0.00  0.00     0.122 A 
ATOM      5  N   UNL d   1      59.399  -0.828  29.393  0.00  0.00    -0.285 N 
ATOM      6  C   UNL d   1      58.925  -2.845  28.965  0.00  0.00     0.269 A 
ATOM      7  N   UNL d   1      59.645  -3.214  28.820  0.00  0.00    -0.259 N 
ATOM      8  C   UNL d   1      60.356  -2.776  28.864  0.00  0.00     0.140 A 
ATOM      9  C   UNL d   1      58.275  -1.535  29.321  0.00  0.00     0.030 A 
ATOM     10  C   UNL d   1      59.673  -4.016  28.632  0.00  0.00     0.084 A 
ATOM     11  O   UNL d   1      58.223  -3.282  28.921  0.00  0.00    -0.266 OA
ATOM     12  C   UNL d   1      61.072  -3.136  28.721  0.00  0.00     0.064 A 
ATOM     13  C   UNL d   1      60.398  -4.377  28.489  0.00  0.00     0.018 A 
ATOM     14  C   UNL d   1      61.104  -3.933  28.534  0.00  0.00    -0.008 A 
ATOM     15  C   UNL d   1      59.934  -0.203  29.494  0.00  0.00     0.101 C 
ENDROOT
BRANCH   4  16
ATOM     16  C   UNL d   1      58.141  -0.106  29.663  0.00  0.00     0.281 C 
ATOM     17  N   UNL d   1      57.771  -0.053  30.397  0.00  0.00    -0.271 N 
ATOM     18  C   UNL d   1      57.834  -0.668  30.941  0.00  0.00     0.083 A 
ATOM     19  C   UNL d   1      57.334   0.623  30.589  0.00  0.00     0.083 A 
ATOM     20  C   UNL d   1      57.463  -0.611  31.672  0.00  0.00     0.025 A 
ATOM     21  C   UNL d   1      57.025   0.066  31.864  0.00  0.00     0.067 A 
ATOM     22  C   UNL d   1      56.962   0.679  31.325  0.00  0.00     0.025 A 
ATOM     23  O   UNL d   1      58.079   0.509  29.120  0.00  0.00    -0.265 OA
BRANCH  21  24
ATOM     24  C   UNL d   1      56.653   0.122  32.599  0.00  0.00     0.300 C 
ATOM     25  O   UNL d   1      57.109   0.236  33.281  0.00  0.00    -0.259 OA
BRANCH  24  26
ATOM     26  O   UNL d   1      55.833   0.066  32.652  0.00  0.00    -0.271 OA
BRANCH  26  27
ATOM     27  C   UNL d   1      55.483  -0.066  33.383  0.00  0.00     0.126 C 
ATOM     28  C   UNL d   1      54.750   0.281  33.553  0.00  0.00     0.029 C 
ENDBRANCH  26  27
ENDBRANCH  24  26
ENDBRANCH  21  24
ENDBRANCH   4  16
TORSDOF 4
ENDMDL
