MODEL 1
REMARK VINA RESULT:      27.0      0.000      0.000
REMARK  5 active torsions:
REMARK  status: ('A' for Active; 'I' for Inactive)
REMARK    1  A    between atoms: C_2  and  S_1 
REMARK    2  A    between atoms: N_3  and  S_1 
REMARK    3  A    between atoms: C_10  and  N_3 
REMARK    4  A    between atoms: C_9  and  C_5 
REMARK    5  A    between atoms: O_14  and  C_8 
ROOT
ATOM      1  C   UNL d   1      13.502  12.983  -3.438  0.00  0.00     0.127 A 
ATOM      2  C   UNL d   1      13.793  13.742  -3.294  0.00  0.00     0.011 A 
ATOM      3  C   UNL d   1      13.642  14.350  -3.828  0.00  0.00    -0.022 A 
ATOM      4  C   UNL d   1      13.062  12.842  -4.115  0.00  0.00     0.106 A 
ATOM      5  C   UNL d   1      13.199  14.200  -4.505  0.00  0.00    -0.002 A 
ATOM      6  C   UNL d   1      12.908  13.442  -4.649  0.00  0.00     0.025 A 
ENDROOT
BRANCH   1   7
ATOM      7  S   UNL d   1      13.656  12.383  -2.904  0.00  0.00     0.287 S 
ATOM      8  O   UNL d   1      14.459  12.443  -3.078  0.00  0.00    -0.198 OA
ATOM      9  O   UNL d   1      12.862  12.320  -2.727  0.00  0.00    -0.198 OA
BRANCH   7  10
ATOM     10  N   UNL d   1      13.819  11.779  -2.367  0.00  0.00    -0.157 NA
BRANCH  10  11
ATOM     11  C   UNL d   1      14.070  11.965  -1.606  0.00  0.00     0.113 A 
ATOM     12  C   UNL d   1      14.860  12.107  -1.459  0.00  0.00     0.119 A 
ATOM     13  N   UNL d   1      15.111  12.293  -0.696  0.00  0.00    -0.241 NA
ATOM     14  C   UNL d   1      14.562  12.337  -0.075  0.00  0.00     0.099 A 
ATOM     15  C   UNL d   1      13.765  12.191  -0.232  0.00  0.00     0.022 A 
ATOM     16  C   UNL d   1      13.514  12.006  -0.993  0.00  0.00     0.023 A 
ENDBRANCH  10  11
ENDBRANCH   7  10
ENDBRANCH   1   7
BRANCH   4  17
ATOM     17  O   UNL d   1      12.770  12.083  -4.259  0.00  0.00    -0.327 OA
ATOM     18  C   UNL d   1      12.772  11.779  -5.025  0.00  0.00     0.181 C 
ENDBRANCH   4  17
BRANCH   3  19
ATOM     19  C   UNL d   1      13.933  15.108  -3.684  0.00  0.00     0.019 C 
ATOM     20  C   UNL d   1      14.225  15.866  -3.540  0.00  0.00     0.004 C 
ATOM     21  C   UNL d   1      13.751  15.325  -4.459  0.00  0.00     0.004 C 
ATOM     22  C   UNL d   1      14.115  14.891  -2.909  0.00  0.00     0.004 C 
ENDBRANCH   3  19
TORSDOF 5
ENDMDL
