MODEL 1
REMARK VINA RESULT:      -7.7      0.000      0.000
REMARK  1 active torsions:
REMARK  status: ('A' for Active; 'I' for Inactive)
REMARK    1  A    between atoms: C_5  and  C_1 
ROOT
ATOM      1  C   UNL d   1     -46.741  12.906  23.080  0.00  0.00     0.128 A 
ATOM      2  C   UNL d   1     -46.595  12.174  23.489  0.00  0.00     0.306 A 
ATOM      3  C   UNL d   1     -47.510  13.103  22.898  0.00  0.00     0.013 A 
ATOM      4  O   UNL d   1     -47.228  11.691  23.687  0.00  0.00    -0.273 OA
ATOM      5  C   UNL d   1     -48.147  12.610  23.102  0.00  0.00     0.023 A 
ATOM      6  C   UNL d   1     -48.005  11.898  23.500  0.00  0.00     0.103 A 
ATOM      7  O   UNL d   1     -45.815  11.928  23.698  0.00  0.00    -0.259 OA
ATOM      8  C   UNL d   1     -48.893  12.833  22.908  0.00  0.00     0.002 A 
ATOM      9  C   UNL d   1     -48.611  11.421  23.697  0.00  0.00     0.025 A 
ATOM     10  C   UNL d   1     -49.538  12.359  23.100  0.00  0.00     0.000 A 
ATOM     11  C   UNL d   1     -49.391  11.627  23.510  0.00  0.00     0.002 A 
ENDROOT
BRANCH   1  12
ATOM     12  C   UNL d   1     -46.128  13.374  22.888  0.00  0.00     0.216 C 
ATOM     13  O   UNL d   1     -45.931  14.047  23.322  0.00  0.00    -0.644 OA
ATOM     14  O   UNL d   1     -45.592  13.318  22.282  0.00  0.00    -0.644 OA
ENDBRANCH   1  12
TORSDOF 1
ENDMDL
MODEL 2
REMARK VINA RESULT:      -7.4      1.421      1.941
REMARK  1 active torsions:
REMARK  status: ('A' for Active; 'I' for Inactive)
REMARK    1  A    between atoms: C_5  and  C_1 
ROOT
ATOM      1  C   UNL d   1     -47.081  13.604  22.918  0.00  0.00     0.128 A 
ATOM      2  C   UNL d   1     -47.613  12.949  23.035  0.00  0.00     0.306 A 
ATOM      3  C   UNL d   1     -47.395  14.335  22.747  0.00  0.00     0.013 A 
ATOM      4  O   UNL d   1     -48.422  13.073  22.972  0.00  0.00    -0.273 OA
ATOM      5  C   UNL d   1     -48.216  14.454  22.685  0.00  0.00     0.023 A 
ATOM      6  C   UNL d   1     -48.733  13.818  22.799  0.00  0.00     0.103 A 
ATOM      7  O   UNL d   1     -47.333  12.174  23.213  0.00  0.00    -0.259 OA
ATOM      8  C   UNL d   1     -48.494  15.187  22.516  0.00  0.00     0.002 A 
ATOM      9  C   UNL d   1     -49.520  13.925  22.740  0.00  0.00     0.025 A 
ATOM     10  C   UNL d   1     -49.302  15.327  22.450  0.00  0.00     0.000 A 
ATOM     11  C   UNL d   1     -49.834  14.672  22.566  0.00  0.00     0.002 A 
ENDROOT
BRANCH   1  12
ATOM     12  C   UNL d   1     -46.297  13.483  22.979  0.00  0.00     0.216 C 
ATOM     13  O   UNL d   1     -45.896  13.538  23.698  0.00  0.00    -0.644 OA
ATOM     14  O   UNL d   1     -45.747  13.296  22.414  0.00  0.00    -0.644 OA
ENDBRANCH   1  12
TORSDOF 1
ENDMDL
MODEL 3
REMARK VINA RESULT:      -7.4      1.172      2.778
REMARK  1 active torsions:
REMARK  status: ('A' for Active; 'I' for Inactive)
REMARK    1  A    between atoms: C_5  and  C_1 
ROOT
ATOM      1  C   UNL d   1     -48.508  12.058  23.124  0.00  0.00     0.128 A 
ATOM      2  C   UNL d   1     -47.802  11.676  23.410  0.00  0.00     0.306 A 
ATOM      3  C   UNL d   1     -48.460  12.836  22.887  0.00  0.00     0.013 A 
ATOM      4  O   UNL d   1     -47.100  12.100  23.440  0.00  0.00    -0.273 OA
ATOM      5  C   UNL d   1     -47.746  13.259  22.920  0.00  0.00     0.023 A 
ATOM      6  C   UNL d   1     -47.060  12.888  23.198  0.00  0.00     0.103 A 
ATOM      7  O   UNL d   1     -47.803  10.873  23.666  0.00  0.00    -0.259 OA
ATOM      8  C   UNL d   1     -47.733  14.025  22.679  0.00  0.00     0.002 A 
ATOM      9  C   UNL d   1     -46.373  13.289  23.232  0.00  0.00     0.025 A 
ATOM     10  C   UNL d   1     -47.036  14.462  22.703  0.00  0.00     0.000 A 
ATOM     11  C   UNL d   1     -46.331  14.080  22.990  0.00  0.00     0.002 A 
ENDROOT
BRANCH   1  12
ATOM     12  C   UNL d   1     -49.188  11.647  23.095  0.00  0.00     0.216 C 
ATOM     13  O   UNL d   1     -49.521  11.392  22.385  0.00  0.00    -0.644 OA
ATOM     14  O   UNL d   1     -49.679  11.399  23.690  0.00  0.00    -0.644 OA
ENDBRANCH   1  12
TORSDOF 1
ENDMDL
MODEL 4
REMARK VINA RESULT:      -7.3      2.243      3.192
REMARK  1 active torsions:
REMARK  status: ('A' for Active; 'I' for Inactive)
REMARK    1  A    between atoms: C_5  and  C_1 
ROOT
ATOM      1  C   UNL d   1     -48.895  14.714  22.909  0.00  0.00     0.128 A 
ATOM      2  C   UNL d   1     -49.155  13.921  23.078  0.00  0.00     0.306 A 
ATOM      3  C   UNL d   1     -48.100  14.845  22.788  0.00  0.00     0.013 A 
ATOM      4  O   UNL d   1     -48.601  13.316  23.115  0.00  0.00    -0.273 OA
ATOM      5  C   UNL d   1     -47.545  14.228  22.827  0.00  0.00     0.023 A 
ATOM      6  C   UNL d   1     -47.798  13.457  22.992  0.00  0.00     0.103 A 
ATOM      7  O   UNL d   1     -49.968  13.738  23.209  0.00  0.00    -0.259 OA
ATOM      8  C   UNL d   1     -46.769  14.391  22.704  0.00  0.00     0.002 A 
ATOM      9  C   UNL d   1     -47.271  12.862  23.030  0.00  0.00     0.025 A 
ATOM     10  C   UNL d   1     -46.203  13.794  22.738  0.00  0.00     0.000 A 
ATOM     11  C   UNL d   1     -46.463  13.001  22.907  0.00  0.00     0.002 A 
ENDROOT
BRANCH   1  12
ATOM     12  C   UNL d   1     -49.431  15.300  22.873  0.00  0.00     0.216 C 
ATOM     13  O   UNL d   1     -49.618  15.769  23.526  0.00  0.00    -0.644 OA
ATOM     14  O   UNL d   1     -49.884  15.563  22.254  0.00  0.00    -0.644 OA
ENDBRANCH   1  12
TORSDOF 1
ENDMDL
MODEL 5
REMARK VINA RESULT:      -7.1      1.504      2.362
REMARK  1 active torsions:
REMARK  status: ('A' for Active; 'I' for Inactive)
REMARK    1  A    between atoms: C_5  and  C_1 
ROOT
ATOM      1  C   UNL d   1     -48.066  13.989  22.810  0.00  0.00     0.128 A 
ATOM      2  C   UNL d   1     -47.229  14.143  22.836  0.00  0.00     0.306 A 
ATOM      3  C   UNL d   1     -48.332  13.246  23.014  0.00  0.00     0.013 A 
ATOM      4  O   UNL d   1     -46.718  13.543  23.065  0.00  0.00    -0.273 OA
ATOM      5  C   UNL d   1     -47.808  12.644  23.245  0.00  0.00     0.023 A 
ATOM      6  C   UNL d   1     -46.994  12.793  23.271  0.00  0.00     0.103 A 
ATOM      7  O   UNL d   1     -46.908  14.896  22.633  0.00  0.00    -0.259 OA
ATOM      8  C   UNL d   1     -48.102  11.923  23.440  0.00  0.00     0.002 A 
ATOM      9  C   UNL d   1     -46.488  12.220  23.491  0.00  0.00     0.025 A 
ATOM     10  C   UNL d   1     -47.601  11.312  23.671  0.00  0.00     0.000 A 
ATOM     11  C   UNL d   1     -46.764  11.466  23.698  0.00  0.00     0.002 A 
ENDROOT
BRANCH   1  12
ATOM     12  C   UNL d   1     -48.562  14.569  22.588  0.00  0.00     0.216 C 
ATOM     13  O   UNL d   1     -48.932  14.578  21.850  0.00  0.00    -0.644 OA
ATOM     14  O   UNL d   1     -48.808  15.232  22.984  0.00  0.00    -0.644 OA
ENDBRANCH   1  12
TORSDOF 1
ENDMDL
MODEL 6
REMARK VINA RESULT:      -6.3      8.841     10.169
REMARK  1 active torsions:
REMARK  status: ('A' for Active; 'I' for Inactive)
REMARK    1  A    between atoms: C_5  and  C_1 
ROOT
ATOM      1  C   UNL d   1     -40.352  14.679  17.369  0.00  0.00     0.128 A 
ATOM      2  C   UNL d   1     -40.430  14.063  17.952  0.00  0.00     0.306 A 
ATOM      3  C   UNL d   1     -39.711  14.661  16.866  0.00  0.00     0.013 A 
ATOM      4  O   UNL d   1     -39.860  13.474  17.991  0.00  0.00    -0.273 OA
ATOM      5  C   UNL d   1     -39.138  14.060  16.911  0.00  0.00     0.023 A 
ATOM      6  C   UNL d   1     -39.214  13.462  17.478  0.00  0.00     0.103 A 
ATOM      7  O   UNL d   1     -41.076  14.041  18.493  0.00  0.00    -0.259 OA
ATOM      8  C   UNL d   1     -38.519  14.071  16.402  0.00  0.00     0.002 A 
ATOM      9  C   UNL d   1     -38.668  12.884  17.526  0.00  0.00     0.025 A 
ATOM     10  C   UNL d   1     -37.940  13.486  16.429  0.00  0.00     0.000 A 
ATOM     11  C   UNL d   1     -38.018  12.870  17.012  0.00  0.00     0.002 A 
ENDROOT
BRANCH   1  12
ATOM     12  C   UNL d   1     -40.903  15.251  17.331  0.00  0.00     0.216 C 
ATOM     13  O   UNL d   1     -41.515  15.239  16.777  0.00  0.00    -0.644 OA
ATOM     14  O   UNL d   1     -40.999  15.921  17.776  0.00  0.00    -0.644 OA
ENDBRANCH   1  12
TORSDOF 1
ENDMDL
MODEL 7
REMARK VINA RESULT:      -6.1      7.914      8.677
REMARK  1 active torsions:
REMARK  status: ('A' for Active; 'I' for Inactive)
REMARK    1  A    between atoms: C_5  and  C_1 
ROOT
ATOM      1  C   UNL d   1     -40.594  15.090  18.109  0.00  0.00     0.128 A 
ATOM      2  C   UNL d   1     -40.565  14.258  18.290  0.00  0.00     0.306 A 
ATOM      3  C   UNL d   1     -40.606  15.622  18.726  0.00  0.00     0.013 A 
ATOM      4  O   UNL d   1     -40.552  14.019  19.075  0.00  0.00    -0.273 OA
ATOM      5  C   UNL d   1     -40.592  15.372  19.518  0.00  0.00     0.023 A 
ATOM      6  C   UNL d   1     -40.564  14.564  19.694  0.00  0.00     0.103 A 
ATOM      7  O   UNL d   1     -40.551  13.671  17.685  0.00  0.00    -0.259 OA
ATOM      8  C   UNL d   1     -40.605  15.922  20.102  0.00  0.00     0.002 A 
ATOM      9  C   UNL d   1     -40.551  14.319  20.452  0.00  0.00     0.025 A 
ATOM     10  C   UNL d   1     -40.592  15.696  20.894  0.00  0.00     0.000 A 
ATOM     11  C   UNL d   1     -40.564  14.864  21.075  0.00  0.00     0.002 A 
ENDROOT
BRANCH   1  12
ATOM     12  C   UNL d   1     -40.607  15.322  17.349  0.00  0.00     0.216 C 
ATOM     13  O   UNL d   1     -41.310  15.424  16.930  0.00  0.00    -0.644 OA
ATOM     14  O   UNL d   1     -40.000  15.500  16.842  0.00  0.00    -0.644 OA
ENDBRANCH   1  12
TORSDOF 1
ENDMDL
MODEL 8
REMARK VINA RESULT:      -6.1      2.394      3.449
REMARK  1 active torsions:
REMARK  status: ('A' for Active; 'I' for Inactive)
REMARK    1  A    between atoms: C_5  and  C_1 
ROOT
ATOM      1  C   UNL d   1     -49.485  12.970  22.253  0.00  0.00     0.128 A 
ATOM      2  C   UNL d   1     -48.889  13.419  21.842  0.00  0.00     0.306 A 
ATOM      3  C   UNL d   1     -49.949  13.351  22.803  0.00  0.00     0.013 A 
ATOM      4  O   UNL d   1     -48.801  14.217  22.012  0.00  0.00    -0.273 OA
ATOM      5  C   UNL d   1     -49.854  14.160  22.970  0.00  0.00     0.023 A 
ATOM      6  C   UNL d   1     -49.275  14.597  22.571  0.00  0.00     0.103 A 
ATOM      7  O   UNL d   1     -48.386  13.068  21.264  0.00  0.00    -0.259 OA
ATOM      8  C   UNL d   1     -50.327  14.505  23.517  0.00  0.00     0.002 A 
ATOM      9  C   UNL d   1     -49.179  15.372  22.726  0.00  0.00     0.025 A 
ATOM     10  C   UNL d   1     -50.250  15.305  23.698  0.00  0.00     0.000 A 
ATOM     11  C   UNL d   1     -49.654  15.754  23.287  0.00  0.00     0.002 A 
ENDROOT
BRANCH   1  12
ATOM     12  C   UNL d   1     -49.571  12.197  22.089  0.00  0.00     0.216 C 
ATOM     13  O   UNL d   1     -49.188  11.608  22.521  0.00  0.00    -0.644 OA
ATOM     14  O   UNL d   1     -50.010  11.825  21.517  0.00  0.00    -0.644 OA
ENDBRANCH   1  12
TORSDOF 1
ENDMDL
MODEL 9
REMARK VINA RESULT:      -5.4      7.854      8.992
REMARK  1 active torsions:
REMARK  status: ('A' for Active; 'I' for Inactive)
REMARK    1  A    between atoms: C_5  and  C_1 
ROOT
ATOM      1  C   UNL d   1     -39.655  13.970  18.495  0.00  0.00     0.128 A 
ATOM      2  C   UNL d   1     -40.480  14.180  18.467  0.00  0.00     0.306 A 
ATOM      3  C   UNL d   1     -39.250  14.072  19.195  0.00  0.00     0.013 A 
ATOM      4  O   UNL d   1     -40.841  14.478  19.141  0.00  0.00    -0.273 OA
ATOM      5  C   UNL d   1     -39.623  14.375  19.873  0.00  0.00     0.023 A 
ATOM      6  C   UNL d   1     -40.425  14.579  19.846  0.00  0.00     0.103 A 
ATOM      7  O   UNL d   1     -40.938  14.091  17.765  0.00  0.00    -0.259 OA
ATOM      8  C   UNL d   1     -39.197  14.464  20.547  0.00  0.00     0.002 A 
ATOM      9  C   UNL d   1     -40.787  14.869  20.493  0.00  0.00     0.025 A 
ATOM     10  C   UNL d   1     -39.546  14.761  21.230  0.00  0.00     0.000 A 
ATOM     11  C   UNL d   1     -40.371  14.972  21.202  0.00  0.00     0.002 A 
ENDROOT
BRANCH   1  12
ATOM     12  C   UNL d   1     -39.304  13.681  17.842  0.00  0.00     0.216 C 
ATOM     13  O   UNL d   1     -38.900  14.162  17.308  0.00  0.00    -0.644 OA
ATOM     14  O   UNL d   1     -39.257  12.922  17.561  0.00  0.00    -0.644 OA
ENDBRANCH   1  12
TORSDOF 1
ENDMDL
