MODEL 1
REMARK VINA RESULT:      -8.0      0.000      0.000
REMARK  2 active torsions:
REMARK  status: ('A' for Active; 'I' for Inactive)
REMARK    1  A    between atoms: N_4  and  C_1 
REMARK    2  A    between atoms: C_11  and  C_3 
ROOT
ATOM      1  C   UNL d   1     -47.119  12.698  23.044  0.00  0.00     0.148 A 
ATOM      2  N   UNL d   1     -46.979  13.482  22.916  0.00  0.00    -0.228 NA
ATOM      3  C   UNL d   1     -48.527  12.963  22.947  0.00  0.00     0.004 A 
ATOM      4  C   UNL d   1     -47.905  12.435  23.060  0.00  0.00     0.037 A 
ATOM      5  C   UNL d   1     -48.355  13.763  22.817  0.00  0.00     0.018 A 
ATOM      6  C   UNL d   1     -47.569  14.026  22.801  0.00  0.00     0.083 A 
ATOM      7  C   UNL d   1     -48.976  14.287  22.704  0.00  0.00     0.002 A 
ATOM      8  C   UNL d   1     -47.428  14.806  22.673  0.00  0.00     0.019 A 
ATOM      9  C   UNL d   1     -48.804  15.091  22.574  0.00  0.00     0.000 A 
ATOM     10  C   UNL d   1     -48.019  15.354  22.558  0.00  0.00     0.002 A 
ENDROOT
BRANCH   1  11
ATOM     11  N   UNL d   1     -46.532  12.161  23.157  0.00  0.00    -0.286 N 
ATOM     12  C   UNL d   1     -46.626  11.452  23.583  0.00  0.00     0.101 A 
ATOM     13  C   UNL d   1     -46.038  10.912  23.698  0.00  0.00     0.100 A 
ATOM     14  N   UNL d   1     -45.291  11.067  23.374  0.00  0.00    -0.299 N 
ATOM     15  C   UNL d   1     -45.176  11.754  22.954  0.00  0.00     0.100 A 
ATOM     16  C   UNL d   1     -44.690  10.526  23.485  0.00  0.00     0.100 C 
ATOM     17  C   UNL d   1     -45.785  12.317  22.833  0.00  0.00     0.101 A 
ENDBRANCH   1  11
BRANCH   3  18
ATOM     18  C   UNL d   1     -49.291  12.707  22.962  0.00  0.00     0.000 A 
ATOM     19  C   UNL d   1     -49.710  12.677  23.671  0.00  0.00     0.000 A 
ATOM     20  C   UNL d   1     -50.461  12.426  23.686  0.00  0.00     0.000 A 
ATOM     21  C   UNL d   1     -50.851  12.185  22.993  0.00  0.00     0.000 A 
ATOM     22  C   UNL d   1     -50.420  12.218  22.279  0.00  0.00     0.000 A 
ATOM     23  C   UNL d   1     -49.669  12.470  22.264  0.00  0.00     0.000 A 
ENDBRANCH   3  18
TORSDOF 2
ENDMDL
MODEL 2
REMARK VINA RESULT:      -7.0      8.745     10.023
REMARK  2 active torsions:
REMARK  status: ('A' for Active; 'I' for Inactive)
REMARK    1  A    between atoms: N_4  and  C_1 
REMARK    2  A    between atoms: C_11  and  C_3 
ROOT
ATOM      1  C   UNL d   1     -39.768  15.227  19.373  0.00  0.00     0.148 A 
ATOM      2  N   UNL d   1     -40.373  15.617  19.009  0.00  0.00    -0.228 NA
ATOM      3  C   UNL d   1     -39.446  14.610  18.117  0.00  0.00     0.004 A 
ATOM      4  C   UNL d   1     -39.298  14.716  18.920  0.00  0.00     0.037 A 
ATOM      5  C   UNL d   1     -40.074  15.022  17.768  0.00  0.00     0.018 A 
ATOM      6  C   UNL d   1     -40.545  15.533  18.221  0.00  0.00     0.083 A 
ATOM      7  C   UNL d   1     -40.221  14.915  16.968  0.00  0.00     0.002 A 
ATOM      8  C   UNL d   1     -41.147  15.922  17.860  0.00  0.00     0.019 A 
ATOM      9  C   UNL d   1     -40.851  15.329  16.616  0.00  0.00     0.000 A 
ATOM     10  C   UNL d   1     -41.321  15.840  17.069  0.00  0.00     0.002 A 
ENDROOT
BRANCH   1  11
ATOM     11  N   UNL d   1     -39.600  15.312  20.155  0.00  0.00    -0.286 N 
ATOM     12  C   UNL d   1     -39.026  15.835  20.453  0.00  0.00     0.101 A 
ATOM     13  C   UNL d   1     -38.857  15.922  21.237  0.00  0.00     0.100 A 
ATOM     14  N   UNL d   1     -39.277  15.463  21.785  0.00  0.00    -0.299 N 
ATOM     15  C   UNL d   1     -39.843  14.945  21.515  0.00  0.00     0.100 A 
ATOM     16  C   UNL d   1     -39.111  15.545  22.580  0.00  0.00     0.100 C 
ATOM     17  C   UNL d   1     -40.021  14.853  20.702  0.00  0.00     0.101 A 
ENDBRANCH   1  11
BRANCH   3  18
ATOM     18  C   UNL d   1     -38.990  14.113  17.677  0.00  0.00     0.000 A 
ATOM     19  C   UNL d   1     -38.389  14.409  17.197  0.00  0.00     0.000 A 
ATOM     20  C   UNL d   1     -37.940  13.921  16.764  0.00  0.00     0.000 A 
ATOM     21  C   UNL d   1     -38.057  13.099  16.778  0.00  0.00     0.000 A 
ATOM     22  C   UNL d   1     -38.667  12.806  17.267  0.00  0.00     0.000 A 
ATOM     23  C   UNL d   1     -39.116  13.295  17.700  0.00  0.00     0.000 A 
ENDBRANCH   3  18
TORSDOF 2
ENDMDL
MODEL 3
REMARK VINA RESULT:      -6.8      1.732      4.412
REMARK  2 active torsions:
REMARK  status: ('A' for Active; 'I' for Inactive)
REMARK    1  A    between atoms: N_4  and  C_1 
REMARK    2  A    between atoms: C_11  and  C_3 
ROOT
ATOM      1  C   UNL d   1     -48.801  13.476  22.947  0.00  0.00     0.148 A 
ATOM      2  N   UNL d   1     -48.967  12.744  23.242  0.00  0.00    -0.228 NA
ATOM      3  C   UNL d   1     -47.433  13.069  22.785  0.00  0.00     0.004 A 
ATOM      4  C   UNL d   1     -48.022  13.641  22.715  0.00  0.00     0.037 A 
ATOM      5  C   UNL d   1     -47.632  12.325  23.091  0.00  0.00     0.018 A 
ATOM      6  C   UNL d   1     -48.410  12.160  23.323  0.00  0.00     0.083 A 
ATOM      7  C   UNL d   1     -47.044  11.757  23.159  0.00  0.00     0.002 A 
ATOM      8  C   UNL d   1     -48.577  11.432  23.616  0.00  0.00     0.019 A 
ATOM      9  C   UNL d   1     -47.241  11.010  23.466  0.00  0.00     0.000 A 
ATOM     10  C   UNL d   1     -48.020  10.845  23.698  0.00  0.00     0.002 A 
ENDROOT
BRANCH   1  11
ATOM     11  N   UNL d   1     -49.356  14.053  22.868  0.00  0.00    -0.286 N 
ATOM     12  C   UNL d   1     -49.794  14.183  22.174  0.00  0.00     0.101 A 
ATOM     13  C   UNL d   1     -50.352  14.762  22.093  0.00  0.00     0.100 A 
ATOM     14  N   UNL d   1     -50.500  15.260  22.739  0.00  0.00    -0.299 N 
ATOM     15  C   UNL d   1     -50.083  15.150  23.428  0.00  0.00     0.100 A 
ATOM     16  C   UNL d   1     -51.062  15.847  22.665  0.00  0.00     0.100 C 
ATOM     17  C   UNL d   1     -49.504  14.550  23.514  0.00  0.00     0.101 A 
ENDBRANCH   1  11
BRANCH   3  18
ATOM     18  C   UNL d   1     -46.677  13.230  22.560  0.00  0.00     0.000 A 
ATOM     19  C   UNL d   1     -46.408  13.018  21.810  0.00  0.00     0.000 A 
ATOM     20  C   UNL d   1     -45.664  13.176  21.588  0.00  0.00     0.000 A 
ATOM     21  C   UNL d   1     -45.131  13.557  22.099  0.00  0.00     0.000 A 
ATOM     22  C   UNL d   1     -45.411  13.768  22.857  0.00  0.00     0.000 A 
ATOM     23  C   UNL d   1     -46.155  13.611  23.079  0.00  0.00     0.000 A 
ENDBRANCH   3  18
TORSDOF 2
ENDMDL
MODEL 4
REMARK VINA RESULT:      -6.3      7.648      9.745
REMARK  2 active torsions:
REMARK  status: ('A' for Active; 'I' for Inactive)
REMARK    1  A    between atoms: N_4  and  C_1 
REMARK    2  A    between atoms: C_11  and  C_3 
ROOT
ATOM      1  C   UNL d   1     -38.769  14.051  19.149  0.00  0.00     0.148 A 
ATOM      2  N   UNL d   1     -38.281  13.688  19.678  0.00  0.00    -0.228 NA
ATOM      3  C   UNL d   1     -39.630  14.418  20.238  0.00  0.00     0.004 A 
ATOM      4  C   UNL d   1     -39.454  14.422  19.433  0.00  0.00     0.037 A 
ATOM      5  C   UNL d   1     -39.112  14.037  20.759  0.00  0.00     0.018 A 
ATOM      6  C   UNL d   1     -38.427  13.666  20.475  0.00  0.00     0.083 A 
ATOM      7  C   UNL d   1     -39.289  14.035  21.561  0.00  0.00     0.002 A 
ATOM      8  C   UNL d   1     -37.941  13.304  21.001  0.00  0.00     0.019 A 
ATOM      9  C   UNL d   1     -38.770  13.652  22.086  0.00  0.00     0.000 A 
ATOM     10  C   UNL d   1     -38.085  13.281  21.802  0.00  0.00     0.002 A 
ENDROOT
BRANCH   1  11
ATOM     11  N   UNL d   1     -38.622  14.070  18.359  0.00  0.00    -0.286 N 
ATOM     12  C   UNL d   1     -38.790  13.443  17.839  0.00  0.00     0.101 A 
ATOM     13  C   UNL d   1     -38.642  13.460  17.046  0.00  0.00     0.100 A 
ATOM     14  N   UNL d   1     -38.302  14.144  16.723  0.00  0.00    -0.299 N 
ATOM     15  C   UNL d   1     -38.129  14.769  17.212  0.00  0.00     0.100 A 
ATOM     16  C   UNL d   1     -38.150  14.170  15.921  0.00  0.00     0.100 C 
ATOM     17  C   UNL d   1     -38.281  14.754  18.036  0.00  0.00     0.101 A 
ENDBRANCH   1  11
BRANCH   3  18
ATOM     18  C   UNL d   1     -40.295  14.779  20.514  0.00  0.00     0.000 A 
ATOM     19  C   UNL d   1     -40.275  15.564  20.765  0.00  0.00     0.000 A 
ATOM     20  C   UNL d   1     -40.929  15.918  21.037  0.00  0.00     0.000 A 
ATOM     21  C   UNL d   1     -41.655  15.515  21.078  0.00  0.00     0.000 A 
ATOM     22  C   UNL d   1     -41.667  14.721  20.821  0.00  0.00     0.000 A 
ATOM     23  C   UNL d   1     -41.013  14.366  20.550  0.00  0.00     0.000 A 
ENDBRANCH   3  18
TORSDOF 2
ENDMDL
MODEL 5
REMARK VINA RESULT:      -6.1      8.055      9.821
REMARK  2 active torsions:
REMARK  status: ('A' for Active; 'I' for Inactive)
REMARK    1  A    between atoms: N_4  and  C_1 
REMARK    2  A    between atoms: C_11  and  C_3 
ROOT
ATOM      1  C   UNL d   1     -39.356  14.623  18.952  0.00  0.00     0.148 A 
ATOM      2  N   UNL d   1     -40.041  15.047  19.006  0.00  0.00    -0.228 NA
ATOM      3  C   UNL d   1     -39.278  14.622  20.386  0.00  0.00     0.004 A 
ATOM      4  C   UNL d   1     -38.969  14.408  19.653  0.00  0.00     0.037 A 
ATOM      5  C   UNL d   1     -39.983  15.057  20.412  0.00  0.00     0.018 A 
ATOM      6  C   UNL d   1     -40.370  15.272  19.711  0.00  0.00     0.083 A 
ATOM      7  C   UNL d   1     -40.289  15.269  21.143  0.00  0.00     0.002 A 
ATOM      8  C   UNL d   1     -41.051  15.694  19.763  0.00  0.00     0.019 A 
ATOM      9  C   UNL d   1     -40.996  15.706  21.172  0.00  0.00     0.000 A 
ATOM     10  C   UNL d   1     -41.383  15.921  20.471  0.00  0.00     0.002 A 
ENDROOT
BRANCH   1  11
ATOM     11  N   UNL d   1     -39.033  14.401  18.251  0.00  0.00    -0.286 N 
ATOM     12  C   UNL d   1     -39.149  13.656  17.901  0.00  0.00     0.101 A 
ATOM     13  C   UNL d   1     -38.825  13.431  17.196  0.00  0.00     0.100 A 
ATOM     14  N   UNL d   1     -38.345  13.973  16.792  0.00  0.00    -0.299 N 
ATOM     15  C   UNL d   1     -38.219  14.708  17.116  0.00  0.00     0.100 A 
ATOM     16  C   UNL d   1     -38.014  13.753  16.079  0.00  0.00     0.100 C 
ATOM     17  C   UNL d   1     -38.554  14.944  17.846  0.00  0.00     0.101 A 
ENDBRANCH   1  11
BRANCH   3  18
ATOM     18  C   UNL d   1     -38.903  14.412  21.066  0.00  0.00     0.000 A 
ATOM     19  C   UNL d   1     -38.348  14.915  21.413  0.00  0.00     0.000 A 
ATOM     20  C   UNL d   1     -37.979  14.708  22.082  0.00  0.00     0.000 A 
ATOM     21  C   UNL d   1     -38.134  13.984  22.458  0.00  0.00     0.000 A 
ATOM     22  C   UNL d   1     -38.697  13.480  22.101  0.00  0.00     0.000 A 
ATOM     23  C   UNL d   1     -39.066  13.686  21.431  0.00  0.00     0.000 A 
ENDBRANCH   3  18
TORSDOF 2
ENDMDL
MODEL 6
REMARK VINA RESULT:      -5.9      1.467      2.610
REMARK  2 active torsions:
REMARK  status: ('A' for Active; 'I' for Inactive)
REMARK    1  A    between atoms: N_4  and  C_1 
REMARK    2  A    between atoms: C_11  and  C_3 
ROOT
ATOM      1  C   UNL d   1     -48.240  13.048  22.938  0.00  0.00     0.148 A 
ATOM      2  N   UNL d   1     -48.575  12.343  23.143  0.00  0.00    -0.228 NA
ATOM      3  C   UNL d   1     -49.528  13.668  23.079  0.00  0.00     0.004 A 
ATOM      4  C   UNL d   1     -48.724  13.720  22.906  0.00  0.00     0.037 A 
ATOM      5  C   UNL d   1     -49.846  12.932  23.286  0.00  0.00     0.018 A 
ATOM      6  C   UNL d   1     -49.362  12.259  23.318  0.00  0.00     0.083 A 
ATOM      7  C   UNL d   1     -50.646  12.882  23.457  0.00  0.00     0.002 A 
ATOM      8  C   UNL d   1     -49.694  11.557  23.521  0.00  0.00     0.019 A 
ATOM      9  C   UNL d   1     -50.968  12.143  23.666  0.00  0.00     0.000 A 
ATOM     10  C   UNL d   1     -50.484  11.471  23.698  0.00  0.00     0.002 A 
ENDROOT
BRANCH   1  11
ATOM     11  N   UNL d   1     -47.459  13.128  22.765  0.00  0.00    -0.286 N 
ATOM     12  C   UNL d   1     -46.896  13.439  23.291  0.00  0.00     0.101 A 
ATOM     13  C   UNL d   1     -46.111  13.520  23.119  0.00  0.00     0.100 A 
ATOM     14  N   UNL d   1     -45.845  13.279  22.372  0.00  0.00    -0.299 N 
ATOM     15  C   UNL d   1     -46.379  12.972  21.841  0.00  0.00     0.100 A 
ATOM     16  C   UNL d   1     -45.053  13.358  22.189  0.00  0.00     0.100 C 
ATOM     17  C   UNL d   1     -47.193  12.887  22.017  0.00  0.00     0.101 A 
ENDBRANCH   1  11
BRANCH   3  18
ATOM     18  C   UNL d   1     -49.997  14.321  23.047  0.00  0.00     0.000 A 
ATOM     19  C   UNL d   1     -50.065  14.823  23.698  0.00  0.00     0.000 A 
ATOM     20  C   UNL d   1     -50.527  15.465  23.667  0.00  0.00     0.000 A 
ATOM     21  C   UNL d   1     -50.958  15.656  22.983  0.00  0.00     0.000 A 
ATOM     22  C   UNL d   1     -50.884  15.144  22.328  0.00  0.00     0.000 A 
ATOM     23  C   UNL d   1     -50.422  14.501  22.359  0.00  0.00     0.000 A 
ENDBRANCH   3  18
TORSDOF 2
ENDMDL
