MODEL 1
REMARK VINA RESULT:      22.4      0.000      0.000
REMARK  4 active torsions:
REMARK  status: ('A' for Active; 'I' for Inactive)
REMARK    1  A    between atoms: C_4  and  C_3 
REMARK    2  A    between atoms: S_8  and  C_5 
REMARK    3  A    between atoms: C_13  and  S_8 
REMARK    4  A    between atoms: C_14  and  C_13 
ROOT
ATOM      1  N   UNL d   1     -55.061-102.269 -42.139  0.00  0.00    -0.146 NA
ATOM      2  N   UNL d   1     -54.977-102.604 -41.399  0.00  0.00    -0.141 NA
ATOM      3  C   UNL d   1     -54.969-101.455 -42.228  0.00  0.00     0.126 A 
ATOM      4  C   UNL d   1     -54.804-102.145 -40.747  0.00  0.00     0.132 A 
ATOM      5  C   UNL d   1     -54.794-100.984 -41.574  0.00  0.00     0.025 A 
ATOM      6  C   UNL d   1     -54.712-101.324 -40.841  0.00  0.00     0.029 A 
ENDROOT
BRANCH   4   7
ATOM      7  S   UNL d   1     -54.720-102.487 -40.003  0.00  0.00    -0.066 SA
BRANCH   7   8
ATOM      8  C   UNL d   1     -55.378-102.739 -39.587  0.00  0.00     0.037 C 
BRANCH   8   9
ATOM      9  C   UNL d   1     -55.382-102.691 -38.763  0.00  0.00     0.006 A 
ATOM     10  C   UNL d   1     -56.065-102.878 -38.346  0.00  0.00     0.001 A 
ATOM     11  C   UNL d   1     -56.077-102.832 -37.531  0.00  0.00     0.000 A 
ATOM     12  C   UNL d   1     -55.391-102.596 -37.128  0.00  0.00     0.000 A 
ATOM     13  C   UNL d   1     -54.716-102.413 -37.549  0.00  0.00     0.000 A 
ATOM     14  C   UNL d   1     -54.716-102.462 -38.372  0.00  0.00     0.001 A 
ENDBRANCH   8   9
ENDBRANCH   7   8
ENDBRANCH   4   7
BRANCH   3  15
ATOM     15  C   UNL d   1     -55.052-101.110 -42.969  0.00  0.00     0.119 A 
ATOM     16  O   UNL d   1     -55.474-101.414 -43.605  0.00  0.00    -0.304 OA
ATOM     17  C   UNL d   1     -55.413-100.893 -44.240  0.00  0.00     0.123 A 
ATOM     18  C   UNL d   1     -54.942-100.251 -43.991  0.00  0.00     0.029 A 
ATOM     19  C   UNL d   1     -54.719-100.384 -43.207  0.00  0.00     0.028 A 
ENDBRANCH   3  15
TORSDOF 4
ENDMDL
