MODEL 1
REMARK VINA RESULT:     217.9      0.000      0.000
REMARK  2 active torsions:
REMARK  status: ('A' for Active; 'I' for Inactive)
REMARK    1  A    between atoms: C_2  and  C_1 
REMARK       I    between atoms: N_3  and  C_1 
REMARK    2  A    between atoms: C_5  and  N_4 
ROOT
ATOM      1  C   UNL d   1     -57.866-100.886 -43.835  0.00  0.00     0.267 C 
ATOM      2  N   UNL d   1     -57.420-100.906 -43.141  0.00  0.00    -0.269 N 
ATOM      3  N   UNL d   1     -56.526-100.946 -41.752  0.00  0.00    -0.301 N 
ATOM      4  O   UNL d   1     -57.922-101.555 -44.309  0.00  0.00    -0.267 OA
ATOM      5  C   UNL d   1     -57.028-101.595 -42.919  0.00  0.00     0.102 A 
ATOM      6  C   UNL d   1     -57.363-100.234 -42.665  0.00  0.00     0.102 A 
ATOM      7  C   UNL d   1     -56.917-100.254 -41.971  0.00  0.00     0.100 A 
ATOM      8  C   UNL d   1     -56.582-101.615 -42.226  0.00  0.00     0.100 A 
ENDROOT
BRANCH   1   9
ATOM      9  C   UNL d   1     -58.257-100.195 -44.055  0.00  0.00     0.084 A 
ATOM     10  C   UNL d   1     -57.914 -99.681 -44.605  0.00  0.00     0.145 A 
ATOM     11  F   UNL d   1     -57.180 -99.860 -44.934  0.00  0.00    -0.204 F 
ATOM     12  C   UNL d   1     -58.310 -98.986 -44.824  0.00  0.00     0.030 A 
ATOM     13  C   UNL d   1     -59.041 -98.810 -44.495  0.00  0.00     0.002 A 
ATOM     14  C   UNL d   1     -59.384 -99.323 -43.945  0.00  0.00     0.000 A 
ATOM     15  C   UNL d   1     -58.996-100.012 -43.725  0.00  0.00     0.007 A 
ENDBRANCH   1   9
BRANCH   3  16
ATOM     16  C   UNL d   1     -56.079-100.966 -41.056  0.00  0.00     0.064 A 
ATOM     17  C   UNL d   1     -55.299-101.223 -41.077  0.00  0.00     0.016 A 
ATOM     18  C   UNL d   1     -54.852-101.243 -40.382  0.00  0.00     0.001 A 
ATOM     19  C   UNL d   1     -54.961-101.461 -41.789  0.00  0.00     0.002 C 
ATOM     20  C   UNL d   1     -55.186-101.005 -39.669  0.00  0.00     0.000 A 
ATOM     21  C   UNL d   1     -55.969-100.747 -39.649  0.00  0.00     0.002 A 
ATOM     22  C   UNL d   1     -54.740-101.025 -38.975  0.00  0.00     0.000 C 
ATOM     23  C   UNL d   1     -56.416-100.727 -40.345  0.00  0.00     0.018 A 
ENDBRANCH   3  16
TORSDOF 2
ENDMDL
