MODEL 1
REMARK VINA RESULT:      21.9      0.000      0.000
REMARK  5 active torsions:
REMARK  status: ('A' for Active; 'I' for Inactive)
REMARK    1  A    between atoms: C_20  and  C_3 
REMARK    2  A    between atoms: C_6  and  C_8 
REMARK       I    between atoms: C_8  and  N_17 
REMARK    3  A    between atoms: N_17  and  C_21 
REMARK    4  A    between atoms: O_22  and  C_18 
REMARK    5  A    between atoms: C_21  and  C_20 
ROOT
ATOM      1  N   UNL d   1      14.914  11.924  -2.569  0.00  0.00    -0.208 NA
ATOM      2  C   UNL d   1      14.903  11.868  -1.745  0.00  0.00     0.279 A 
ATOM      3  C   UNL d   1      14.176  11.838  -1.340  0.00  0.00     0.059 A 
ATOM      4  C   UNL d   1      14.197  11.950  -2.992  0.00  0.00     0.087 A 
ATOM      5  C   UNL d   1      13.467  11.864  -1.764  0.00  0.00     0.006 A 
ATOM      6  C   UNL d   1      13.480  11.920  -2.585  0.00  0.00     0.018 A 
ATOM      7  C   UNL d   1      14.217  12.006  -3.817  0.00  0.00     0.043 A 
ATOM      8  O   UNL d   1      15.610  11.841  -1.325  0.00  0.00    -0.265 OA
ATOM      9  C   UNL d   1      12.770  11.947  -3.012  0.00  0.00     0.004 A 
ATOM     10  C   UNL d   1      13.510  12.033  -4.237  0.00  0.00     0.096 A 
ATOM     11  C   UNL d   1      12.783  12.003  -3.833  0.00  0.00     0.024 A 
ENDROOT
BRANCH   3  12
ATOM     12  C   UNL d   1      14.169  11.782  -0.524  0.00  0.00     0.026 C 
BRANCH  12  13
ATOM     13  C   UNL d   1      14.600  12.306  -0.063  0.00  0.00     0.102 C 
BRANCH  13  14
ATOM     14  N   UNL d   1      14.541  13.121  -0.176  0.00  0.00    -0.206 NA
ATOM     15  C   UNL d   1      15.216  13.595  -0.152  0.00  0.00     0.285 C 
ATOM     16  O   UNL d   1      15.953  13.260  -0.015  0.00  0.00    -0.265 OA
BRANCH  15  17
ATOM     17  C   UNL d   1      15.148  14.411  -0.266  0.00  0.00     0.087 A 
ATOM     18  S   UNL d   1      15.755  14.920  -0.467  0.00  0.00    -0.082 SA
ATOM     19  C   UNL d   1      15.461  15.672  -0.526  0.00  0.00     0.036 A 
ATOM     20  C   UNL d   1      14.650  15.640  -0.358  0.00  0.00     0.008 A 
ATOM     21  C   UNL d   1      14.457  14.855  -0.197  0.00  0.00     0.012 A 
ENDBRANCH  15  17
ENDBRANCH  13  14
ENDBRANCH  12  13
ENDBRANCH   3  12
BRANCH  10  22
ATOM     22  O   UNL d   1      13.523  12.089  -5.059  0.00  0.00    -0.328 OA
ATOM     23  C   UNL d   1      12.884  11.815  -5.499  0.00  0.00     0.181 C 
ENDBRANCH  10  22
TORSDOF 5
ENDMDL
MODEL 2
REMARK VINA RESULT:      23.9      1.653      4.502
REMARK  5 active torsions:
REMARK  status: ('A' for Active; 'I' for Inactive)
REMARK    1  A    between atoms: C_20  and  C_3 
REMARK    2  A    between atoms: C_6  and  C_8 
REMARK       I    between atoms: C_8  and  N_17 
REMARK    3  A    between atoms: N_17  and  C_21 
REMARK    4  A    between atoms: O_22  and  C_18 
REMARK    5  A    between atoms: C_21  and  C_20 
ROOT
ATOM      1  N   UNL d   1      15.279  13.522  -0.337  0.00  0.00    -0.208 NA
ATOM      2  C   UNL d   1      15.068  12.844  -0.759  0.00  0.00     0.279 A 
ATOM      3  C   UNL d   1      14.723  12.915  -1.514  0.00  0.00     0.059 A 
ATOM      4  C   UNL d   1      15.146  14.275  -0.668  0.00  0.00     0.087 A 
ATOM      5  C   UNL d   1      14.592  13.664  -1.838  0.00  0.00     0.006 A 
ATOM      6  C   UNL d   1      14.803  14.338  -1.416  0.00  0.00     0.018 A 
ATOM      7  C   UNL d   1      15.360  14.949  -0.239  0.00  0.00     0.043 A 
ATOM      8  O   UNL d   1      15.199  12.100  -0.434  0.00  0.00    -0.265 OA
ATOM      9  C   UNL d   1      14.673  15.090  -1.740  0.00  0.00     0.004 A 
ATOM     10  C   UNL d   1      15.229  15.693  -0.564  0.00  0.00     0.096 A 
ATOM     11  C   UNL d   1      14.883  15.764  -1.319  0.00  0.00     0.024 A 
ENDROOT
BRANCH   3  12
ATOM     12  C   UNL d   1      14.516  12.240  -1.928  0.00  0.00     0.026 C 
BRANCH  12  13
ATOM     13  C   UNL d   1      13.776  12.170  -2.274  0.00  0.00     0.102 C 
BRANCH  13  14
ATOM     14  N   UNL d   1      13.695  12.000  -3.078  0.00  0.00    -0.206 NA
ATOM     15  C   UNL d   1      13.334  12.543  -3.584  0.00  0.00     0.285 C 
ATOM     16  O   UNL d   1      13.051  13.256  -3.294  0.00  0.00    -0.265 OA
BRANCH  15  17
ATOM     17  C   UNL d   1      13.257  12.364  -4.388  0.00  0.00     0.087 A 
ATOM     18  S   UNL d   1      13.652  12.733  -5.001  0.00  0.00    -0.082 SA
ATOM     19  C   UNL d   1      13.424  12.398  -5.702  0.00  0.00     0.036 A 
ATOM     20  C   UNL d   1      12.872  11.803  -5.530  0.00  0.00     0.008 A 
ATOM     21  C   UNL d   1      12.770  11.784  -4.712  0.00  0.00     0.012 A 
ENDBRANCH  15  17
ENDBRANCH  13  14
ENDBRANCH  12  13
ENDBRANCH   3  12
BRANCH  10  22
ATOM     22  O   UNL d   1      15.440  16.368  -0.142  0.00  0.00    -0.328 OA
ATOM     23  C   UNL d   1      16.205  16.664  -0.197  0.00  0.00     0.181 C 
ENDBRANCH  10  22
TORSDOF 5
ENDMDL
