MODEL 1
REMARK VINA RESULT:      32.3      0.000      0.000
REMARK  4 active torsions:
REMARK  status: ('A' for Active; 'I' for Inactive)
REMARK    1  A    between atoms: C_2  and  S_1 
REMARK    2  A    between atoms: N_3  and  S_1 
REMARK    3  A    between atoms: C_14  and  N_3 
REMARK       I    between atoms: C_7  and  N_8 
REMARK    4  A    between atoms: N_8  and  C_15 
ROOT
ATOM      1  S   UNL d   1      14.623  12.848  -0.893  0.00  0.00     0.285 S 
ATOM      2  O   UNL d   1      13.923  13.008  -0.471  0.00  0.00    -0.198 OA
ATOM      3  O   UNL d   1      15.326  12.691  -1.304  0.00  0.00    -0.198 OA
ENDROOT
BRANCH   1   4
ATOM      4  C   UNL d   1      14.158  12.581  -1.541  0.00  0.00     0.105 A 
ATOM      5  C   UNL d   1      14.311  12.827  -2.295  0.00  0.00     0.013 A 
ATOM      6  C   UNL d   1      13.849  12.559  -2.924  0.00  0.00     0.001 A 
ATOM      7  C   UNL d   1      14.030  12.833  -3.707  0.00  0.00     0.000 A 
ATOM      8  C   UNL d   1      13.231  12.044  -2.805  0.00  0.00     0.000 A 
ATOM      9  C   UNL d   1      13.588  12.584  -4.353  0.00  0.00     0.000 A 
ATOM     10  C   UNL d   1      12.942  12.045  -4.223  0.00  0.00     0.000 A 
ATOM     11  C   UNL d   1      12.771  11.781  -3.447  0.00  0.00     0.000 A 
ATOM     12  C   UNL d   1      13.062  11.779  -2.010  0.00  0.00     0.001 A 
ATOM     13  C   UNL d   1      13.534  12.058  -1.398  0.00  0.00     0.013 A 
ENDBRANCH   1   4
BRANCH   1  14
ATOM     14  N   UNL d   1      15.074  13.113  -0.246  0.00  0.00    -0.158 NA
BRANCH  14  15
ATOM     15  C   UNL d   1      15.271  13.909  -0.197  0.00  0.00     0.094 A 
ATOM     16  C   UNL d   1      14.657  14.448  -0.289  0.00  0.00     0.021 A 
ATOM     17  C   UNL d   1      14.829  15.268  -0.244  0.00  0.00     0.021 A 
ATOM     18  C   UNL d   1      15.606  15.512  -0.108  0.00  0.00     0.085 A 
ATOM     19  C   UNL d   1      16.200  14.946  -0.020  0.00  0.00     0.021 A 
ATOM     20  C   UNL d   1      16.032  14.148  -0.064  0.00  0.00     0.021 A 
BRANCH  18  21
ATOM     21  N   UNL d   1      15.778  16.342  -0.063  0.00  0.00    -0.208 NA
ATOM     22  C   UNL d   1      15.479  16.870  -0.655  0.00  0.00     0.279 C 
ATOM     23  O   UNL d   1      15.016  16.587  -1.284  0.00  0.00    -0.265 OA
ATOM     24  C   UNL d   1      15.655  17.657  -0.591  0.00  0.00     0.068 C 
ENDBRANCH  18  21
ENDBRANCH  14  15
ENDBRANCH   1  14
TORSDOF 4
ENDMDL
