MODEL 1
REMARK VINA RESULT:      58.7      0.000      0.000
REMARK  6 active torsions:
REMARK  status: ('A' for Active; 'I' for Inactive)
REMARK    1  A    between atoms: N_5  and  S_1 
REMARK    2  A    between atoms: C_6  and  S_1 
REMARK    3  A    between atoms: C_2  and  C_11 
REMARK    4  A    between atoms: C_9  and  N_5 
REMARK    5  A    between atoms: C_10  and  C_9 
REMARK       I    between atoms: N_15  and  C_10 
REMARK    6  A    between atoms: C_19  and  N_15 
ROOT
ATOM      1  C   UNL d   1      13.887  16.551  -5.555  0.00  0.00     0.024 A 
ATOM      2  C   UNL d   1      13.958  16.257  -4.787  0.00  0.00     0.004 A 
ATOM      3  C   UNL d   1      13.773  16.034  -6.183  0.00  0.00     0.004 A 
ATOM      4  C   UNL d   1      13.800  14.918  -5.279  0.00  0.00     0.085 A 
ATOM      5  C   UNL d   1      13.729  15.214  -6.043  0.00  0.00     0.019 A 
ATOM      6  C   UNL d   1      13.915  15.445  -4.642  0.00  0.00     0.019 A 
ENDROOT
BRANCH   4   7
ATOM      7  N   UNL d   1      13.755  14.103  -5.155  0.00  0.00    -0.207 NA
ATOM      8  C   UNL d   1      13.250  13.807  -4.580  0.00  0.00     0.299 C 
ATOM      9  O   UNL d   1      12.790  14.317  -4.127  0.00  0.00    -0.263 OA
BRANCH   8  10
ATOM     10  C   UNL d   1      13.205  12.984  -4.456  0.00  0.00     0.174 C 
BRANCH  10  11
ATOM     11  N   UNL d   1      12.829  12.688  -3.787  0.00  0.00    -0.152 NA
BRANCH  11  12
ATOM     12  S   UNL d   1      13.274  12.458  -3.131  0.00  0.00     0.285 S 
ATOM     13  O   UNL d   1      13.515  11.781  -3.537  0.00  0.00    -0.198 OA
ATOM     14  O   UNL d   1      13.029  13.138  -2.733  0.00  0.00    -0.198 OA
BRANCH  12  15
ATOM     15  C   UNL d   1      13.714  12.234  -2.481  0.00  0.00     0.106 A 
ATOM     16  C   UNL d   1      13.344  12.136  -1.748  0.00  0.00     0.024 A 
ATOM     17  C   UNL d   1      13.788  11.910  -1.091  0.00  0.00     0.059 A 
ATOM     18 CL   UNL d   1      13.417  11.808  -0.343  0.00  0.00    -0.082 Cl
ATOM     19  C   UNL d   1      14.598  11.779  -1.154  0.00  0.00     0.011 A 
ATOM     20  C   UNL d   1      14.969  11.877  -1.888  0.00  0.00     0.002 A 
ATOM     21  C   UNL d   1      14.520  12.106  -2.551  0.00  0.00     0.013 A 
ENDBRANCH  12  15
ENDBRANCH  11  12
ENDBRANCH  10  11
ENDBRANCH   8  10
ENDBRANCH   4   7
BRANCH   1  22
ATOM     22  C   UNL d   1      13.928  17.366  -5.707  0.00  0.00     0.111 A 
ATOM     23  N   UNL d   1      13.303  17.795  -6.020  0.00  0.00    -0.239 NA
ATOM     24  C   UNL d   1      13.537  18.583  -6.098  0.00  0.00     0.088 A 
ATOM     25  C   UNL d   1      13.146  19.251  -6.376  0.00  0.00     0.020 A 
ATOM     26  C   UNL d   1      14.314  18.640  -5.831  0.00  0.00     0.049 A 
ATOM     27  C   UNL d   1      13.534  19.978  -6.386  0.00  0.00     0.002 A 
ATOM     28  C   UNL d   1      14.311  20.035  -6.119  0.00  0.00     0.001 A 
ATOM     29  C   UNL d   1      14.702  19.365  -5.841  0.00  0.00     0.008 A 
ATOM     30  S   UNL d   1      14.556  17.886  -5.589  0.00  0.00    -0.066 SA
ENDBRANCH   1  22
TORSDOF 6
ENDMDL
