MODEL 1
REMARK VINA RESULT:      -3.1      0.000      0.000
REMARK  2 active torsions:
REMARK  status: ('A' for Active; 'I' for Inactive)
REMARK    1  A    between atoms: C_7  and  C_1 
REMARK    2  A    between atoms: C_8  and  C_7 
ROOT
ATOM      1  C   UNL d   1      29.878  16.615 -24.341  0.00  0.00     0.116 A 
ATOM      2  N   UNL d   1      28.585  17.218 -24.143  0.00  0.00    -0.152 NA
ATOM      3  N   UNL d   1      28.969  16.031 -23.411  0.00  0.00    -0.152 NA
ATOM      4  C   UNL d   1      29.309  17.218 -24.518  0.00  0.00     0.288 A 
ATOM      5  C   UNL d   1      29.706  16.030 -23.793  0.00  0.00     0.288 A 
ATOM      6  C   UNL d   1      28.400  16.634 -23.589  0.00  0.00     0.374 A 
ATOM      7  O   UNL d   1      29.490  17.799 -25.069  0.00  0.00    -0.265 OA
ATOM      8  O   UNL d   1      30.251  15.453 -23.623  0.00  0.00    -0.265 OA
ATOM      9  O   UNL d   1      27.650  16.637 -23.201  0.00  0.00    -0.242 OA
ENDROOT
BRANCH   1  10
ATOM     10  C   UNL d   1      30.611  16.611 -24.719  0.00  0.00     0.016 C 
BRANCH  10  11
ATOM     11  C   UNL d   1      31.513  17.186 -24.255  0.00  0.00     0.030 A 
ATOM     12  S   UNL d   1      31.851  17.888 -24.539  0.00  0.00    -0.080 SA
ATOM     13  C   UNL d   1      32.476  18.091 -24.033  0.00  0.00     0.064 A 
ATOM     14 BR   UNL d   1      32.963  18.763 -24.123  0.00  0.00    -0.042 Br
ATOM     15  C   UNL d   1      32.531  17.533 -23.447  0.00  0.00     0.014 A 
ATOM     16  C   UNL d   1      31.927  16.961 -23.582  0.00  0.00     0.007 A 
ENDBRANCH  10  11
ENDBRANCH   1  10
TORSDOF 2
ENDMDL
MODEL 2
REMARK VINA RESULT:      -3.1      2.542      3.476
REMARK  2 active torsions:
REMARK  status: ('A' for Active; 'I' for Inactive)
REMARK    1  A    between atoms: C_7  and  C_1 
REMARK    2  A    between atoms: C_8  and  C_7 
ROOT
ATOM      1  C   UNL d   1      31.830  16.922 -23.939  0.00  0.00     0.116 A 
ATOM      2  N   UNL d   1      32.157  18.318 -23.807  0.00  0.00    -0.152 NA
ATOM      3  N   UNL d   1      32.898  17.312 -23.079  0.00  0.00    -0.152 NA
ATOM      4  C   UNL d   1      31.694  17.735 -24.138  0.00  0.00     0.288 A 
ATOM      5  C   UNL d   1      32.426  16.717 -23.415  0.00  0.00     0.288 A 
ATOM      6  C   UNL d   1      32.761  18.125 -23.278  0.00  0.00     0.374 A 
ATOM      7  O   UNL d   1      31.094  17.930 -24.663  0.00  0.00    -0.265 OA
ATOM      8  O   UNL d   1      32.556  15.939 -23.225  0.00  0.00    -0.265 OA
ATOM      9  O   UNL d   1      33.240  18.731 -22.937  0.00  0.00    -0.242 OA
ENDROOT
BRANCH   1  10
ATOM     10  C   UNL d   1      31.363  16.329 -24.271  0.00  0.00     0.016 C 
BRANCH  10  11
ATOM     11  C   UNL d   1      30.365  16.011 -23.758  0.00  0.00     0.030 A 
ATOM     12  S   UNL d   1      29.599  16.213 -23.999  0.00  0.00    -0.080 SA
ATOM     13  C   UNL d   1      29.065  15.863 -23.468  0.00  0.00     0.064 A 
ATOM     14 BR   UNL d   1      28.234  15.930 -23.514  0.00  0.00    -0.042 Br
ATOM     15  C   UNL d   1      29.484  15.453 -22.909  0.00  0.00     0.014 A 
ATOM     16  C   UNL d   1      30.303  15.543 -23.086  0.00  0.00     0.007 A 
ENDBRANCH  10  11
ENDBRANCH   1  10
TORSDOF 2
ENDMDL
MODEL 3
REMARK VINA RESULT:      -2.5      2.946      4.048
REMARK  2 active torsions:
REMARK  status: ('A' for Active; 'I' for Inactive)
REMARK    1  A    between atoms: C_7  and  C_1 
REMARK    2  A    between atoms: C_8  and  C_7 
ROOT
ATOM      1  C   UNL d   1      32.906  18.166 -23.674  0.00  0.00     0.116 A 
ATOM      2  N   UNL d   1      33.171  18.882 -22.453  0.00  0.00    -0.152 NA
ATOM      3  N   UNL d   1      32.972  19.589 -23.699  0.00  0.00    -0.152 NA
ATOM      4  C   UNL d   1      33.063  18.173 -22.841  0.00  0.00     0.288 A 
ATOM      5  C   UNL d   1      32.861  18.868 -24.094  0.00  0.00     0.288 A 
ATOM      6  C   UNL d   1      33.129  19.597 -22.866  0.00  0.00     0.374 A 
ATOM      7  O   UNL d   1      33.105  17.465 -22.428  0.00  0.00    -0.265 OA
ATOM      8  O   UNL d   1      32.711  18.861 -24.892  0.00  0.00    -0.265 OA
ATOM      9  O   UNL d   1      33.241  20.329 -22.462  0.00  0.00    -0.242 OA
ENDROOT
BRANCH   1  10
ATOM     10  C   UNL d   1      32.796  17.450 -24.069  0.00  0.00     0.016 C 
BRANCH  10  11
ATOM     11  C   UNL d   1      31.739  16.959 -24.110  0.00  0.00     0.030 A 
ATOM     12  S   UNL d   1      31.495  16.278 -23.707  0.00  0.00    -0.080 SA
ATOM     13  C   UNL d   1      30.700  16.138 -23.904  0.00  0.00     0.064 A 
ATOM     14 BR   UNL d   1      30.243  15.503 -23.615  0.00  0.00    -0.042 Br
ATOM     15  C   UNL d   1      30.453  16.714 -24.417  0.00  0.00     0.014 A 
ATOM     16  C   UNL d   1      31.102  17.234 -24.551  0.00  0.00     0.007 A 
ENDBRANCH  10  11
ENDBRANCH   1  10
TORSDOF 2
ENDMDL
MODEL 4
REMARK VINA RESULT:      -2.4      2.367      3.361
REMARK  2 active torsions:
REMARK  status: ('A' for Active; 'I' for Inactive)
REMARK    1  A    between atoms: C_7  and  C_1 
REMARK    2  A    between atoms: C_8  and  C_7 
ROOT
ATOM      1  C   UNL d   1      32.531  18.134 -23.915  0.00  0.00     0.116 A 
ATOM      2  N   UNL d   1      31.576  17.087 -23.660  0.00  0.00    -0.152 NA
ATOM      3  N   UNL d   1      31.366  18.038 -24.729  0.00  0.00    -0.152 NA
ATOM      4  C   UNL d   1      32.276  17.459 -23.470  0.00  0.00     0.288 A 
ATOM      5  C   UNL d   1      32.078  18.417 -24.536  0.00  0.00     0.288 A 
ATOM      6  C   UNL d   1      31.111  17.362 -24.284  0.00  0.00     0.374 A 
ATOM      7  O   UNL d   1      32.737  17.183 -22.849  0.00  0.00    -0.265 OA
ATOM      8  O   UNL d   1      32.323  19.064 -24.962  0.00  0.00    -0.265 OA
ATOM      9  O   UNL d   1      30.386  16.975 -24.479  0.00  0.00    -0.242 OA
ENDROOT
BRANCH   1  10
ATOM     10  C   UNL d   1      33.239  18.513 -23.725  0.00  0.00     0.016 C 
BRANCH  10  11
ATOM     11  C   UNL d   1      33.240  19.427 -23.001  0.00  0.00     0.030 A 
ATOM     12  S   UNL d   1      33.239  19.401 -22.173  0.00  0.00    -0.080 SA
ATOM     13  C   UNL d   1      33.240  20.183 -21.895  0.00  0.00     0.064 A 
ATOM     14 BR   UNL d   1      33.239  20.402 -21.090  0.00  0.00    -0.042 Br
ATOM     15  C   UNL d   1      33.241  20.686 -22.530  0.00  0.00     0.014 A 
ATOM     16  C   UNL d   1      33.241  20.216 -23.229  0.00  0.00     0.007 A 
ENDBRANCH  10  11
ENDBRANCH   1  10
TORSDOF 2
ENDMDL
MODEL 5
REMARK VINA RESULT:      -2.2      1.427      1.503
REMARK  2 active torsions:
REMARK  status: ('A' for Active; 'I' for Inactive)
REMARK    1  A    between atoms: C_7  and  C_1 
REMARK    2  A    between atoms: C_8  and  C_7 
ROOT
ATOM      1  C   UNL d   1      29.354  16.509 -24.322  0.00  0.00     0.116 A 
ATOM      2  N   UNL d   1      28.843  17.851 -24.212  0.00  0.00    -0.152 NA
ATOM      3  N   UNL d   1      28.272  16.774 -23.433  0.00  0.00    -0.152 NA
ATOM      4  C   UNL d   1      29.371  17.327 -24.545  0.00  0.00     0.288 A 
ATOM      5  C   UNL d   1      28.809  16.240 -23.772  0.00  0.00     0.288 A 
ATOM      6  C   UNL d   1      28.289  17.592 -23.657  0.00  0.00     0.374 A 
ATOM      7  O   UNL d   1      29.921  17.587 -25.097  0.00  0.00    -0.265 OA
ATOM      8  O   UNL d   1      28.793  15.457 -23.559  0.00  0.00    -0.265 OA
ATOM      9  O   UNL d   1      27.743  18.137 -23.313  0.00  0.00    -0.242 OA
ENDROOT
BRANCH   1  10
ATOM     10  C   UNL d   1      29.887  15.976 -24.657  0.00  0.00     0.016 C 
BRANCH  10  11
ATOM     11  C   UNL d   1      30.934  15.810 -24.172  0.00  0.00     0.030 A 
ATOM     12  S   UNL d   1      31.667  16.021 -24.494  0.00  0.00    -0.080 SA
ATOM     13  C   UNL d   1      32.256  15.795 -23.954  0.00  0.00     0.064 A 
ATOM     14 BR   UNL d   1      33.075  15.908 -24.067  0.00  0.00    -0.042 Br
ATOM     15  C   UNL d   1      31.903  15.453 -23.310  0.00  0.00     0.014 A 
ATOM     16  C   UNL d   1      31.070  15.459 -23.441  0.00  0.00     0.007 A 
ENDBRANCH  10  11
ENDBRANCH   1  10
TORSDOF 2
ENDMDL
MODEL 6
REMARK VINA RESULT:      -1.7      3.422      4.432
REMARK  2 active torsions:
REMARK  status: ('A' for Active; 'I' for Inactive)
REMARK    1  A    between atoms: C_7  and  C_1 
REMARK    2  A    between atoms: C_8  and  C_7 
ROOT
ATOM      1  C   UNL d   1      33.143  19.542 -23.084  0.00  0.00     0.116 A 
ATOM      2  N   UNL d   1      33.046  20.978 -23.032  0.00  0.00    -0.152 NA
ATOM      3  N   UNL d   1      32.947  20.185 -21.827  0.00  0.00    -0.152 NA
ATOM      4  C   UNL d   1      33.143  20.297 -23.470  0.00  0.00     0.288 A 
ATOM      5  C   UNL d   1      33.046  19.491 -22.272  0.00  0.00     0.288 A 
ATOM      6  C   UNL d   1      32.947  20.940 -22.213  0.00  0.00     0.374 A 
ATOM      7  O   UNL d   1      33.241  20.338 -24.284  0.00  0.00    -0.265 OA
ATOM      8  O   UNL d   1      33.046  18.768 -21.902  0.00  0.00    -0.265 OA
ATOM      9  O   UNL d   1      32.847  21.647 -21.762  0.00  0.00    -0.242 OA
ENDROOT
BRANCH   1  10
ATOM     10  C   UNL d   1      33.241  18.851 -23.523  0.00  0.00     0.016 C 
BRANCH  10  11
ATOM     11  C   UNL d   1      32.313  18.302 -23.967  0.00  0.00     0.030 A 
ATOM     12  S   UNL d   1      31.938  17.633 -23.654  0.00  0.00    -0.080 SA
ATOM     13  C   UNL d   1      31.306  17.438 -24.155  0.00  0.00     0.064 A 
ATOM     14 BR   UNL d   1      30.785  16.797 -24.038  0.00  0.00    -0.042 Br
ATOM     15  C   UNL d   1      31.283  17.970 -24.766  0.00  0.00     0.014 A 
ATOM     16  C   UNL d   1      31.915  18.516 -24.653  0.00  0.00     0.007 A 
ENDBRANCH  10  11
ENDBRANCH   1  10
TORSDOF 2
ENDMDL
MODEL 7
REMARK VINA RESULT:      -1.3      4.622      5.518
REMARK  2 active torsions:
REMARK  status: ('A' for Active; 'I' for Inactive)
REMARK    1  A    between atoms: C_7  and  C_1 
REMARK    2  A    between atoms: C_8  and  C_7 
ROOT
ATOM      1  C   UNL d   1      32.731  21.488 -21.629  0.00  0.00     0.116 A 
ATOM      2  N   UNL d   1      32.227  22.790 -21.977  0.00  0.00    -0.152 NA
ATOM      3  N   UNL d   1      31.713  22.080 -20.827  0.00  0.00    -0.152 NA
ATOM      4  C   UNL d   1      32.731  22.170 -22.133  0.00  0.00     0.288 A 
ATOM      5  C   UNL d   1      32.227  21.447 -20.985  0.00  0.00     0.288 A 
ATOM      6  C   UNL d   1      31.713  22.762 -21.331  0.00  0.00     0.374 A 
ATOM      7  O   UNL d   1      33.241  22.201 -22.776  0.00  0.00    -0.265 OA
ATOM      8  O   UNL d   1      32.227  20.794 -20.503  0.00  0.00    -0.265 OA
ATOM      9  O   UNL d   1      31.191  23.406 -21.173  0.00  0.00    -0.242 OA
ENDROOT
BRANCH   1  10
ATOM     10  C   UNL d   1      33.241  20.858 -21.783  0.00  0.00     0.016 C 
BRANCH  10  11
ATOM     11  C   UNL d   1      32.933  20.026 -22.540  0.00  0.00     0.030 A 
ATOM     12  S   UNL d   1      33.107  20.007 -23.350  0.00  0.00    -0.080 SA
ATOM     13  C   UNL d   1      32.777  19.312 -23.664  0.00  0.00     0.064 A 
ATOM     14 BR   UNL d   1      32.826  19.080 -24.464  0.00  0.00    -0.042 Br
ATOM     15  C   UNL d   1      32.406  18.907 -23.068  0.00  0.00     0.014 A 
ATOM     16  C   UNL d   1      32.501  19.351 -22.358  0.00  0.00     0.007 A 
ENDBRANCH  10  11
ENDBRANCH   1  10
TORSDOF 2
ENDMDL
