MODEL 1
REMARK VINA RESULT:      -1.8      0.000      0.000
REMARK  7 active torsions:
REMARK  status: ('A' for Active; 'I' for Inactive)
REMARK    1  A    between atoms: C_5  and  N_1 
REMARK    2  A    between atoms: C_3  and  N_2 
REMARK    3  A    between atoms: N_4  and  C_11 
REMARK    4  A    between atoms: C_11  and  C_17 
REMARK    5  A    between atoms: O_16  and  C_18 
REMARK    6  A    between atoms: C_20  and  O_16 
REMARK    7  A    between atoms: C_17  and  C_20 
ROOT
ATOM      1  C   UNL d   1      57.678   0.332  30.972  0.00  0.00     0.125 C 
ENDROOT
BRANCH   1   2
ATOM      2  N   UNL d   1      57.944  -0.304  30.576  0.00  0.00    -0.297 N 
ATOM      3  C   UNL d   1      57.841  -1.068  30.852  0.00  0.00     0.100 A 
ATOM      4  C   UNL d   1      58.109  -1.711  30.453  0.00  0.00     0.100 A 
ATOM      5  N   UNL d   1      58.514  -1.607  29.722  0.00  0.00    -0.299 N 
ATOM      6  C   UNL d   1      58.624  -0.848  29.434  0.00  0.00     0.100 A 
ATOM      7  C   UNL d   1      58.352  -0.195  29.839  0.00  0.00     0.100 A 
BRANCH   5   8
ATOM      8  C   UNL d   1      58.789  -2.267  29.312  0.00  0.00     0.092 A 
ATOM      9  C   UNL d   1      59.606  -2.346  29.182  0.00  0.00     0.156 A 
ATOM     10  F   UNL d   1      60.140  -1.777  29.457  0.00  0.00    -0.203 F 
ATOM     11  C   UNL d   1      59.881  -3.004  28.774  0.00  0.00     0.031 A 
ATOM     12  C   UNL d   1      59.371  -3.573  28.497  0.00  0.00     0.002 A 
ATOM     13  C   UNL d   1      58.545  -3.496  28.626  0.00  0.00     0.002 A 
ATOM     14  C   UNL d   1      58.269  -2.835  29.036  0.00  0.00     0.020 A 
ENDBRANCH   5   8
ENDBRANCH   1   2
BRANCH   1  15
ATOM     15  C   UNL d   1      56.881   0.367  31.215  0.00  0.00     0.238 C 
ATOM     16  O   UNL d   1      56.221   0.271  30.554  0.00  0.00    -0.283 OA
BRANCH  15  17
ATOM     17  C   UNL d   1      56.702   0.479  32.003  0.00  0.00     0.166 C 
BRANCH  17  18
ATOM     18  O   UNL d   1      56.034   0.098  32.330  0.00  0.00    -0.302 OA
BRANCH  18  19
ATOM     19  C   UNL d   1      55.838   0.225  33.113  0.00  0.00     0.100 A 
ATOM     20  C   UNL d   1      55.071   0.438  33.331  0.00  0.00     0.026 A 
ATOM     21  C   UNL d   1      54.867   0.569  34.124  0.00  0.00     0.026 A 
ATOM     22  C   UNL d   1      55.457   0.482  34.723  0.00  0.00     0.127 A 
ATOM     23  C   UNL d   1      56.224   0.269  34.505  0.00  0.00     0.026 A 
ATOM     24  C   UNL d   1      56.419   0.139  33.697  0.00  0.00     0.026 A 
BRANCH  22  25
ATOM     25  N   UNL d   1      55.278   0.607  35.519  0.00  0.00    -0.114 N 
ATOM     26  O   UNL d   1      54.514   0.675  35.827  0.00  0.00    -0.532 OA
ATOM     27  O   UNL d   1      55.840   0.679  36.113  0.00  0.00    -0.532 OA
ENDBRANCH  22  25
ENDBRANCH  18  19
ENDBRANCH  17  18
ENDBRANCH  15  17
ENDBRANCH   1  15
TORSDOF 7
ENDMDL
