MODEL 1
REMARK VINA RESULT:      -4.9      0.000      0.000
REMARK  3 active torsions:
REMARK  status: ('A' for Active; 'I' for Inactive)
REMARK    1  A    between atoms: S_11  and  C_2 
REMARK    2  A    between atoms: C_7  and  C_12 
REMARK    3  A    between atoms: C_12  and  S_11 
ROOT
ATOM      1  S   UNL d   1     -41.123-123.046 -52.153  0.00  0.00    -0.058 SA
ENDROOT
BRANCH   1   2
ATOM      2  C   UNL d   1     -41.154-123.011 -51.324  0.00  0.00     0.164 A 
ATOM      3  S   UNL d   1     -41.123-123.654 -50.805  0.00  0.00    -0.039 SA
ATOM      4  C   UNL d   1     -41.172-123.364 -50.034  0.00  0.00     0.134 A 
ATOM      5  N   UNL d   1     -41.233-122.538 -50.072  0.00  0.00    -0.140 NA
ATOM      6  C   UNL d   1     -41.162-123.815 -49.334  0.00  0.00     0.030 C 
ATOM      7  N   UNL d   1     -41.222-122.313 -50.875  0.00  0.00    -0.134 NA
ENDBRANCH   1   2
BRANCH   1   8
ATOM      8  C   UNL d   1     -41.377-122.404 -52.602  0.00  0.00     0.057 C 
BRANCH   8   9
ATOM      9  C   UNL d   1     -41.500-122.485 -53.418  0.00  0.00     0.095 A 
ATOM     10  N   UNL d   1     -41.913-121.979 -53.896  0.00  0.00    -0.238 NA
ATOM     11  C   UNL d   1     -41.895-122.270 -54.656  0.00  0.00     0.111 A 
ATOM     12  C   UNL d   1     -42.239-121.943 -55.329  0.00  0.00     0.028 C 
ATOM     13  S   UNL d   1     -41.467-122.961 -54.645  0.00  0.00    -0.066 SA
ATOM     14  C   UNL d   1     -41.225-123.094 -53.887  0.00  0.00     0.057 A 
ENDBRANCH   8   9
ENDBRANCH   1   8
TORSDOF 3
ENDMDL
MODEL 2
REMARK VINA RESULT:      -4.9      0.697      3.958
REMARK  3 active torsions:
REMARK  status: ('A' for Active; 'I' for Inactive)
REMARK    1  A    between atoms: S_11  and  C_2 
REMARK    2  A    between atoms: C_7  and  C_12 
REMARK    3  A    between atoms: C_12  and  S_11 
ROOT
ATOM      1  S   UNL d   1     -41.554-122.762 -53.259  0.00  0.00    -0.058 SA
ENDROOT
BRANCH   1   2
ATOM      2  C   UNL d   1     -41.919-122.380 -53.900  0.00  0.00     0.164 A 
ATOM      3  S   UNL d   1     -41.736-122.482 -54.700  0.00  0.00    -0.039 SA
ATOM      4  C   UNL d   1     -42.234-121.995 -55.141  0.00  0.00     0.134 A 
ATOM      5  N   UNL d   1     -42.730-121.587 -54.615  0.00  0.00    -0.140 NA
ATOM      6  C   UNL d   1     -42.245-121.919 -55.970  0.00  0.00     0.030 C 
ATOM      7  N   UNL d   1     -42.536-121.825 -53.840  0.00  0.00    -0.134 NA
ENDBRANCH   1   2
BRANCH   1   8
ATOM      8  C   UNL d   1     -41.510-122.386 -52.527  0.00  0.00     0.057 C 
BRANCH   8   9
ATOM      9  C   UNL d   1     -41.414-122.830 -51.833  0.00  0.00     0.095 A 
ATOM     10  N   UNL d   1     -41.588-122.590 -51.080  0.00  0.00    -0.238 NA
ATOM     11  C   UNL d   1     -41.409-123.198 -50.569  0.00  0.00     0.111 A 
ATOM     12  C   UNL d   1     -41.494-123.208 -49.749  0.00  0.00     0.028 C 
ATOM     13  S   UNL d   1     -41.124-123.817 -51.011  0.00  0.00    -0.066 SA
ATOM     14  C   UNL d   1     -41.126-123.592 -51.787  0.00  0.00     0.057 A 
ENDBRANCH   8   9
ENDBRANCH   1   8
TORSDOF 3
ENDMDL
MODEL 3
REMARK VINA RESULT:      -4.9      1.024      3.863
REMARK  3 active torsions:
REMARK  status: ('A' for Active; 'I' for Inactive)
REMARK    1  A    between atoms: S_11  and  C_2 
REMARK    2  A    between atoms: C_7  and  C_12 
REMARK    3  A    between atoms: C_12  and  S_11 
ROOT
ATOM      1  S   UNL d   1     -41.132-122.850 -52.054  0.00  0.00    -0.058 SA
ENDROOT
BRANCH   1   2
ATOM      2  C   UNL d   1     -41.189-122.678 -52.865  0.00  0.00     0.164 A 
ATOM      3  S   UNL d   1     -41.318-123.224 -53.473  0.00  0.00    -0.039 SA
ATOM      4  C   UNL d   1     -41.335-122.811 -54.187  0.00  0.00     0.134 A 
ATOM      5  N   UNL d   1     -41.216-122.006 -54.024  0.00  0.00    -0.140 NA
ATOM      6  C   UNL d   1     -41.450-123.137 -54.944  0.00  0.00     0.030 C 
ATOM      7  N   UNL d   1     -41.124-121.919 -53.200  0.00  0.00    -0.134 NA
ENDBRANCH   1   2
BRANCH   1   8
ATOM      8  C   UNL d   1     -41.499-122.359 -51.502  0.00  0.00     0.057 C 
BRANCH   8   9
ATOM      9  C   UNL d   1     -41.665-122.636 -50.740  0.00  0.00     0.095 A 
ATOM     10  N   UNL d   1     -42.392-122.661 -50.383  0.00  0.00    -0.238 NA
ATOM     11  C   UNL d   1     -42.302-122.974 -49.637  0.00  0.00     0.111 A 
ATOM     12  C   UNL d   1     -42.888-123.104 -49.072  0.00  0.00     0.028 C 
ATOM     13  S   UNL d   1     -41.514-123.143 -49.533  0.00  0.00    -0.066 SA
ATOM     14  C   UNL d   1     -41.123-122.936 -50.208  0.00  0.00     0.057 A 
ENDBRANCH   8   9
ENDBRANCH   1   8
TORSDOF 3
ENDMDL
MODEL 4
REMARK VINA RESULT:      -4.2      1.306      1.742
REMARK  3 active torsions:
REMARK  status: ('A' for Active; 'I' for Inactive)
REMARK    1  A    between atoms: S_11  and  C_2 
REMARK    2  A    between atoms: C_7  and  C_12 
REMARK    3  A    between atoms: C_12  and  S_11 
ROOT
ATOM      1  S   UNL d   1     -41.751-122.811 -50.780  0.00  0.00    -0.058 SA
ENDROOT
BRANCH   1   2
ATOM      2  C   UNL d   1     -41.782-123.002 -49.972  0.00  0.00     0.164 A 
ATOM      3  S   UNL d   1     -42.465-123.159 -49.532  0.00  0.00    -0.039 SA
ATOM      4  C   UNL d   1     -42.238-123.321 -48.756  0.00  0.00     0.134 A 
ATOM      5  N   UNL d   1     -41.411-123.264 -48.711  0.00  0.00    -0.140 NA
ATOM      6  C   UNL d   1     -42.742-123.510 -48.121  0.00  0.00     0.030 C 
ATOM      7  N   UNL d   1     -41.123-123.065 -49.467  0.00  0.00    -0.134 NA
ENDBRANCH   1   2
BRANCH   1   8
ATOM      8  C   UNL d   1     -41.187-123.168 -51.265  0.00  0.00     0.057 C 
BRANCH   8   9
ATOM      9  C   UNL d   1     -41.221-123.071 -52.087  0.00  0.00     0.095 A 
ATOM     10  N   UNL d   1     -41.279-123.659 -52.641  0.00  0.00    -0.238 NA
ATOM     11  C   UNL d   1     -41.295-123.316 -53.379  0.00  0.00     0.111 A 
ATOM     12  C   UNL d   1     -41.350-123.696 -54.108  0.00  0.00     0.028 C 
ATOM     13  S   UNL d   1     -41.246-122.512 -53.280  0.00  0.00    -0.066 SA
ATOM     14  C   UNL d   1     -41.201-122.360 -52.488  0.00  0.00     0.057 A 
ENDBRANCH   8   9
ENDBRANCH   1   8
TORSDOF 3
ENDMDL
MODEL 5
REMARK VINA RESULT:      -3.0      1.426      4.450
REMARK  3 active torsions:
REMARK  status: ('A' for Active; 'I' for Inactive)
REMARK    1  A    between atoms: S_11  and  C_2 
REMARK    2  A    between atoms: C_7  and  C_12 
REMARK    3  A    between atoms: C_12  and  S_11 
ROOT
ATOM      1  S   UNL d   1     -41.761-122.969 -50.533  0.00  0.00    -0.058 SA
ENDROOT
BRANCH   1   2
ATOM      2  C   UNL d   1     -41.537-122.646 -51.265  0.00  0.00     0.164 A 
ATOM      3  S   UNL d   1     -41.490-123.051 -51.984  0.00  0.00    -0.039 SA
ATOM      4  C   UNL d   1     -41.245-122.516 -52.563  0.00  0.00     0.134 A 
ATOM      5  N   UNL d   1     -41.139-121.776 -52.203  0.00  0.00    -0.140 NA
ATOM      6  C   UNL d   1     -41.123-122.681 -53.370  0.00  0.00     0.030 C 
ATOM      7  N   UNL d   1     -41.320-121.853 -51.393  0.00  0.00    -0.134 NA
ENDBRANCH   1   2
BRANCH   1   8
ATOM      8  C   UNL d   1     -41.692-122.519 -49.846  0.00  0.00     0.057 C 
BRANCH   8   9
ATOM      9  C   UNL d   1     -41.762-122.877 -49.102  0.00  0.00     0.095 A 
ATOM     10  N   UNL d   1     -42.112-122.560 -48.444  0.00  0.00    -0.238 NA
ATOM     11  C   UNL d   1     -42.056-123.099 -47.838  0.00  0.00     0.111 A 
ATOM     12  C   UNL d   1     -42.335-123.018 -47.066  0.00  0.00     0.028 C 
ATOM     13  S   UNL d   1     -41.669-123.753 -48.122  0.00  0.00    -0.066 SA
ATOM     14  C   UNL d   1     -41.487-123.618 -48.898  0.00  0.00     0.057 A 
ENDBRANCH   8   9
ENDBRANCH   1   8
TORSDOF 3
ENDMDL
