MODEL 1
REMARK VINA RESULT:      48.7      0.000      0.000
REMARK  4 active torsions:
REMARK  status: ('A' for Active; 'I' for Inactive)
REMARK    1  A    between atoms: S_3  and  N_1 
REMARK    2  A    between atoms: C_7  and  C_4 
REMARK    3  A    between atoms: C_12  and  C_5 
REMARK    4  A    between atoms: O_24  and  C_21 
ROOT
ATOM      1  N   UNL d   1      14.897  13.369  -1.021  0.00  0.00    -0.155 N 
ATOM      2  N   UNL d   1      15.203  14.011  -0.627  0.00  0.00    -0.156 NA
ATOM      3  C   UNL d   1      14.514  13.636  -1.687  0.00  0.00     0.096 A 
ATOM      4  C   UNL d   1      15.009  14.680  -1.050  0.00  0.00     0.103 A 
ATOM      5  C   UNL d   1      14.582  14.457  -1.708  0.00  0.00     0.041 A 
ENDROOT
BRANCH   3   6
ATOM      6  C   UNL d   1      14.124  13.171  -2.246  0.00  0.00     0.020 A 
ATOM      7  C   UNL d   1      13.914  13.493  -2.976  0.00  0.00     0.022 A 
ATOM      8  C   UNL d   1      13.524  13.027  -3.534  0.00  0.00     0.099 A 
ATOM      9  N   UNL d   1      13.314  13.349  -4.265  0.00  0.00    -0.241 NA
ATOM     10  C   UNL d   1      13.345  12.245  -3.363  0.00  0.00     0.099 A 
ATOM     11  C   UNL d   1      12.947  12.889  -4.772  0.00  0.00     0.120 A 
ATOM     12  C   UNL d   1      12.769  12.107  -4.602  0.00  0.00     0.120 A 
ATOM     13  N   UNL d   1      12.955  11.780  -3.923  0.00  0.00    -0.241 NA
ATOM     14  C   UNL d   1      13.555  11.924  -2.634  0.00  0.00     0.021 A 
ATOM     15  C   UNL d   1      13.945  12.389  -2.075  0.00  0.00     0.003 A 
ENDBRANCH   3   6
BRANCH   1  16
ATOM     16  S   UNL d   1      14.957  12.587  -0.796  0.00  0.00     0.266 S 
ATOM     17  O   UNL d   1      15.225  12.385  -1.568  0.00  0.00    -0.203 OA
ATOM     18  O   UNL d   1      15.020  11.780  -0.564  0.00  0.00    -0.203 OA
ATOM     19  C   UNL d   1      14.699  12.778  -0.049  0.00  0.00     0.165 C 
ENDBRANCH   1  16
BRANCH   4  20
ATOM     20  C   UNL d   1      15.205  15.444  -0.855  0.00  0.00     0.020 A 
ATOM     21  C   UNL d   1      15.683  15.608  -0.223  0.00  0.00     0.004 A 
ATOM     22  C   UNL d   1      15.890  16.393  -0.016  0.00  0.00     0.024 A 
ATOM     23  C   UNL d   1      15.594  17.018  -0.474  0.00  0.00     0.094 A 
ATOM     24  C   UNL d   1      15.103  16.836  -1.122  0.00  0.00     0.024 A 
ATOM     25  C   UNL d   1      14.911  16.072  -1.311  0.00  0.00     0.004 A 
BRANCH  23  26
ATOM     26  O   UNL d   1      15.776  17.760  -0.295  0.00  0.00    -0.328 OA
ATOM     27  C   UNL d   1      16.322  18.180  -0.756  0.00  0.00     0.181 C 
ENDBRANCH  23  26
ENDBRANCH   4  20
TORSDOF 4
ENDMDL
