MODEL 1
REMARK VINA RESULT:      58.6      0.000      0.000
REMARK  5 active torsions:
REMARK  status: ('A' for Active; 'I' for Inactive)
REMARK    1  A    between atoms: N_3  and  S_1 
REMARK    2  A    between atoms: C_11  and  S_1 
REMARK    3  A    between atoms: C_9  and  C_2 
REMARK    4  A    between atoms: C_4  and  N_7 
REMARK       I    between atoms: N_7  and  C_10 
REMARK    5  A    between atoms: C_10  and  C_14 
ROOT
ATOM      1  C   UNL d   1      15.097  14.711  -0.889  0.00  0.00     0.104 A 
ATOM      2  C   UNL d   1      15.030  13.063  -0.716  0.00  0.00     0.058 A 
ATOM      3  C   UNL d   1      15.642  14.236  -1.260  0.00  0.00     0.013 A 
ATOM      4  C   UNL d   1      14.509  14.352  -0.425  0.00  0.00     0.013 A 
ATOM      5  C   UNL d   1      15.616  13.416  -1.179  0.00  0.00     0.005 A 
ATOM      6  C   UNL d   1      14.482  13.532  -0.343  0.00  0.00     0.005 A 
ENDROOT
BRANCH   2   7
ATOM      7  C   UNL d   1      14.997  12.224  -0.629  0.00  0.00     0.282 C 
ATOM      8  N   UNL d   1      14.454  11.779  -1.066  0.00  0.00    -0.165 NA
ATOM      9  O   UNL d   1      15.503  11.863  -0.113  0.00  0.00    -0.265 OA
BRANCH   8  10
ATOM     10  C   UNL d   1      13.950  12.148  -1.581  0.00  0.00     0.297 A 
ATOM     11  O   UNL d   1      14.035  12.031  -2.402  0.00  0.00    -0.253 OA
ATOM     12  C   UNL d   1      13.450  12.473  -2.769  0.00  0.00     0.207 A 
ATOM     13  N   UNL d   1      13.016  12.852  -2.193  0.00  0.00    -0.119 NA
ATOM     14  N   UNL d   1      13.322  12.654  -1.455  0.00  0.00    -0.101 NA
BRANCH  12  15
ATOM     15  C   UNL d   1      13.376  12.481  -3.595  0.00  0.00     0.054 A 
ATOM     16  C   UNL d   1      13.288  13.203  -3.979  0.00  0.00     0.061 A 
ATOM     17 CL   UNL d   1      13.274  13.906  -3.546  0.00  0.00    -0.082 Cl
ATOM     18  C   UNL d   1      13.214  13.214  -4.802  0.00  0.00     0.011 A 
ATOM     19  C   UNL d   1      13.227  12.515  -5.243  0.00  0.00     0.001 A 
ATOM     20  C   UNL d   1      13.315  11.800  -4.863  0.00  0.00     0.000 A 
ATOM     21  C   UNL d   1      13.389  11.780  -4.039  0.00  0.00     0.004 A 
ENDBRANCH  12  15
ENDBRANCH   8  10
ENDBRANCH   2   7
BRANCH   1  22
ATOM     22  S   UNL d   1      15.134  15.539  -0.979  0.00  0.00     0.271 S 
ATOM     23  O   UNL d   1      14.406  15.541  -1.374  0.00  0.00    -0.200 OA
ATOM     24  O   UNL d   1      15.860  15.537  -0.585  0.00  0.00    -0.200 OA
BRANCH  22  25
ATOM     25  N   UNL d   1      15.192  16.354  -1.056  0.00  0.00    -0.231 N 
ATOM     26  C   UNL d   1      15.762  16.759  -0.610  0.00  0.00     0.075 A 
ATOM     27  C   UNL d   1      16.260  16.348  -0.100  0.00  0.00     0.020 C 
ATOM     28  C   UNL d   1      15.829  17.579  -0.679  0.00  0.00     0.018 A 
ATOM     29  C   UNL d   1      15.331  17.989  -1.189  0.00  0.00     0.003 A 
ATOM     30  C   UNL d   1      14.767  17.581  -1.629  0.00  0.00     0.020 A 
ATOM     31  C   UNL d   1      14.700  16.761  -1.560  0.00  0.00     0.092 A 
ENDBRANCH  22  25
ENDBRANCH   1  22
TORSDOF 5
ENDMDL
