MODEL 1
REMARK VINA RESULT:      20.1      0.000      0.000
REMARK  3 active torsions:
REMARK  status: ('A' for Active; 'I' for Inactive)
REMARK    1  A    between atoms: S_15  and  C_3 
REMARK    2  A    between atoms: C_5  and  C_14 
REMARK    3  A    between atoms: C_14  and  S_15 
ROOT
ATOM      1  N   UNL d   1      46.281 -18.217  43.616  0.00  0.00    -0.263 N 
ATOM      2  C   UNL d   1      46.492 -18.931  43.997  0.00  0.00     0.202 A 
ATOM      3  C   UNL d   1      46.174 -17.657  44.214  0.00  0.00     0.202 A 
ATOM      4  N   UNL d   1      46.501 -18.761  44.817  0.00  0.00    -0.121 NA
ATOM      5  S   UNL d   1      46.610 -19.527  43.422  0.00  0.00    -0.047 SA
ATOM      6  N   UNL d   1      46.316 -18.020  44.955  0.00  0.00    -0.121 NA
ATOM      7  C   UNL d   1      46.272 -18.381  42.812  0.00  0.00     0.074 A 
ATOM      8  C   UNL d   1      46.472 -19.180  42.694  0.00  0.00     0.049 A 
ATOM      9  C   UNL d   1      46.105 -17.904  42.159  0.00  0.00     0.018 A 
ATOM     10  C   UNL d   1      46.501 -19.482  41.926  0.00  0.00     0.008 A 
ATOM     11  C   UNL d   1      46.133 -18.205  41.384  0.00  0.00     0.002 A 
ATOM     12  C   UNL d   1      46.334 -19.004  41.266  0.00  0.00     0.001 A 
ENDROOT
BRANCH   3  13
ATOM     13  S   UNL d   1      45.946 -16.809  44.104  0.00  0.00    -0.048 SA
BRANCH  13  14
ATOM     14  C   UNL d   1      45.655 -16.380  44.735  0.00  0.00     0.042 C 
BRANCH  14  15
ATOM     15  C   UNL d   1      45.407 -15.615  44.608  0.00  0.00     0.051 A 
ATOM     16  C   UNL d   1      45.792 -14.924  44.372  0.00  0.00     0.127 A 
ATOM     17  O   UNL d   1      45.257 -14.318  44.338  0.00  0.00    -0.211 OA
ATOM     18  C   UNL d   1      46.645 -14.862  44.187  0.00  0.00     0.029 C 
ATOM     19  N   UNL d   1      44.557 -14.602  44.544  0.00  0.00    -0.126 NA
ATOM     20  C   UNL d   1      44.621 -15.409  44.717  0.00  0.00     0.111 A 
ATOM     21  C   UNL d   1      44.022 -15.921  44.955  0.00  0.00     0.023 C 
ENDBRANCH  14  15
ENDBRANCH  13  14
ENDBRANCH   3  13
TORSDOF 3
ENDMDL
MODEL 2
REMARK VINA RESULT:      23.1      0.971      2.000
REMARK  3 active torsions:
REMARK  status: ('A' for Active; 'I' for Inactive)
REMARK    1  A    between atoms: S_15  and  C_3 
REMARK    2  A    between atoms: C_5  and  C_14 
REMARK    3  A    between atoms: C_14  and  S_15 
ROOT
ATOM      1  N   UNL d   1      46.208 -18.242  43.188  0.00  0.00    -0.263 N 
ATOM      2  C   UNL d   1      46.216 -18.562  42.416  0.00  0.00     0.202 A 
ATOM      3  C   UNL d   1      46.063 -17.433  43.103  0.00  0.00     0.202 A 
ATOM      4  N   UNL d   1      46.073 -17.919  41.898  0.00  0.00    -0.121 NA
ATOM      5  S   UNL d   1      46.360 -19.385  42.458  0.00  0.00    -0.047 SA
ATOM      6  N   UNL d   1      45.983 -17.255  42.290  0.00  0.00    -0.121 NA
ATOM      7  C   UNL d   1      46.347 -18.871  43.697  0.00  0.00     0.074 A 
ATOM      8  C   UNL d   1      46.440 -19.568  43.252  0.00  0.00     0.049 A 
ATOM      9  C   UNL d   1      46.403 -18.904  44.520  0.00  0.00     0.018 A 
ATOM     10  C   UNL d   1      46.586 -20.281  43.641  0.00  0.00     0.008 A 
ATOM     11  C   UNL d   1      46.551 -19.622  44.915  0.00  0.00     0.002 A 
ATOM     12  C   UNL d   1      46.644 -20.318  44.470  0.00  0.00     0.001 A 
ENDROOT
BRANCH   3  13
ATOM     13  S   UNL d   1      46.001 -16.840  43.757  0.00  0.00    -0.048 SA
BRANCH  13  14
ATOM     14  C   UNL d   1      45.996 -16.042  43.584  0.00  0.00     0.042 C 
BRANCH  14  15
ATOM     15  C   UNL d   1      45.569 -15.540  44.063  0.00  0.00     0.051 A 
ATOM     16  C   UNL d   1      44.970 -15.657  44.619  0.00  0.00     0.127 A 
ATOM     17  O   UNL d   1      44.750 -14.943  44.930  0.00  0.00    -0.211 OA
ATOM     18  C   UNL d   1      44.630 -16.434  44.836  0.00  0.00     0.029 C 
ATOM     19  N   UNL d   1      45.186 -14.387  44.590  0.00  0.00    -0.126 NA
ATOM     20  C   UNL d   1      45.705 -14.732  44.046  0.00  0.00     0.111 A 
ATOM     21  C   UNL d   1      46.259 -14.352  43.570  0.00  0.00     0.023 C 
ENDBRANCH  14  15
ENDBRANCH  13  14
ENDBRANCH   3  13
TORSDOF 3
ENDMDL
