MODEL 1
REMARK VINA RESULT:      92.7      0.000      0.000
REMARK  5 active torsions:
REMARK  status: ('A' for Active; 'I' for Inactive)
REMARK    1  A    between atoms: C_2  and  C_1 
REMARK    2  A    between atoms: O_16  and  C_13 
REMARK    3  A    between atoms: C_21  and  O_16 
REMARK    4  A    between atoms: O_22  and  C_17 
REMARK    5  A    between atoms: C_20  and  C_21 
ROOT
ATOM      1  C   UNL d   1     -56.691 -99.158 -45.590  0.00  0.00     0.030 A 
ATOM      2  C   UNL d   1     -57.504 -99.058 -45.498  0.00  0.00     0.027 A 
ATOM      3  C   UNL d   1     -57.969 -98.857 -46.152  0.00  0.00     0.103 A 
ATOM      4  O   UNL d   1     -57.623 -98.756 -46.893  0.00  0.00    -0.273 OA
ATOM      5  C   UNL d   1     -56.810 -98.856 -46.986  0.00  0.00     0.300 A 
ATOM      6  C   UNL d   1     -56.345 -99.056 -46.333  0.00  0.00     0.071 A 
ATOM      7  C   UNL d   1     -57.862 -99.158 -44.755  0.00  0.00     0.027 A 
ATOM      8  C   UNL d   1     -58.669 -99.055 -44.679  0.00  0.00     0.100 A 
ATOM      9  C   UNL d   1     -58.786 -98.756 -46.063  0.00  0.00     0.027 A 
ATOM     10  C   UNL d   1     -59.137 -98.855 -45.329  0.00  0.00     0.025 A 
ATOM     11  O   UNL d   1     -56.457 -98.757 -47.720  0.00  0.00    -0.259 OA
ATOM     12  C   UNL d   1     -59.942 -98.755 -45.242  0.00  0.00     0.002 C 
ENDROOT
BRANCH   1  13
ATOM     13  C   UNL d   1     -56.232 -99.358 -44.935  0.00  0.00     0.100 A 
ATOM     14  O   UNL d   1     -55.962-100.117 -44.754  0.00  0.00    -0.305 OA
ATOM     15  C   UNL d   1     -55.527-100.076 -44.057  0.00  0.00     0.122 A 
ATOM     16  C   UNL d   1     -55.130-100.646 -43.617  0.00  0.00     0.117 A 
ATOM     17  C   UNL d   1     -55.525 -99.291 -43.804  0.00  0.00     0.027 A 
ATOM     18  C   UNL d   1     -54.735-100.440 -42.932  0.00  0.00     0.026 A 
ATOM     19  C   UNL d   1     -54.731 -99.656 -42.674  0.00  0.00     0.002 A 
ATOM     20  C   UNL d   1     -55.128 -99.080 -43.113  0.00  0.00     0.002 A 
ATOM     21  C   UNL d   1     -55.960 -98.849 -44.345  0.00  0.00     0.027 A 
BRANCH  16  22
ATOM     22  O   UNL d   1     -55.131-101.422 -43.867  0.00  0.00    -0.326 OA
ATOM     23  C   UNL d   1     -55.355-102.022 -43.348  0.00  0.00     0.181 C 
ENDBRANCH  16  22
ENDBRANCH   1  13
BRANCH   8  24
ATOM     24  O   UNL d   1     -59.019 -99.157 -43.934  0.00  0.00    -0.302 OA
BRANCH  24  25
ATOM     25  C   UNL d   1     -58.565 -99.064 -43.251  0.00  0.00     0.165 C 
BRANCH  25  26
ATOM     26  C   UNL d   1     -58.915 -99.125 -42.511  0.00  0.00     0.220 C 
ATOM     27  O   UNL d   1     -58.502 -98.879 -41.841  0.00  0.00    -0.284 OA
ATOM     28  C   UNL d   1     -59.664 -99.424 -42.433  0.00  0.00     0.048 C 
ENDBRANCH  25  26
ENDBRANCH  24  25
ENDBRANCH   8  24
TORSDOF 5
ENDMDL
