MODEL 1
REMARK VINA RESULT:      12.0      0.000      0.000
REMARK  2 active torsions:
REMARK  status: ('A' for Active; 'I' for Inactive)
REMARK    1  A    between atoms: C_3  and  C_1 
REMARK       I    between atoms: C_2  and  N_4 
REMARK    2  A    between atoms: N_4  and  C_12 
ROOT
ATOM      1  C   UNL d   1      59.565  49.651  50.753  0.00  0.00     0.072 A 
ATOM      2  C   UNL d   1      58.830  49.682  51.129  0.00  0.00     0.005 A 
ATOM      3  C   UNL d   1      59.608  49.638  49.928  0.00  0.00     0.005 A 
ATOM      4  C   UNL d   1      58.182  49.689  49.853  0.00  0.00     0.100 A 
ATOM      5  C   UNL d   1      58.139  49.701  50.678  0.00  0.00     0.020 A 
ATOM      6  C   UNL d   1      58.916  49.657  49.478  0.00  0.00     0.020 A 
ENDROOT
BRANCH   1   7
ATOM      7  C   UNL d   1      60.260  49.632  51.204  0.00  0.00     0.419 C 
ATOM      8  F   UNL d   1      60.890  49.615  51.614  0.00  0.00    -0.166 F 
ATOM      9  F   UNL d   1      61.085  49.630  50.943  0.00  0.00    -0.166 F 
ATOM     10  F   UNL d   1      60.352  49.609  52.062  0.00  0.00    -0.166 F 
ENDBRANCH   1   7
BRANCH   4  11
ATOM     11  N   UNL d   1      57.492  49.707  49.398  0.00  0.00    -0.056 NA
ATOM     12  C   UNL d   1      56.749  49.687  49.763  0.00  0.00     0.787 C 
ATOM     13  N   UNL d   1      56.058  49.706  49.313  0.00  0.00     0.064 N 
ATOM     14  N   UNL d   1      56.705  49.648  50.588  0.00  0.00     0.064 N 
ENDBRANCH   4  11
TORSDOF 2
ENDMDL
MODEL 2
REMARK VINA RESULT:      12.7      2.714      3.471
REMARK  2 active torsions:
REMARK  status: ('A' for Active; 'I' for Inactive)
REMARK    1  A    between atoms: C_3  and  C_1 
REMARK       I    between atoms: C_2  and  N_4 
REMARK    2  A    between atoms: N_4  and  C_12 
ROOT
ATOM      1  C   UNL d   1      57.689  49.635  50.193  0.00  0.00     0.072 A 
ATOM      2  C   UNL d   1      58.162  49.698  49.519  0.00  0.00     0.005 A 
ATOM      3  C   UNL d   1      58.037  49.582  50.941  0.00  0.00     0.005 A 
ATOM      4  C   UNL d   1      59.332  49.655  50.342  0.00  0.00     0.100 A 
ATOM      5  C   UNL d   1      58.984  49.708  49.595  0.00  0.00     0.020 A 
ATOM      6  C   UNL d   1      58.859  49.592  51.015  0.00  0.00     0.020 A 
ENDROOT
BRANCH   1   7
ATOM      7  C   UNL d   1      56.863  49.625  50.120  0.00  0.00     0.419 C 
ATOM      8  F   UNL d   1      56.114  49.616  50.052  0.00  0.00    -0.166 F 
ATOM      9  F   UNL d   1      56.256  49.635  50.737  0.00  0.00    -0.166 F 
ATOM     10  F   UNL d   1      56.380  49.602  49.405  0.00  0.00    -0.166 F 
ENDBRANCH   1   7
BRANCH   4  11
ATOM     11  N   UNL d   1      60.155  49.665  50.422  0.00  0.00    -0.056 NA
ATOM     12  C   UNL d   1      60.503  49.669  51.174  0.00  0.00     0.787 C 
ATOM     13  N   UNL d   1      61.324  49.678  51.258  0.00  0.00     0.064 N 
ATOM     14  N   UNL d   1      60.018  49.663  51.844  0.00  0.00     0.064 N 
ENDBRANCH   4  11
TORSDOF 2
ENDMDL
