MODEL 1
REMARK VINA RESULT:      79.5      0.000      0.000
REMARK  2 active torsions:
REMARK  status: ('A' for Active; 'I' for Inactive)
REMARK    1  A    between atoms: N_9  and  C_3 
REMARK    2  A    between atoms: C_11  and  C_4 
ROOT
ATOM      1  N   UNL d   1      58.669  49.607  52.640  0.00  0.00    -0.196 N 
ATOM      2  C   UNL d   1      59.300  49.597  52.069  0.00  0.00     0.167 A 
ATOM      3  C   UNL d   1      58.857  49.649  53.424  0.00  0.00     0.153 A 
ATOM      4  C   UNL d   1      59.130  49.555  51.276  0.00  0.00     0.057 A 
ATOM      5  N   UNL d   1      57.724  49.532  51.579  0.00  0.00    -0.161 NA
ATOM      6  N   UNL d   1      60.077  49.629  52.319  0.00  0.00    -0.227 NA
ATOM      7  C   UNL d   1      59.637  49.682  53.688  0.00  0.00     0.057 A 
ATOM      8  C   UNL d   1      58.335  49.522  51.025  0.00  0.00     0.124 A 
ATOM      9  C   UNL d   1      60.258  49.672  53.125  0.00  0.00     0.086 A 
ATOM     10  C   UNL d   1      61.076  49.707  53.389  0.00  0.00     0.021 C 
ENDROOT
BRANCH   4  11
ATOM     11  C   UNL d   1      59.742  49.545  50.722  0.00  0.00     0.005 A 
ATOM     12  C   UNL d   1      60.515  49.487  50.973  0.00  0.00     0.001 A 
ATOM     13  C   UNL d   1      61.126  49.478  50.419  0.00  0.00     0.011 A 
ATOM     14  C   UNL d   1      60.954  49.525  49.624  0.00  0.00     0.058 A 
ATOM     15  C   UNL d   1      60.170  49.583  49.382  0.00  0.00     0.011 A 
ATOM     16 CL   UNL d   1      61.595  49.515  49.043  0.00  0.00    -0.082 Cl
ATOM     17  C   UNL d   1      59.569  49.593  49.928  0.00  0.00     0.001 A 
ENDBRANCH   4  11
BRANCH   3  18
ATOM     18  N   UNL d   1      58.222  49.660  54.005  0.00  0.00    -0.285 N 
ATOM     19  C   UNL d   1      58.409  49.642  54.842  0.00  0.00     0.108 A 
ATOM     20  C   UNL d   1      57.778  49.653  55.414  0.00  0.00     0.142 A 
ATOM     21  O   UNL d   1      56.948  49.681  55.160  0.00  0.00    -0.300 OA
ATOM     22  C   UNL d   1      56.783  49.698  54.314  0.00  0.00     0.142 A 
ATOM     23  C   UNL d   1      57.413  49.687  53.743  0.00  0.00     0.108 A 
ENDBRANCH   3  18
TORSDOF 2
ENDMDL
