MODEL 1
REMARK VINA RESULT:     108.2      0.000      0.000
REMARK  4 active torsions:
REMARK  status: ('A' for Active; 'I' for Inactive)
REMARK    1  A    between atoms: S_5  and  C_2 
REMARK    2  A    between atoms: C_14  and  S_5 
REMARK    3  A    between atoms: N_11  and  C_8 
REMARK    4  A    between atoms: C_15  and  N_11 
ROOT
ATOM      1  C   UNL d   1     -55.032-100.944 -42.522  0.00  0.00     0.197 A 
ATOM      2  C   UNL d   1     -55.050-101.731 -42.764  0.00  0.00     0.227 A 
ATOM      3  N   UNL d   1     -54.915-100.928 -41.704  0.00  0.00    -0.192 N 
ATOM      4  N   UNL d   1     -55.107-100.233 -42.943  0.00  0.00    -0.206 NA
ATOM      5  N   UNL d   1     -54.944-102.210 -42.090  0.00  0.00    -0.115 NA
ATOM      6  N   UNL d   1     -54.861-101.707 -41.435  0.00  0.00    -0.058 NA
ATOM      7  C   UNL d   1     -55.065 -99.503 -42.546  0.00  0.00     0.166 A 
ATOM      8  C   UNL d   1     -54.948 -99.498 -41.728  0.00  0.00     0.054 A 
ATOM      9  C   UNL d   1     -54.873-100.201 -41.302  0.00  0.00     0.089 A 
ATOM     10  C   UNL d   1     -54.906 -98.773 -41.324  0.00  0.00     0.005 A 
ATOM     11  C   UNL d   1     -54.757-100.190 -40.485  0.00  0.00     0.019 A 
ATOM     12  C   UNL d   1     -54.790 -98.760 -40.509  0.00  0.00     0.000 A 
ATOM     13  C   UNL d   1     -54.715 -99.471 -40.089  0.00  0.00     0.002 A 
ENDROOT
BRANCH   2  14
ATOM     14  S   UNL d   1     -55.154-102.007 -43.534  0.00  0.00     0.231 S 
ATOM     15  O   UNL d   1     -54.935-102.771 -43.322  0.00  0.00    -0.215 OA
ATOM     16  O   UNL d   1     -55.375-101.238 -43.745  0.00  0.00    -0.215 OA
BRANCH  14  17
ATOM     17  C   UNL d   1     -55.273-102.231 -44.315  0.00  0.00     0.090 A 
ATOM     18  C   UNL d   1     -54.715-102.034 -44.887  0.00  0.00     0.011 A 
ATOM     19  C   UNL d   1     -54.825-102.253 -45.669  0.00  0.00     0.001 A 
ATOM     20  C   UNL d   1     -55.506-102.678 -45.882  0.00  0.00     0.000 A 
ATOM     21  C   UNL d   1     -56.065-102.874 -45.304  0.00  0.00     0.001 A 
ATOM     22  C   UNL d   1     -55.949-102.652 -44.526  0.00  0.00     0.011 A 
ENDBRANCH  14  17
ENDBRANCH   2  14
BRANCH   7  23
ATOM     23  N   UNL d   1     -55.139 -98.796 -42.965  0.00  0.00    -0.227 NA
BRANCH  23  24
ATOM     24  C   UNL d   1     -55.427 -98.801 -43.736  0.00  0.00     0.083 A 
ATOM     25  C   UNL d   1     -56.239 -98.778 -43.876  0.00  0.00     0.019 A 
ATOM     26  C   UNL d   1     -56.525 -98.783 -44.648  0.00  0.00     0.002 A 
ATOM     27  C   UNL d   1     -57.338 -98.760 -44.787  0.00  0.00     0.000 C 
ATOM     28  C   UNL d   1     -55.998 -98.811 -45.288  0.00  0.00     0.000 A 
ATOM     29  C   UNL d   1     -55.179 -98.834 -45.139  0.00  0.00     0.002 A 
ATOM     30  C   UNL d   1     -54.900 -98.829 -44.369  0.00  0.00     0.019 A 
ENDBRANCH  23  24
ENDBRANCH   7  23
TORSDOF 4
ENDMDL
