MODEL 1
REMARK VINA RESULT:      10.4      0.000      0.000
REMARK  4 active torsions:
REMARK  status: ('A' for Active; 'I' for Inactive)
REMARK    1  A    between atoms: C_3  and  C_1 
REMARK    2  A    between atoms: C_2  and  C_3 
REMARK    3  A    between atoms: C_6  and  C_2 
REMARK    4  A    between atoms: C_4  and  C_6 
ROOT
ATOM      1  C   UNL d   1      58.684  49.649  50.514  0.00  0.00     0.043 C 
ENDROOT
BRANCH   1   2
ATOM      2  C   UNL d   1      59.489  49.682  50.365  0.00  0.00     0.202 C 
ATOM      3  O   UNL d   1      59.803  49.707  49.608  0.00  0.00    -0.286 OA
BRANCH   2   4
ATOM      4  C   UNL d   1      60.050  49.691  50.995  0.00  0.00     0.068 A 
ATOM      5  S   UNL d   1      60.870  49.693  50.937  0.00  0.00    -0.083 SA
ATOM      6  C   UNL d   1      61.203  49.703  51.680  0.00  0.00     0.035 A 
ATOM      7  C   UNL d   1      60.563  49.707  52.215  0.00  0.00     0.008 A 
ATOM      8  C   UNL d   1      59.861  49.700  51.820  0.00  0.00     0.010 A 
ENDBRANCH   2   4
ENDBRANCH   1   2
BRANCH   1   9
ATOM      9  C   UNL d   1      58.162  49.708  49.876  0.00  0.00     0.010 C 
BRANCH   9  10
ATOM     10  C   UNL d   1      57.348  49.697  50.030  0.00  0.00     0.030 A 
ATOM     11  S   UNL d   1      56.916  49.680  50.723  0.00  0.00    -0.086 SA
ATOM     12  C   UNL d   1      56.112  49.677  50.518  0.00  0.00     0.035 A 
ATOM     13  C   UNL d   1      56.076  49.691  49.746  0.00  0.00     0.007 A 
ATOM     14  C   UNL d   1      56.795  49.703  49.418  0.00  0.00     0.007 A 
ENDBRANCH   9  10
ENDBRANCH   1   9
TORSDOF 4
ENDMDL
MODEL 2
REMARK VINA RESULT:      12.9      1.063      3.781
REMARK  4 active torsions:
REMARK  status: ('A' for Active; 'I' for Inactive)
REMARK    1  A    between atoms: C_3  and  C_1 
REMARK    2  A    between atoms: C_2  and  C_3 
REMARK    3  A    between atoms: C_6  and  C_2 
REMARK    4  A    between atoms: C_4  and  C_6 
ROOT
ATOM      1  C   UNL d   1      58.600  49.627  50.498  0.00  0.00     0.043 C 
ENDROOT
BRANCH   1   2
ATOM      2  C   UNL d   1      57.799  49.667  50.663  0.00  0.00     0.202 C 
ATOM      3  O   UNL d   1      57.501  49.708  51.426  0.00  0.00    -0.286 OA
BRANCH   2   4
ATOM      4  C   UNL d   1      57.224  49.668  50.045  0.00  0.00     0.068 A 
ATOM      5  S   UNL d   1      56.407  49.708  50.119  0.00  0.00    -0.083 SA
ATOM      6  C   UNL d   1      56.059  49.694  49.383  0.00  0.00     0.035 A 
ATOM      7  C   UNL d   1      56.686  49.643  48.836  0.00  0.00     0.008 A 
ATOM      8  C   UNL d   1      57.395  49.627  49.217  0.00  0.00     0.010 A 
ENDBRANCH   2   4
ENDBRANCH   1   2
BRANCH   1   9
ATOM      9  C   UNL d   1      59.128  49.535  51.127  0.00  0.00     0.010 C 
BRANCH   9  10
ATOM     10  C   UNL d   1      59.941  49.569  50.968  0.00  0.00     0.030 A 
ATOM     11  S   UNL d   1      60.602  49.491  51.442  0.00  0.00    -0.086 SA
ATOM     12  C   UNL d   1      61.269  49.582  50.958  0.00  0.00     0.035 A 
ATOM     13  C   UNL d   1      61.013  49.706  50.240  0.00  0.00     0.007 A 
ATOM     14  C   UNL d   1      60.224  49.706  50.204  0.00  0.00     0.007 A 
ENDBRANCH   9  10
ENDBRANCH   1   9
TORSDOF 4
ENDMDL
