MODEL 1
REMARK VINA RESULT:      37.7      0.000      0.000
REMARK  4 active torsions:
REMARK  status: ('A' for Active; 'I' for Inactive)
REMARK    1  A    between atoms: C_7  and  C_1 
REMARK    2  A    between atoms: C_8  and  C_7 
REMARK       I    between atoms: N_9  and  C_8 
REMARK    3  A    between atoms: C_14  and  N_9 
REMARK    4  A    between atoms: C_15  and  C_14 
ROOT
ATOM      1  C   UNL d   1      14.250  12.739  -1.660  0.00  0.00     0.032 A 
ATOM      2  C   UNL d   1      14.764  13.139  -1.149  0.00  0.00     0.025 A 
ATOM      3  C   UNL d   1      14.276  11.918  -1.588  0.00  0.00     0.123 A 
ATOM      4  O   UNL d   1      14.908  11.825  -0.928  0.00  0.00    -0.305 OA
ATOM      5  C   UNL d   1      14.919  13.943  -1.032  0.00  0.00     0.002 A 
ATOM      6  C   UNL d   1      15.169  12.575  -0.698  0.00  0.00     0.100 A 
ATOM      7  C   UNL d   1      15.470  14.186  -0.474  0.00  0.00     0.000 A 
ATOM      8  C   UNL d   1      15.726  12.821  -0.134  0.00  0.00     0.025 A 
ATOM      9  C   UNL d   1      15.875  13.623  -0.023  0.00  0.00     0.002 A 
ATOM     10  C   UNL d   1      14.515  14.504  -1.481  0.00  0.00     0.000 A 
ATOM     11  C   UNL d   1      15.616  14.978  -0.365  0.00  0.00     0.000 A 
ATOM     12  C   UNL d   1      14.665  15.306  -1.370  0.00  0.00     0.000 A 
ATOM     13  C   UNL d   1      15.223  15.537  -0.804  0.00  0.00     0.000 A 
ENDROOT
BRANCH   1  14
ATOM     14  C   UNL d   1      13.740  13.089  -2.208  0.00  0.00     0.065 C 
BRANCH  14  15
ATOM     15  C   UNL d   1      13.412  12.637  -2.818  0.00  0.00     0.279 C 
ATOM     16  N   UNL d   1      13.206  12.996  -3.531  0.00  0.00    -0.206 NA
ATOM     17  O   UNL d   1      13.293  11.833  -2.717  0.00  0.00    -0.265 OA
BRANCH  16  18
ATOM     18  C   UNL d   1      12.882  12.554  -4.136  0.00  0.00     0.102 C 
BRANCH  18  19
ATOM     19  C   UNL d   1      13.246  12.528  -4.880  0.00  0.00     0.019 A 
ATOM     20  C   UNL d   1      13.262  11.821  -5.294  0.00  0.00     0.002 A 
ATOM     21  C   UNL d   1      13.622  11.789  -6.032  0.00  0.00     0.000 A 
ATOM     22  C   UNL d   1      13.966  12.464  -6.357  0.00  0.00     0.000 A 
ATOM     23  C   UNL d   1      13.945  13.180  -5.928  0.00  0.00     0.000 A 
ATOM     24  C   UNL d   1      13.585  13.203  -5.193  0.00  0.00     0.002 A 
ENDBRANCH  18  19
ENDBRANCH  16  18
ENDBRANCH  14  15
ENDBRANCH   1  14
TORSDOF 4
ENDMDL
MODEL 2
REMARK VINA RESULT:      40.1      0.759      1.317
REMARK  4 active torsions:
REMARK  status: ('A' for Active; 'I' for Inactive)
REMARK    1  A    between atoms: C_7  and  C_1 
REMARK    2  A    between atoms: C_8  and  C_7 
REMARK       I    between atoms: N_9  and  C_8 
REMARK    3  A    between atoms: C_14  and  N_9 
REMARK    4  A    between atoms: C_15  and  C_14 
ROOT
ATOM      1  C   UNL d   1      14.770  13.191  -0.863  0.00  0.00     0.032 A 
ATOM      2  C   UNL d   1      15.163  13.907  -0.728  0.00  0.00     0.025 A 
ATOM      3  C   UNL d   1      15.120  12.542  -0.494  0.00  0.00     0.123 A 
ATOM      4  O   UNL d   1      15.831  12.945  -0.075  0.00  0.00    -0.305 OA
ATOM      5  C   UNL d   1      15.013  14.680  -0.982  0.00  0.00     0.002 A 
ATOM      6  C   UNL d   1      15.816  13.755  -0.243  0.00  0.00     0.100 A 
ATOM      7  C   UNL d   1      15.506  15.296  -0.758  0.00  0.00     0.000 A 
ATOM      8  C   UNL d   1      16.314  14.379  -0.016  0.00  0.00     0.025 A 
ATOM      9  C   UNL d   1      16.160  15.145  -0.273  0.00  0.00     0.002 A 
ATOM     10  C   UNL d   1      14.363  14.830  -1.465  0.00  0.00     0.000 A 
ATOM     11  C   UNL d   1      15.353  16.053  -1.012  0.00  0.00     0.000 A 
ATOM     12  C   UNL d   1      14.209  15.597  -1.722  0.00  0.00     0.000 A 
ATOM     13  C   UNL d   1      14.714  16.209  -1.488  0.00  0.00     0.000 A 
ENDROOT
BRANCH   1  14
ATOM     14  C   UNL d   1      14.088  13.088  -1.319  0.00  0.00     0.065 C 
BRANCH  14  15
ATOM     15  C   UNL d   1      14.036  12.457  -1.851  0.00  0.00     0.279 C 
ATOM     16  N   UNL d   1      13.499  12.490  -2.476  0.00  0.00    -0.206 NA
ATOM     17  O   UNL d   1      14.515  11.800  -1.760  0.00  0.00    -0.265 OA
BRANCH  16  18
ATOM     18  C   UNL d   1      13.443  11.870  -3.004  0.00  0.00     0.102 C 
BRANCH  18  19
ATOM     19  C   UNL d   1      13.433  12.011  -3.820  0.00  0.00     0.019 A 
ATOM     20  C   UNL d   1      14.083  12.365  -4.173  0.00  0.00     0.002 A 
ATOM     21  C   UNL d   1      14.079  12.508  -4.983  0.00  0.00     0.000 A 
ATOM     22  C   UNL d   1      13.426  12.297  -5.439  0.00  0.00     0.000 A 
ATOM     23  C   UNL d   1      12.769  11.937  -5.071  0.00  0.00     0.000 A 
ATOM     24  C   UNL d   1      12.781  11.798  -4.264  0.00  0.00     0.002 A 
ENDBRANCH  18  19
ENDBRANCH  16  18
ENDBRANCH  14  15
ENDBRANCH   1  14
TORSDOF 4
ENDMDL
