MODEL 1
REMARK VINA RESULT:      56.6      0.000      0.000
REMARK  3 active torsions:
REMARK  status: ('A' for Active; 'I' for Inactive)
REMARK    1  A    between atoms: C_6  and  C_1 
REMARK    2  A    between atoms: O_10  and  C_6 
REMARK    3  A    between atoms: C_19  and  O_10 
ROOT
ATOM      1  C   UNL d   1      57.449  49.555  50.456  0.00  0.00     0.081 A 
ATOM      2  C   UNL d   1      58.743  49.619  51.141  0.00  0.00     0.056 A 
ATOM      3  C   UNL d   1      59.123  49.596  50.425  0.00  0.00     0.080 A 
ATOM      4  C   UNL d   1      57.829  49.531  49.740  0.00  0.00     0.086 A 
ATOM      5  C   UNL d   1      57.918  49.600  51.182  0.00  0.00     0.013 A 
ATOM      6  N   UNL d   1      58.702  49.552  49.704  0.00  0.00    -0.246 NA
ATOM      7  C   UNL d   1      59.171  49.663  51.845  0.00  0.00     0.193 A 
ATOM      8  C   UNL d   1      59.955  49.615  50.367  0.00  0.00    -0.003 A 
ATOM      9  C   UNL d   1      60.381  49.659  51.090  0.00  0.00     0.042 A 
ATOM     10  C   UNL d   1      60.001  49.682  51.806  0.00  0.00     0.019 A 
ATOM     11  O   UNL d   1      58.791  49.686  52.562  0.00  0.00    -0.287 OA
ATOM     12  C   UNL d   1      57.302  49.638  52.343  0.00  0.00     0.020 A 
ATOM     13  N   UNL d   1      56.071  49.639  53.053  0.00  0.00    -0.242 NA
ATOM     14  C   UNL d   1      57.408  49.487  49.020  0.00  0.00     0.021 C 
ATOM     15  C   UNL d   1      56.457  49.615  52.325  0.00  0.00     0.099 A 
ATOM     16  C   UNL d   1      61.135  49.666  50.819  0.00  0.00     0.009 C 
ATOM     17  C   UNL d   1      61.082  49.694  51.461  0.00  0.00     0.009 C 
ATOM     18  C   UNL d   1      56.548  49.684  53.764  0.00  0.00     0.099 A 
ATOM     19  C   UNL d   1      57.755  49.680  53.012  0.00  0.00     0.003 A 
ATOM     20  C   UNL d   1      57.369  49.704  53.739  0.00  0.00     0.021 A 
ENDROOT
BRANCH   1  21
ATOM     21  C   UNL d   1      56.624  49.535  50.497  0.00  0.00     0.301 C 
ATOM     22  O   UNL d   1      56.239  49.707  51.191  0.00  0.00    -0.259 OA
BRANCH  21  23
ATOM     23  O   UNL d   1      56.199  49.337  49.816  0.00  0.00    -0.273 OA
BRANCH  23  24
ATOM     24  C   UNL d   1      56.394  48.725  49.416  0.00  0.00     0.103 C 
ATOM     25  C   UNL d   1      56.954  48.788  48.886  0.00  0.00     0.027 C 
ATOM     26  C   UNL d   1      56.039  48.065  49.540  0.00  0.00     0.027 C 
ENDBRANCH  23  24
ENDBRANCH  21  23
ENDBRANCH   1  21
TORSDOF 3
ENDMDL
