MODEL 1
REMARK VINA RESULT:      -2.2      0.000      0.000
REMARK  3 active torsions:
REMARK  status: ('A' for Active; 'I' for Inactive)
REMARK    1  A    between atoms: C_9  and  C_2 
REMARK    2  A    between atoms: C_10  and  C_6 
REMARK    3  A    between atoms: O_18  and  C_9 
ROOT
ATOM      1  C   UNL d   1      30.942  17.026 -24.440  0.00  0.00     0.044 A 
ATOM      2  C   UNL d   1      29.670  16.585 -24.498  0.00  0.00     0.113 A 
ATOM      3  C   UNL d   1      30.438  16.380 -24.276  0.00  0.00     0.116 A 
ATOM      4  C   UNL d   1      30.476  17.635 -24.766  0.00  0.00     0.112 A 
ATOM      5  S   UNL d   1      29.688  17.360 -24.802  0.00  0.00    -0.061 SA
ATOM      6  C   UNL d   1      31.747  17.142 -24.339  0.00  0.00     0.011 A 
ATOM      7  N   UNL d   1      30.822  18.337 -24.982  0.00  0.00    -0.239 NA
ATOM      8  C   UNL d   1      32.088  17.851 -24.558  0.00  0.00     0.018 A 
ATOM      9  C   UNL d   1      31.631  18.448 -24.878  0.00  0.00     0.082 A 
ATOM     10  N   UNL d   1      30.670  15.661 -23.948  0.00  0.00    -0.147 N 
ATOM     11  C   UNL d   1      32.901  17.955 -24.450  0.00  0.00     0.002 A 
ATOM     12  C   UNL d   1      31.979  19.161 -25.097  0.00  0.00     0.019 A 
ATOM     13  C   UNL d   1      33.241  18.672 -24.673  0.00  0.00     0.000 A 
ATOM     14  C   UNL d   1      32.779  19.275 -24.996  0.00  0.00     0.002 A 
ENDROOT
BRANCH   6  15
ATOM     15  C   UNL d   1      32.201  16.535 -24.016  0.00  0.00     0.030 A 
ATOM     16  S   UNL d   1      32.623  15.959 -24.430  0.00  0.00    -0.086 SA
ATOM     17  C   UNL d   1      32.992  15.471 -23.875  0.00  0.00     0.035 A 
ATOM     18  C   UNL d   1      32.802  15.742 -23.120  0.00  0.00     0.007 A 
ATOM     19  C   UNL d   1      32.311  16.401 -23.207  0.00  0.00     0.007 A 
ENDBRANCH   6  15
BRANCH   2  20
ATOM     20  C   UNL d   1      29.000  16.108 -24.431  0.00  0.00     0.303 C 
ATOM     21  O   UNL d   1      28.879  15.490 -24.961  0.00  0.00    -0.259 OA
BRANCH  20  22
ATOM     22  O   UNL d   1      28.457  16.254 -23.834  0.00  0.00    -0.295 OA
ATOM     23  C   UNL d   1      27.794  15.768 -23.759  0.00  0.00     0.185 C 
ENDBRANCH  20  22
ENDBRANCH   2  20
TORSDOF 3
ENDMDL
MODEL 2
REMARK VINA RESULT:      -1.3      5.132      6.374
REMARK  3 active torsions:
REMARK  status: ('A' for Active; 'I' for Inactive)
REMARK    1  A    between atoms: C_9  and  C_2 
REMARK    2  A    between atoms: C_10  and  C_6 
REMARK    3  A    between atoms: O_18  and  C_9 
ROOT
ATOM      1  C   UNL d   1      32.983  21.350 -21.548  0.00  0.00     0.044 A 
ATOM      2  C   UNL d   1      33.078  20.218 -22.273  0.00  0.00     0.113 A 
ATOM      3  C   UNL d   1      32.935  21.029 -22.318  0.00  0.00     0.116 A 
ATOM      4  C   UNL d   1      33.159  20.726 -21.025  0.00  0.00     0.112 A 
ATOM      5  S   UNL d   1      33.218  20.025 -21.476  0.00  0.00    -0.061 SA
ATOM      6  C   UNL d   1      32.894  22.110 -21.256  0.00  0.00     0.011 A 
ATOM      7  N   UNL d   1      33.240  20.875 -20.231  0.00  0.00    -0.239 NA
ATOM      8  C   UNL d   1      32.976  22.253 -20.456  0.00  0.00     0.018 A 
ATOM      9  C   UNL d   1      33.149  21.641 -19.943  0.00  0.00     0.082 A 
ATOM     10  N   UNL d   1      32.771  21.454 -23.005  0.00  0.00    -0.147 N 
ATOM     11  C   UNL d   1      32.883  23.025 -20.174  0.00  0.00     0.002 A 
ATOM     12  C   UNL d   1      33.231  21.789 -19.138  0.00  0.00     0.019 A 
ATOM     13  C   UNL d   1      32.968  23.164 -19.367  0.00  0.00     0.000 A 
ATOM     14  C   UNL d   1      33.141  22.546 -18.849  0.00  0.00     0.002 A 
ENDROOT
BRANCH   6  15
ATOM     15  C   UNL d   1      32.720  22.722 -21.780  0.00  0.00     0.030 A 
ATOM     16  S   UNL d   1      33.233  23.061 -22.332  0.00  0.00    -0.086 SA
ATOM     17  C   UNL d   1      32.817  23.652 -22.731  0.00  0.00     0.035 A 
ATOM     18  C   UNL d   1      32.049  23.681 -22.430  0.00  0.00     0.007 A 
ATOM     19  C   UNL d   1      31.990  23.105 -21.841  0.00  0.00     0.007 A 
ENDBRANCH   6  15
BRANCH   2  20
ATOM     20  C   UNL d   1      33.083  19.689 -22.906  0.00  0.00     0.303 C 
ATOM     21  O   UNL d   1      33.168  19.967 -23.676  0.00  0.00    -0.259 OA
BRANCH  20  22
ATOM     22  O   UNL d   1      33.004  18.885 -22.763  0.00  0.00    -0.295 OA
ATOM     23  C   UNL d   1      32.983  18.358 -23.397  0.00  0.00     0.185 C 
ENDBRANCH  20  22
ENDBRANCH   2  20
TORSDOF 3
ENDMDL
MODEL 3
REMARK VINA RESULT:      -1.3      6.337      7.556
REMARK  3 active torsions:
REMARK  status: ('A' for Active; 'I' for Inactive)
REMARK    1  A    between atoms: C_9  and  C_2 
REMARK    2  A    between atoms: C_10  and  C_6 
REMARK    3  A    between atoms: O_18  and  C_9 
ROOT
ATOM      1  C   UNL d   1      32.747  22.241 -20.222  0.00  0.00     0.044 A 
ATOM      2  C   UNL d   1      32.704  22.728 -18.966  0.00  0.00     0.113 A 
ATOM      3  C   UNL d   1      32.608  22.925 -19.761  0.00  0.00     0.116 A 
ATOM      4  C   UNL d   1      32.930  21.618 -19.701  0.00  0.00     0.112 A 
ATOM      5  S   UNL d   1      32.903  21.921 -18.923  0.00  0.00    -0.061 SA
ATOM      6  C   UNL d   1      32.732  22.103 -21.029  0.00  0.00     0.011 A 
ATOM      7  N   UNL d   1      33.092  20.879 -19.996  0.00  0.00    -0.239 NA
ATOM      8  C   UNL d   1      32.895  21.357 -21.319  0.00  0.00     0.018 A 
ATOM      9  C   UNL d   1      33.075  20.746 -20.808  0.00  0.00     0.082 A 
ATOM     10  N   UNL d   1      32.410  23.669 -20.054  0.00  0.00    -0.147 N 
ATOM     11  C   UNL d   1      32.877  21.231 -22.136  0.00  0.00     0.002 A 
ATOM     12  C   UNL d   1      33.239  19.996 -21.104  0.00  0.00     0.019 A 
ATOM     13  C   UNL d   1      33.043  20.477 -22.424  0.00  0.00     0.000 A 
ATOM     14  C   UNL d   1      33.224  19.860 -21.908  0.00  0.00     0.002 A 
ENDROOT
BRANCH   6  15
ATOM     15  C   UNL d   1      32.550  22.725 -21.538  0.00  0.00     0.030 A 
ATOM     16  S   UNL d   1      33.073  23.124 -22.038  0.00  0.00    -0.086 SA
ATOM     17  C   UNL d   1      32.642  23.702 -22.441  0.00  0.00     0.035 A 
ATOM     18  C   UNL d   1      31.856  23.664 -22.194  0.00  0.00     0.007 A 
ATOM     19  C   UNL d   1      31.799  23.059 -21.635  0.00  0.00     0.007 A 
ENDBRANCH   6  15
BRANCH   2  20
ATOM     20  C   UNL d   1      32.619  23.239 -18.324  0.00  0.00     0.303 C 
ATOM     21  O   UNL d   1      31.940  23.699 -18.250  0.00  0.00    -0.259 OA
BRANCH  20  22
ATOM     22  O   UNL d   1      33.214  23.286 -17.762  0.00  0.00    -0.295 OA
ATOM     23  C   UNL d   1      33.065  23.662 -17.042  0.00  0.00     0.185 C 
ENDBRANCH  20  22
ENDBRANCH   2  20
TORSDOF 3
ENDMDL
MODEL 4
REMARK VINA RESULT:      -0.9      3.987      5.085
REMARK  3 active torsions:
REMARK  status: ('A' for Active; 'I' for Inactive)
REMARK    1  A    between atoms: C_9  and  C_2 
REMARK    2  A    between atoms: C_10  and  C_6 
REMARK    3  A    between atoms: O_18  and  C_9 
ROOT
ATOM      1  C   UNL d   1      32.900  20.738 -22.749  0.00  0.00     0.044 A 
ATOM      2  C   UNL d   1      32.925  19.426 -23.058  0.00  0.00     0.113 A 
ATOM      3  C   UNL d   1      32.815  19.965 -22.443  0.00  0.00     0.116 A 
ATOM      4  C   UNL d   1      33.064  20.671 -23.563  0.00  0.00     0.112 A 
ATOM      5  S   UNL d   1      33.079  19.857 -23.753  0.00  0.00    -0.061 SA
ATOM      6  C   UNL d   1      32.852  21.480 -22.406  0.00  0.00     0.011 A 
ATOM      7  N   UNL d   1      33.175  21.340 -24.009  0.00  0.00    -0.239 NA
ATOM      8  C   UNL d   1      32.964  22.149 -22.861  0.00  0.00     0.018 A 
ATOM      9  C   UNL d   1      33.125  22.083 -23.659  0.00  0.00     0.082 A 
ATOM     10  N   UNL d   1      32.649  19.775 -21.658  0.00  0.00    -0.147 N 
ATOM     11  C   UNL d   1      32.913  22.892 -22.501  0.00  0.00     0.002 A 
ATOM     12  C   UNL d   1      33.238  22.760 -24.113  0.00  0.00     0.019 A 
ATOM     13  C   UNL d   1      33.027  23.564 -22.964  0.00  0.00     0.000 A 
ATOM     14  C   UNL d   1      33.189  23.498 -23.770  0.00  0.00     0.002 A 
ENDROOT
BRANCH   6  15
ATOM     15  C   UNL d   1      32.689  21.538 -21.600  0.00  0.00     0.030 A 
ATOM     16  S   UNL d   1      33.241  21.585 -20.986  0.00  0.00    -0.086 SA
ATOM     17  C   UNL d   1      32.822  21.635 -20.276  0.00  0.00     0.035 A 
ATOM     18  C   UNL d   1      32.014  21.620 -20.446  0.00  0.00     0.007 A 
ATOM     19  C   UNL d   1      31.933  21.560 -21.266  0.00  0.00     0.007 A 
ENDBRANCH   6  15
BRANCH   2  20
ATOM     20  C   UNL d   1      32.888  18.604 -22.998  0.00  0.00     0.303 C 
ATOM     21  O   UNL d   1      33.162  18.227 -22.319  0.00  0.00    -0.259 OA
BRANCH  20  22
ATOM     22  O   UNL d   1      32.578  18.166 -23.617  0.00  0.00    -0.295 OA
ATOM     23  C   UNL d   1      32.553  17.343 -23.563  0.00  0.00     0.185 C 
ENDBRANCH  20  22
ENDBRANCH   2  20
TORSDOF 3
ENDMDL
MODEL 5
REMARK VINA RESULT:       0.5      1.158      2.398
REMARK  3 active torsions:
REMARK  status: ('A' for Active; 'I' for Inactive)
REMARK    1  A    between atoms: C_9  and  C_2 
REMARK    2  A    between atoms: C_10  and  C_6 
REMARK    3  A    between atoms: O_18  and  C_9 
ROOT
ATOM      1  C   UNL d   1      30.389  16.584 -23.787  0.00  0.00     0.044 A 
ATOM      2  C   UNL d   1      29.097  16.206 -23.721  0.00  0.00     0.113 A 
ATOM      3  C   UNL d   1      29.604  16.816 -23.951  0.00  0.00     0.116 A 
ATOM      4  C   UNL d   1      30.363  15.822 -23.451  0.00  0.00     0.112 A 
ATOM      5  S   UNL d   1      29.562  15.589 -23.411  0.00  0.00    -0.061 SA
ATOM      6  C   UNL d   1      31.112  16.955 -23.894  0.00  0.00     0.011 A 
ATOM      7  N   UNL d   1      31.053  15.453 -23.233  0.00  0.00    -0.239 NA
ATOM      8  C   UNL d   1      31.802  16.577 -23.673  0.00  0.00     0.018 A 
ATOM      9  C   UNL d   1      31.776  15.830 -23.344  0.00  0.00     0.082 A 
ATOM     10  N   UNL d   1      29.375  17.533 -24.286  0.00  0.00    -0.147 N 
ATOM     11  C   UNL d   1      32.525  16.963 -23.787  0.00  0.00     0.002 A 
ATOM     12  C   UNL d   1      32.473  15.453 -23.122  0.00  0.00     0.019 A 
ATOM     13  C   UNL d   1      33.217  16.578 -23.562  0.00  0.00     0.000 A 
ATOM     14  C   UNL d   1      33.192  15.823 -23.230  0.00  0.00     0.002 A 
ENDROOT
BRANCH   6  15
ATOM     15  C   UNL d   1      31.129  17.709 -24.227  0.00  0.00     0.030 A 
ATOM     16  S   UNL d   1      31.060  17.897 -25.028  0.00  0.00    -0.086 SA
ATOM     17  C   UNL d   1      31.109  18.719 -25.097  0.00  0.00     0.035 A 
ATOM     18  C   UNL d   1      31.209  19.040 -24.344  0.00  0.00     0.007 A 
ATOM     19  C   UNL d   1      31.221  18.414 -23.805  0.00  0.00     0.007 A 
ENDBRANCH   6  15
BRANCH   2  20
ATOM     20  C   UNL d   1      28.275  16.206 -23.785  0.00  0.00     0.303 C 
ATOM     21  O   UNL d   1      27.910  15.815 -24.410  0.00  0.00    -0.259 OA
BRANCH  20  22
ATOM     22  O   UNL d   1      27.824  16.597 -23.223  0.00  0.00    -0.295 OA
ATOM     23  C   UNL d   1      27.154  16.232 -22.911  0.00  0.00     0.185 C 
ENDBRANCH  20  22
ENDBRANCH   2  20
TORSDOF 3
ENDMDL
