MODEL 1
REMARK VINA RESULT:      75.1      0.000      0.000
REMARK  4 active torsions:
REMARK  status: ('A' for Active; 'I' for Inactive)
REMARK    1  A    between atoms: N_2  and  S_1 
REMARK    2  A    between atoms: C_4  and  S_1 
REMARK    3  A    between atoms: C_15  and  C_3 
REMARK    4  A    between atoms: O_16  and  C_12 
ROOT
ATOM      1  S   UNL d   1      61.122  46.903  50.348  0.00  0.00     0.273 S 
ATOM      2  O   UNL d   1      61.877  47.162  50.139  0.00  0.00    -0.200 OA
ATOM      3  O   UNL d   1      60.367  46.644  50.556  0.00  0.00    -0.200 OA
ENDROOT
BRANCH   1   4
ATOM      4  N   UNL d   1      61.247  46.200  49.929  0.00  0.00    -0.213 N 
ATOM      5  C   UNL d   1      61.890  46.039  49.435  0.00  0.00     0.157 A 
ATOM      6  N   UNL d   1      61.790  45.274  49.133  0.00  0.00    -0.226 NA
ATOM      7  C   UNL d   1      61.089  44.966  49.440  0.00  0.00     0.101 A 
ATOM      8  C   UNL d   1      60.751  45.539  49.934  0.00  0.00     0.112 A 
ATOM      9  C   UNL d   1      60.777  44.219  49.284  0.00  0.00     0.022 C 
BRANCH   5  10
ATOM     10  C   UNL d   1      62.513  46.547  49.274  0.00  0.00     0.038 C 
ATOM     11  C   UNL d   1      63.156  46.278  48.835  0.00  0.00     0.003 C 
ENDBRANCH   5  10
ENDBRANCH   1   4
BRANCH   1  12
ATOM     12  C   UNL d   1      60.997  47.604  50.765  0.00  0.00     0.106 A 
ATOM     13  C   UNL d   1      60.823  48.301  50.358  0.00  0.00     0.037 A 
ATOM     14  C   UNL d   1      60.698  49.001  50.775  0.00  0.00     0.095 A 
ATOM     15  C   UNL d   1      60.747  49.005  51.599  0.00  0.00     0.022 A 
ATOM     16  C   UNL d   1      60.920  48.308  52.005  0.00  0.00     0.003 A 
ATOM     17  C   UNL d   1      60.622  49.706  52.016  0.00  0.00     0.002 C 
ATOM     18  C   UNL d   1      61.045  47.608  51.588  0.00  0.00     0.012 A 
ATOM     19  C   UNL d   1      61.217  46.916  51.986  0.00  0.00     0.001 C 
BRANCH  14  20
ATOM     20  O   UNL d   1      60.524  49.700  50.365  0.00  0.00    -0.328 OA
ATOM     21  C   UNL d   1      60.468  49.691  49.542  0.00  0.00     0.181 C 
ENDBRANCH  14  20
ENDBRANCH   1  12
TORSDOF 4
ENDMDL
