MODEL 1
REMARK VINA RESULT:      23.5      0.000      0.000
REMARK  1 active torsions:
REMARK  status: ('A' for Active; 'I' for Inactive)
REMARK    1  A    between atoms: C_2  and  C_1 
REMARK       I    between atoms: N_6  and  C_2 
ROOT
ATOM      1  C   UNL d   1      14.154  12.748  -2.608  0.00  0.00     0.057 A 
ATOM      2  C   UNL d   1      14.057  13.545  -2.792  0.00  0.00     0.005 A 
ATOM      3  C   UNL d   1      13.596  13.765  -3.450  0.00  0.00     0.001 A 
ATOM      4  C   UNL d   1      13.794  12.170  -3.074  0.00  0.00     0.011 A 
ATOM      5  C   UNL d   1      13.240  13.185  -3.911  0.00  0.00     0.006 A 
ATOM      6  C   UNL d   1      13.335  12.389  -3.728  0.00  0.00     0.035 A 
ATOM      7 BR   UNL d   1      12.978  11.809  -4.189  0.00  0.00    -0.049 Br
ATOM      8  C   UNL d   1      14.320  14.255  -2.470  0.00  0.00     0.000 C 
ATOM      9  C   UNL d   1      13.626  14.588  -3.460  0.00  0.00     0.000 C 
ATOM     10  C   UNL d   1      12.781  13.403  -4.565  0.00  0.00     0.001 C 
ENDROOT
BRANCH   1  11
ATOM     11  C   UNL d   1      14.611  12.527  -1.956  0.00  0.00     0.265 C 
ATOM     12  N   UNL d   1      14.244  12.252  -1.269  0.00  0.00    -0.272 N 
ATOM     13  C   UNL d   1      13.435  12.168  -1.153  0.00  0.00     0.083 A 
ATOM     14  C   UNL d   1      14.628  12.013  -0.578  0.00  0.00     0.083 A 
ATOM     15  C   UNL d   1      13.313  11.877  -0.392  0.00  0.00     0.021 A 
ATOM     16  C   UNL d   1      14.052  11.781  -0.036  0.00  0.00     0.021 A 
ATOM     17  O   UNL d   1      15.431  12.582  -1.991  0.00  0.00    -0.267 OA
ENDBRANCH   1  11
TORSDOF 1
ENDMDL
