MODEL 1
REMARK VINA RESULT:      99.0      0.000      0.000
REMARK  3 active torsions:
REMARK  status: ('A' for Active; 'I' for Inactive)
REMARK    1  A    between atoms: N_5  and  C_1 
REMARK    2  A    between atoms: C_9  and  C_2 
REMARK       I    between atoms: C_8  and  N_5 
REMARK    3  A    between atoms: C_10  and  C_8 
ROOT
ATOM      1  C   UNL d   1      59.707  49.406  51.949  0.00  0.00     0.155 A 
ATOM      2  C   UNL d   1      60.433  49.251  51.588  0.00  0.00     0.080 A 
ATOM      3  N   UNL d   1      59.032  49.529  51.481  0.00  0.00    -0.289 N 
ATOM      4  C   UNL d   1      60.484  49.220  50.759  0.00  0.00     0.200 A 
ATOM      5  C   UNL d   1      59.811  49.343  50.299  0.00  0.00     0.055 A 
ATOM      6  C   UNL d   1      59.086  49.498  50.660  0.00  0.00     0.069 A 
ATOM      7  O   UNL d   1      61.213  49.064  50.397  0.00  0.00    -0.286 OA
ATOM      8  C   UNL d   1      58.307  49.684  51.842  0.00  0.00     0.101 C 
ATOM      9  C   UNL d   1      59.866  49.311  49.478  0.00  0.00     0.005 A 
ATOM     10  C   UNL d   1      58.418  49.620  50.207  0.00  0.00     0.018 A 
ATOM     11  C   UNL d   1      59.194  49.434  49.018  0.00  0.00     0.000 A 
ATOM     12  C   UNL d   1      58.468  49.589  49.379  0.00  0.00     0.002 A 
ENDROOT
BRANCH   1  13
ATOM     13  N   UNL d   1      59.651  49.438  52.784  0.00  0.00    -0.190 NA
ATOM     14  C   UNL d   1      58.925  49.575  53.162  0.00  0.00     0.286 C 
ATOM     15  O   UNL d   1      58.255  49.680  52.701  0.00  0.00    -0.265 OA
BRANCH  14  16
ATOM     16  C   UNL d   1      58.872  49.607  53.983  0.00  0.00     0.087 A 
ATOM     17  S   UNL d   1      58.135  49.560  54.351  0.00  0.00    -0.082 SA
ATOM     18  C   UNL d   1      58.259  49.606  55.166  0.00  0.00     0.036 A 
ATOM     19  C   UNL d   1      59.069  49.682  55.306  0.00  0.00     0.008 A 
ATOM     20  C   UNL d   1      59.453  49.683  54.570  0.00  0.00     0.012 A 
ENDBRANCH  14  16
ENDBRANCH   1  13
BRANCH   2  21
ATOM     21  C   UNL d   1      61.104  49.128  52.048  0.00  0.00     0.035 A 
ATOM     22  S   UNL d   1      61.444  48.394  52.219  0.00  0.00    -0.086 SA
ATOM     23  C   UNL d   1      62.106  48.531  52.695  0.00  0.00     0.035 A 
ATOM     24  C   UNL d   1      62.177  49.349  52.820  0.00  0.00     0.007 A 
ATOM     25  C   UNL d   1      61.554  49.707  52.415  0.00  0.00     0.007 A 
ENDBRANCH   2  21
TORSDOF 3
ENDMDL
