MODEL 1
REMARK VINA RESULT:      -1.8      0.000      0.000
REMARK  7 active torsions:
REMARK  status: ('A' for Active; 'I' for Inactive)
REMARK    1  A    between atoms: C_16  and  N_3 
REMARK    2  A    between atoms: C_15  and  N_8 
REMARK    3  A    between atoms: C_12  and  C_10 
REMARK    4  A    between atoms: C_11  and  N_14 
REMARK    5  A    between atoms: O_22  and  C_12 
REMARK    6  A    between atoms: C_13  and  C_15 
REMARK       I    between atoms: N_14  and  C_13 
REMARK    7  A    between atoms: C_28  and  O_22 
ROOT
ATOM      1  C   UNL d   1      30.850  16.584 -24.079  0.00  0.00     0.191 A 
ATOM      2  C   UNL d   1      31.541  16.308 -24.453  0.00  0.00     0.196 A 
ATOM      3  N   UNL d   1      30.243  16.045 -24.252  0.00  0.00    -0.193 N 
ATOM      4  N   UNL d   1      30.559  15.455 -24.722  0.00  0.00    -0.058 NA
ATOM      5  N   UNL d   1      31.344  15.606 -24.849  0.00  0.00    -0.122 NA
ATOM      6  N   UNL d   1      30.873  17.273 -23.642  0.00  0.00    -0.204 NA
ATOM      7  C   UNL d   1      32.236  16.730 -24.380  0.00  0.00     0.289 A 
ATOM      8  N   UNL d   1      32.264  17.426 -23.940  0.00  0.00    -0.249 N 
ATOM      9  C   UNL d   1      31.573  17.701 -23.566  0.00  0.00     0.187 A 
ATOM     10  O   UNL d   1      32.927  16.455 -24.755  0.00  0.00    -0.265 OA
ENDROOT
BRANCH   8  11
ATOM     11  C   UNL d   1      32.968  17.861 -23.861  0.00  0.00     0.147 C 
BRANCH  11  12
ATOM     12  C   UNL d   1      32.999  18.659 -24.094  0.00  0.00     0.297 C 
ATOM     13  N   UNL d   1      33.138  19.239 -23.530  0.00  0.00    -0.207 NA
ATOM     14  O   UNL d   1      32.890  18.859 -24.887  0.00  0.00    -0.264 OA
BRANCH  13  15
ATOM     15  C   UNL d   1      33.170  20.034 -23.756  0.00  0.00     0.090 A 
ATOM     16  C   UNL d   1      33.171  20.615 -23.184  0.00  0.00     0.081 A 
ATOM     17  C   UNL d   1      33.203  21.410 -23.410  0.00  0.00     0.007 A 
ATOM     18  C   UNL d   1      33.234  21.611 -24.210  0.00  0.00     0.000 A 
ATOM     19  C   UNL d   1      33.233  21.031 -24.780  0.00  0.00     0.002 A 
ATOM     20  C   UNL d   1      33.202  20.243 -24.553  0.00  0.00     0.019 A 
BRANCH  16  21
ATOM     21  C   UNL d   1      33.139  20.415 -22.385  0.00  0.00     0.302 C 
ATOM     22  O   UNL d   1      33.241  19.627 -22.153  0.00  0.00    -0.259 OA
BRANCH  21  23
ATOM     23  O   UNL d   1      33.007  21.002 -21.818  0.00  0.00    -0.271 OA
BRANCH  23  24
ATOM     24  C   UNL d   1      33.130  20.843 -21.015  0.00  0.00     0.126 C 
ATOM     25  C   UNL d   1      33.152  21.458 -20.473  0.00  0.00     0.029 C 
ENDBRANCH  23  24
ENDBRANCH  21  23
ENDBRANCH  16  21
ENDBRANCH  13  15
ENDBRANCH  11  12
ENDBRANCH   8  11
BRANCH   3  26
ATOM     26  C   UNL d   1      29.469  16.060 -24.021  0.00  0.00     0.086 A 
ATOM     27  C   UNL d   1      28.888  16.411 -24.514  0.00  0.00     0.019 A 
ATOM     28  C   UNL d   1      28.113  16.423 -24.276  0.00  0.00     0.002 A 
ATOM     29  C   UNL d   1      27.887  16.087 -23.538  0.00  0.00     0.000 A 
ATOM     30  C   UNL d   1      28.456  15.749 -23.067  0.00  0.00     0.002 A 
ATOM     31  C   UNL d   1      27.078  16.098 -23.286  0.00  0.00     0.000 C 
ATOM     32  C   UNL d   1      29.246  15.731 -23.297  0.00  0.00     0.019 A 
ENDBRANCH   3  26
TORSDOF 7
ENDMDL
MODEL 2
REMARK VINA RESULT:      -0.8      1.922      5.939
REMARK  7 active torsions:
REMARK  status: ('A' for Active; 'I' for Inactive)
REMARK    1  A    between atoms: C_16  and  N_3 
REMARK    2  A    between atoms: C_15  and  N_8 
REMARK    3  A    between atoms: C_12  and  C_10 
REMARK    4  A    between atoms: C_11  and  N_14 
REMARK    5  A    between atoms: O_22  and  C_12 
REMARK    6  A    between atoms: C_13  and  C_15 
REMARK       I    between atoms: N_14  and  C_13 
REMARK    7  A    between atoms: C_28  and  O_22 
ROOT
ATOM      1  C   UNL d   1      32.976  21.569 -21.833  0.00  0.00     0.191 A 
ATOM      2  C   UNL d   1      32.964  21.687 -22.657  0.00  0.00     0.196 A 
ATOM      3  N   UNL d   1      32.890  22.313 -21.474  0.00  0.00    -0.193 N 
ATOM      4  N   UNL d   1      32.828  22.871 -22.069  0.00  0.00    -0.058 NA
ATOM      5  N   UNL d   1      32.872  22.501 -22.789  0.00  0.00    -0.122 NA
ATOM      6  N   UNL d   1      33.061  20.814 -21.533  0.00  0.00    -0.204 NA
ATOM      7  C   UNL d   1      33.037  21.048 -23.158  0.00  0.00     0.289 A 
ATOM      8  N   UNL d   1      33.123  20.284 -22.861  0.00  0.00    -0.249 N 
ATOM      9  C   UNL d   1      33.135  20.166 -22.037  0.00  0.00     0.187 A 
ATOM     10  O   UNL d   1      33.026  21.166 -23.983  0.00  0.00    -0.265 OA
ENDROOT
BRANCH   8  11
ATOM     11  C   UNL d   1      33.199  19.628 -23.365  0.00  0.00     0.147 C 
BRANCH  11  12
ATOM     12  C   UNL d   1      32.524  19.224 -23.635  0.00  0.00     0.297 C 
ATOM     13  N   UNL d   1      32.560  18.411 -23.751  0.00  0.00    -0.207 NA
ATOM     14  O   UNL d   1      31.828  19.641 -23.785  0.00  0.00    -0.264 OA
BRANCH  13  15
ATOM     15  C   UNL d   1      31.892  18.004 -24.020  0.00  0.00     0.090 A 
ATOM     16  C   UNL d   1      31.909  17.191 -24.065  0.00  0.00     0.081 A 
ATOM     17  C   UNL d   1      31.241  16.783 -24.334  0.00  0.00     0.007 A 
ATOM     18  C   UNL d   1      30.564  17.200 -24.555  0.00  0.00     0.000 A 
ATOM     19  C   UNL d   1      30.548  18.012 -24.509  0.00  0.00     0.002 A 
ATOM     20  C   UNL d   1      31.212  18.414 -24.242  0.00  0.00     0.019 A 
BRANCH  16  21
ATOM     21  C   UNL d   1      32.585  16.773 -23.845  0.00  0.00     0.302 C 
ATOM     22  O   UNL d   1      33.241  16.755 -24.350  0.00  0.00    -0.259 OA
BRANCH  21  23
ATOM     23  O   UNL d   1      32.606  16.374 -23.121  0.00  0.00    -0.271 OA
BRANCH  23  24
ATOM     24  C   UNL d   1      33.209  15.831 -22.960  0.00  0.00     0.126 C 
ATOM     25  C   UNL d   1      33.239  15.454 -22.233  0.00  0.00     0.029 C 
ENDBRANCH  23  24
ENDBRANCH  21  23
ENDBRANCH  16  21
ENDBRANCH  13  15
ENDBRANCH  11  12
ENDBRANCH   8  11
BRANCH   3  26
ATOM     26  C   UNL d   1      32.868  22.498 -20.689  0.00  0.00     0.086 A 
ATOM     27  C   UNL d   1      32.529  21.963 -20.139  0.00  0.00     0.019 A 
ATOM     28  C   UNL d   1      32.509  22.156 -19.351  0.00  0.00     0.002 A 
ATOM     29  C   UNL d   1      32.827  22.887 -19.081  0.00  0.00     0.000 A 
ATOM     30  C   UNL d   1      33.153  23.399 -19.621  0.00  0.00     0.002 A 
ATOM     31  C   UNL d   1      32.808  23.092 -18.259  0.00  0.00     0.000 C 
ATOM     32  C   UNL d   1      33.179  23.216 -20.422  0.00  0.00     0.019 A 
ENDBRANCH   3  26
TORSDOF 7
ENDMDL
MODEL 3
REMARK VINA RESULT:      -0.2      1.653      3.312
REMARK  7 active torsions:
REMARK  status: ('A' for Active; 'I' for Inactive)
REMARK    1  A    between atoms: C_16  and  N_3 
REMARK    2  A    between atoms: C_15  and  N_8 
REMARK    3  A    between atoms: C_12  and  C_10 
REMARK    4  A    between atoms: C_11  and  N_14 
REMARK    5  A    between atoms: O_22  and  C_12 
REMARK    6  A    between atoms: C_13  and  C_15 
REMARK       I    between atoms: N_14  and  C_13 
REMARK    7  A    between atoms: C_28  and  O_22 
ROOT
ATOM      1  C   UNL d   1      32.047  18.829 -23.713  0.00  0.00     0.191 A 
ATOM      2  C   UNL d   1      32.420  19.382 -24.211  0.00  0.00     0.196 A 
ATOM      3  N   UNL d   1      31.701  18.252 -24.199  0.00  0.00    -0.193 N 
ATOM      4  N   UNL d   1      31.861  18.452 -24.976  0.00  0.00    -0.058 NA
ATOM      5  N   UNL d   1      32.296  19.135 -24.993  0.00  0.00    -0.122 NA
ATOM      6  N   UNL d   1      32.076  18.928 -22.903  0.00  0.00    -0.204 NA
ATOM      7  C   UNL d   1      32.812  20.020 -23.885  0.00  0.00     0.289 A 
ATOM      8  N   UNL d   1      32.844  20.125 -23.068  0.00  0.00    -0.249 N 
ATOM      9  C   UNL d   1      32.470  19.571 -22.570  0.00  0.00     0.187 A 
ATOM     10  O   UNL d   1      33.185  20.573 -24.382  0.00  0.00    -0.265 OA
ENDROOT
BRANCH   8  11
ATOM     11  C   UNL d   1      33.240  20.771 -22.728  0.00  0.00     0.147 C 
BRANCH  11  12
ATOM     12  C   UNL d   1      33.163  20.933 -21.916  0.00  0.00     0.297 C 
ATOM     13  N   UNL d   1      33.093  21.712 -21.666  0.00  0.00    -0.207 NA
ATOM     14  O   UNL d   1      33.158  20.313 -21.372  0.00  0.00    -0.264 OA
BRANCH  13  15
ATOM     15  C   UNL d   1      33.015  21.881 -20.860  0.00  0.00     0.090 A 
ATOM     16  C   UNL d   1      32.777  22.624 -20.625  0.00  0.00     0.081 A 
ATOM     17  C   UNL d   1      32.700  22.792 -19.819  0.00  0.00     0.007 A 
ATOM     18  C   UNL d   1      32.864  22.209 -19.258  0.00  0.00     0.000 A 
ATOM     19  C   UNL d   1      33.103  21.468 -19.493  0.00  0.00     0.002 A 
ATOM     20  C   UNL d   1      33.178  21.304 -20.293  0.00  0.00     0.019 A 
BRANCH  16  21
ATOM     21  C   UNL d   1      32.612  23.206 -21.185  0.00  0.00     0.302 C 
ATOM     22  O   UNL d   1      33.232  23.571 -21.595  0.00  0.00    -0.259 OA
BRANCH  21  23
ATOM     23  O   UNL d   1      31.828  23.424 -21.335  0.00  0.00    -0.271 OA
BRANCH  23  24
ATOM     24  C   UNL d   1      31.602  23.675 -22.090  0.00  0.00     0.126 C 
ATOM     25  C   UNL d   1      30.808  23.702 -22.293  0.00  0.00     0.029 C 
ENDBRANCH  23  24
ENDBRANCH  21  23
ENDBRANCH  16  21
ENDBRANCH  13  15
ENDBRANCH  11  12
ENDBRANCH   8  11
BRANCH   3  26
ATOM     26  C   UNL d   1      31.276  17.598 -23.988  0.00  0.00     0.086 A 
ATOM     27  C   UNL d   1      30.484  17.507 -24.249  0.00  0.00     0.019 A 
ATOM     28  C   UNL d   1      30.064  16.849 -24.033  0.00  0.00     0.002 A 
ATOM     29  C   UNL d   1      30.416  16.255 -23.550  0.00  0.00     0.000 A 
ATOM     30  C   UNL d   1      31.183  16.351 -23.303  0.00  0.00     0.002 A 
ATOM     31  C   UNL d   1      29.979  15.565 -23.323  0.00  0.00     0.000 C 
ATOM     32  C   UNL d   1      31.620  17.015 -23.514  0.00  0.00     0.019 A 
ENDBRANCH   3  26
TORSDOF 7
ENDMDL
