MODEL 1
REMARK VINA RESULT:      -8.2      0.000      0.000
REMARK  6 active torsions:
REMARK  status: ('A' for Active; 'I' for Inactive)
REMARK    1  A    between atoms: C_5  and  C_4 
REMARK    2  A    between atoms: C_6  and  C_5 
REMARK       I    between atoms: N_9  and  C_6 
REMARK    3  A    between atoms: C_10  and  N_9 
REMARK    4  A    between atoms: O_14  and  C_13 
REMARK    5  A    between atoms: C_19  and  O_14 
REMARK    6  A    between atoms: C_20  and  C_19 
ROOT
ATOM      1  C   UNL d   1      51.181  34.395  52.820  0.00  0.00     0.281 C 
ATOM      2  N   UNL d   1      50.390  34.479  52.965  0.00  0.00    -0.206 NA
ATOM      3  O   UNL d   1      51.455  34.427  52.053  0.00  0.00    -0.265 OA
ENDROOT
BRANCH   1   4
ATOM      4  C   UNL d   1      51.689  34.281  53.443  0.00  0.00     0.086 C 
BRANCH   4   5
ATOM      5  C   UNL d   1      52.230  33.655  53.436  0.00  0.00     0.144 A 
ATOM      6  C   UNL d   1      53.015  33.780  53.660  0.00  0.00     0.297 A 
ATOM      7  N   UNL d   1      53.560  33.159  53.655  0.00  0.00    -0.205 NA
ATOM      8  O   UNL d   1      53.273  34.533  53.894  0.00  0.00    -0.264 OA
ATOM      9  C   UNL d   1      53.303  32.399  53.419  0.00  0.00     0.102 A 
ATOM     10  C   UNL d   1      52.518  32.274  53.196  0.00  0.00     0.099 A 
ATOM     11  C   UNL d   1      53.848  31.779  53.415  0.00  0.00     0.021 A 
ATOM     12  N   UNL d   1      51.976  32.907  53.204  0.00  0.00    -0.239 NA
ATOM     13  C   UNL d   1      52.264  31.527  52.964  0.00  0.00     0.021 A 
ATOM     14  C   UNL d   1      52.803  30.905  52.958  0.00  0.00     0.002 A 
ATOM     15  C   UNL d   1      53.589  31.030  53.181  0.00  0.00     0.002 A 
ENDBRANCH   4   5
ENDBRANCH   1   4
BRANCH   2  16
ATOM     16  C   UNL d   1      49.713  34.615  52.328  0.00  0.00     0.107 A 
ATOM     17  C   UNL d   1      49.035  35.089  52.415  0.00  0.00     0.118 A 
ATOM     18  C   UNL d   1      48.521  35.118  51.772  0.00  0.00     0.026 A 
ATOM     19  C   UNL d   1      48.674  34.684  51.049  0.00  0.00     0.002 A 
ATOM     20  C   UNL d   1      49.334  34.242  51.005  0.00  0.00     0.002 A 
ATOM     21  C   UNL d   1      49.860  34.198  51.633  0.00  0.00     0.021 A 
BRANCH  17  22
ATOM     22  O   UNL d   1      48.865  35.521  53.111  0.00  0.00    -0.304 OA
BRANCH  22  23
ATOM     23  C   UNL d   1      48.121  35.882  53.203  0.00  0.00     0.123 C 
BRANCH  23  24
ATOM     24  C   UNL d   1      47.968  36.428  53.841  0.00  0.00     0.027 C 
ATOM     25  C   UNL d   1      47.236  36.444  54.254  0.00  0.00     0.002 C 
ENDBRANCH  23  24
ENDBRANCH  22  23
ENDBRANCH  17  22
ENDBRANCH   2  16
TORSDOF 6
ENDMDL
MODEL 2
REMARK VINA RESULT:      -8.0      1.195      5.327
REMARK  6 active torsions:
REMARK  status: ('A' for Active; 'I' for Inactive)
REMARK    1  A    between atoms: C_5  and  C_4 
REMARK    2  A    between atoms: C_6  and  C_5 
REMARK       I    between atoms: N_9  and  C_6 
REMARK    3  A    between atoms: C_10  and  N_9 
REMARK    4  A    between atoms: O_14  and  C_13 
REMARK    5  A    between atoms: C_19  and  O_14 
REMARK    6  A    between atoms: C_20  and  C_19 
ROOT
ATOM      1  C   UNL d   1      50.457  34.157  52.637  0.00  0.00     0.281 C 
ATOM      2  N   UNL d   1      51.234  34.114  52.419  0.00  0.00    -0.206 NA
ATOM      3  O   UNL d   1      50.263  34.205  53.427  0.00  0.00    -0.265 OA
ENDROOT
BRANCH   1   4
ATOM      4  C   UNL d   1      49.882  34.151  52.063  0.00  0.00     0.086 C 
BRANCH   4   5
ATOM      5  C   UNL d   1      49.250  34.684  52.095  0.00  0.00     0.144 A 
ATOM      6  C   UNL d   1      48.782  34.815  51.427  0.00  0.00     0.297 A 
ATOM      7  N   UNL d   1      48.149  35.346  51.453  0.00  0.00    -0.205 NA
ATOM      8  O   UNL d   1      48.938  34.417  50.716  0.00  0.00    -0.264 OA
ATOM      9  C   UNL d   1      47.989  35.749  52.167  0.00  0.00     0.102 A 
ATOM     10  C   UNL d   1      48.457  35.617  52.835  0.00  0.00     0.099 A 
ATOM     11  C   UNL d   1      47.356  36.278  52.192  0.00  0.00     0.021 A 
ATOM     12  N   UNL d   1      49.093  35.080  52.799  0.00  0.00    -0.239 NA
ATOM     13  C   UNL d   1      48.300  36.013  53.539  0.00  0.00     0.021 A 
ATOM     14  C   UNL d   1      47.671  36.542  53.568  0.00  0.00     0.002 A 
ATOM     15  C   UNL d   1      47.203  36.673  52.900  0.00  0.00     0.002 A 
ENDBRANCH   4   5
ENDBRANCH   1   4
BRANCH   2  16
ATOM     16  C   UNL d   1      51.980  34.113  52.991  0.00  0.00     0.107 A 
ATOM     17  C   UNL d   1      52.466  33.463  53.175  0.00  0.00     0.118 A 
ATOM     18  C   UNL d   1      53.089  33.605  53.695  0.00  0.00     0.026 A 
ATOM     19  C   UNL d   1      53.231  34.380  54.030  0.00  0.00     0.002 A 
ATOM     20  C   UNL d   1      52.744  34.976  53.830  0.00  0.00     0.002 A 
ATOM     21  C   UNL d   1      52.117  34.858  53.314  0.00  0.00     0.021 A 
BRANCH  17  22
ATOM     22  O   UNL d   1      52.345  32.698  52.859  0.00  0.00    -0.304 OA
BRANCH  22  23
ATOM     23  C   UNL d   1      52.837  32.070  53.095  0.00  0.00     0.123 C 
BRANCH  23  24
ATOM     24  C   UNL d   1      52.695  31.271  52.833  0.00  0.00     0.027 C 
ATOM     25  C   UNL d   1      53.091  30.609  53.167  0.00  0.00     0.002 C 
ENDBRANCH  23  24
ENDBRANCH  22  23
ENDBRANCH  17  22
ENDBRANCH   2  16
TORSDOF 6
ENDMDL
MODEL 3
REMARK VINA RESULT:      -7.8      1.675      3.611
REMARK  6 active torsions:
REMARK  status: ('A' for Active; 'I' for Inactive)
REMARK    1  A    between atoms: C_5  and  C_4 
REMARK    2  A    between atoms: C_6  and  C_5 
REMARK       I    between atoms: N_9  and  C_6 
REMARK    3  A    between atoms: C_10  and  N_9 
REMARK    4  A    between atoms: O_14  and  C_13 
REMARK    5  A    between atoms: C_19  and  O_14 
REMARK    6  A    between atoms: C_20  and  C_19 
ROOT
ATOM      1  C   UNL d   1      53.659  32.638  53.717  0.00  0.00     0.281 C 
ATOM      2  N   UNL d   1      53.449  33.338  53.373  0.00  0.00    -0.206 NA
ATOM      3  O   UNL d   1      53.639  32.566  54.529  0.00  0.00    -0.265 OA
ENDROOT
BRANCH   1   4
ATOM      4  C   UNL d   1      53.885  32.015  53.247  0.00  0.00     0.086 C 
BRANCH   4   5
ATOM      5  C   UNL d   1      53.564  31.262  53.361  0.00  0.00     0.144 A 
ATOM      6  C   UNL d   1      53.015  30.958  52.824  0.00  0.00     0.297 A 
ATOM      7  N   UNL d   1      52.690  30.205  52.933  0.00  0.00    -0.205 NA
ATOM      8  O   UNL d   1      52.777  31.401  52.165  0.00  0.00    -0.264 OA
ATOM      9  C   UNL d   1      52.927  29.756  53.596  0.00  0.00     0.102 A 
ATOM     10  C   UNL d   1      53.476  30.060  54.133  0.00  0.00     0.099 A 
ATOM     11  C   UNL d   1      52.602  29.004  53.704  0.00  0.00     0.021 A 
ATOM     12  N   UNL d   1      53.798  30.819  54.015  0.00  0.00    -0.239 NA
ATOM     13  C   UNL d   1      53.710  29.618  54.786  0.00  0.00     0.021 A 
ATOM     14  C   UNL d   1      53.389  28.869  54.898  0.00  0.00     0.002 A 
ATOM     15  C   UNL d   1      52.840  28.565  54.361  0.00  0.00     0.002 A 
ENDBRANCH   4   5
ENDBRANCH   1   4
BRANCH   2  16
ATOM     16  C   UNL d   1      53.172  34.121  53.814  0.00  0.00     0.107 A 
ATOM     17  C   UNL d   1      52.502  34.581  53.638  0.00  0.00     0.118 A 
ATOM     18  C   UNL d   1      52.378  35.246  54.108  0.00  0.00     0.026 A 
ATOM     19  C   UNL d   1      52.910  35.454  54.746  0.00  0.00     0.002 A 
ATOM     20  C   UNL d   1      53.540  34.988  54.884  0.00  0.00     0.002 A 
ATOM     21  C   UNL d   1      53.683  34.321  54.428  0.00  0.00     0.021 A 
BRANCH  17  22
ATOM     22  O   UNL d   1      51.970  34.396  53.020  0.00  0.00    -0.304 OA
BRANCH  22  23
ATOM     23  C   UNL d   1      51.158  34.555  53.110  0.00  0.00     0.123 C 
BRANCH  23  24
ATOM     24  C   UNL d   1      50.582  34.258  52.556  0.00  0.00     0.027 C 
ATOM     25  C   UNL d   1      49.788  34.535  52.538  0.00  0.00     0.002 C 
ENDBRANCH  23  24
ENDBRANCH  22  23
ENDBRANCH  17  22
ENDBRANCH   2  16
TORSDOF 6
ENDMDL
MODEL 4
REMARK VINA RESULT:      -7.8      2.434      4.170
REMARK  6 active torsions:
REMARK  status: ('A' for Active; 'I' for Inactive)
REMARK    1  A    between atoms: C_5  and  C_4 
REMARK    2  A    between atoms: C_6  and  C_5 
REMARK       I    between atoms: N_9  and  C_6 
REMARK    3  A    between atoms: C_10  and  N_9 
REMARK    4  A    between atoms: O_14  and  C_13 
REMARK    5  A    between atoms: C_19  and  O_14 
REMARK    6  A    between atoms: C_20  and  C_19 
ROOT
ATOM      1  C   UNL d   1      52.564  31.925  52.866  0.00  0.00     0.281 C 
ATOM      2  N   UNL d   1      52.932  32.639  52.782  0.00  0.00    -0.206 NA
ATOM      3  O   UNL d   1      51.832  31.888  53.223  0.00  0.00    -0.265 OA
ENDROOT
BRANCH   1   4
ATOM      4  C   UNL d   1      52.931  31.254  52.593  0.00  0.00     0.086 C 
BRANCH   4   5
ATOM      5  C   UNL d   1      53.002  30.586  53.075  0.00  0.00     0.144 A 
ATOM      6  C   UNL d   1      52.915  29.829  52.754  0.00  0.00     0.297 A 
ATOM      7  N   UNL d   1      52.984  29.158  53.231  0.00  0.00    -0.205 NA
ATOM      8  O   UNL d   1      52.756  29.728  51.946  0.00  0.00    -0.264 OA
ATOM      9  C   UNL d   1      53.143  29.256  54.045  0.00  0.00     0.102 A 
ATOM     10  C   UNL d   1      53.230  30.012  54.366  0.00  0.00     0.099 A 
ATOM     11  C   UNL d   1      53.212  28.584  54.521  0.00  0.00     0.021 A 
ATOM     12  N   UNL d   1      53.159  30.683  53.877  0.00  0.00    -0.239 NA
ATOM     13  C   UNL d   1      53.388  30.110  55.167  0.00  0.00     0.021 A 
ATOM     14  C   UNL d   1      53.457  29.444  55.645  0.00  0.00     0.002 A 
ATOM     15  C   UNL d   1      53.370  28.688  55.324  0.00  0.00     0.002 A 
ENDBRANCH   4   5
ENDBRANCH   1   4
BRANCH   2  16
ATOM     16  C   UNL d   1      52.604  33.476  53.059  0.00  0.00     0.107 A 
ATOM     17  C   UNL d   1      52.978  34.012  53.574  0.00  0.00     0.118 A 
ATOM     18  C   UNL d   1      52.576  34.713  53.731  0.00  0.00     0.026 A 
ATOM     19  C   UNL d   1      51.812  34.885  53.383  0.00  0.00     0.002 A 
ATOM     20  C   UNL d   1      51.487  34.347  52.895  0.00  0.00     0.002 A 
ATOM     21  C   UNL d   1      51.870  33.641  52.724  0.00  0.00     0.021 A 
BRANCH  17  22
ATOM     22  O   UNL d   1      53.723  33.865  53.925  0.00  0.00    -0.304 OA
BRANCH  22  23
ATOM     23  C   UNL d   1      53.878  34.135  54.696  0.00  0.00     0.123 C 
BRANCH  23  24
ATOM     24  C   UNL d   1      54.651  34.053  55.049  0.00  0.00     0.027 C 
ATOM     25  C   UNL d   1      54.820  33.470  55.632  0.00  0.00     0.002 C 
ENDBRANCH  23  24
ENDBRANCH  22  23
ENDBRANCH  17  22
ENDBRANCH   2  16
TORSDOF 6
ENDMDL
MODEL 5
REMARK VINA RESULT:      -7.6      1.196      4.994
REMARK  6 active torsions:
REMARK  status: ('A' for Active; 'I' for Inactive)
REMARK    1  A    between atoms: C_5  and  C_4 
REMARK    2  A    between atoms: C_6  and  C_5 
REMARK       I    between atoms: N_9  and  C_6 
REMARK    3  A    between atoms: C_10  and  N_9 
REMARK    4  A    between atoms: O_14  and  C_13 
REMARK    5  A    between atoms: C_19  and  O_14 
REMARK    6  A    between atoms: C_20  and  C_19 
ROOT
ATOM      1  C   UNL d   1      51.750  33.513  52.970  0.00  0.00     0.281 C 
ATOM      2  N   UNL d   1      52.513  33.255  52.920  0.00  0.00    -0.206 NA
ATOM      3  O   UNL d   1      51.180  33.026  53.290  0.00  0.00    -0.265 OA
ENDROOT
BRANCH   1   4
ATOM      4  C   UNL d   1      51.562  34.257  52.700  0.00  0.00     0.086 C 
BRANCH   4   5
ATOM      5  C   UNL d   1      50.781  34.453  52.514  0.00  0.00     0.144 A 
ATOM      6  C   UNL d   1      50.312  34.857  53.061  0.00  0.00     0.297 A 
ATOM      7  N   UNL d   1      49.530  35.056  52.882  0.00  0.00    -0.205 NA
ATOM      8  O   UNL d   1      50.616  35.071  53.803  0.00  0.00    -0.264 OA
ATOM      9  C   UNL d   1      49.220  34.841  52.136  0.00  0.00     0.102 A 
ATOM     10  C   UNL d   1      49.689  34.437  51.589  0.00  0.00     0.099 A 
ATOM     11  C   UNL d   1      48.439  35.040  51.957  0.00  0.00     0.021 A 
ATOM     12  N   UNL d   1      50.476  34.241  51.779  0.00  0.00    -0.239 NA
ATOM     13  C   UNL d   1      49.385  34.225  50.855  0.00  0.00     0.021 A 
ATOM     14  C   UNL d   1      48.608  34.421  50.672  0.00  0.00     0.002 A 
ATOM     15  C   UNL d   1      48.138  34.825  51.219  0.00  0.00     0.002 A 
ENDBRANCH   4   5
ENDBRANCH   1   4
BRANCH   2  16
ATOM     16  C   UNL d   1      52.844  32.420  53.198  0.00  0.00     0.107 A 
ATOM     17  C   UNL d   1      53.362  32.276  53.833  0.00  0.00     0.118 A 
ATOM     18  C   UNL d   1      53.572  31.491  53.966  0.00  0.00     0.026 A 
ATOM     19  C   UNL d   1      53.274  30.853  53.477  0.00  0.00     0.002 A 
ATOM     20  C   UNL d   1      52.781  31.032  52.879  0.00  0.00     0.002 A 
ATOM     21  C   UNL d   1      52.558  31.807  52.728  0.00  0.00     0.021 A 
BRANCH  17  22
ATOM     22  O   UNL d   1      53.665  32.882  54.323  0.00  0.00    -0.304 OA
BRANCH  22  23
ATOM     23  C   UNL d   1      54.409  32.791  54.683  0.00  0.00     0.123 C 
BRANCH  23  24
ATOM     24  C   UNL d   1      54.676  33.323  55.294  0.00  0.00     0.027 C 
ATOM     25  C   UNL d   1      55.302  33.871  55.174  0.00  0.00     0.002 C 
ENDBRANCH  23  24
ENDBRANCH  22  23
ENDBRANCH  17  22
ENDBRANCH   2  16
TORSDOF 6
ENDMDL
MODEL 6
REMARK VINA RESULT:      -7.3      1.233      5.149
REMARK  6 active torsions:
REMARK  status: ('A' for Active; 'I' for Inactive)
REMARK    1  A    between atoms: C_5  and  C_4 
REMARK    2  A    between atoms: C_6  and  C_5 
REMARK       I    between atoms: N_9  and  C_6 
REMARK    3  A    between atoms: C_10  and  N_9 
REMARK    4  A    between atoms: O_14  and  C_13 
REMARK    5  A    between atoms: C_19  and  O_14 
REMARK    6  A    between atoms: C_20  and  C_19 
ROOT
ATOM      1  C   UNL d   1      52.522  34.279  53.420  0.00  0.00     0.281 C 
ATOM      2  N   UNL d   1      53.178  33.810  53.379  0.00  0.00    -0.206 NA
ATOM      3  O   UNL d   1      52.147  34.386  54.136  0.00  0.00    -0.265 OA
ENDROOT
BRANCH   1   4
ATOM      4  C   UNL d   1      52.247  34.638  52.745  0.00  0.00     0.086 C 
BRANCH   4   5
ATOM      5  C   UNL d   1      51.444  34.611  52.550  0.00  0.00     0.144 A 
ATOM      6  C   UNL d   1      51.196  34.242  51.854  0.00  0.00     0.297 A 
ATOM      7  N   UNL d   1      50.395  34.211  51.654  0.00  0.00    -0.205 NA
ATOM      8  O   UNL d   1      51.748  33.894  51.340  0.00  0.00    -0.264 OA
ATOM      9  C   UNL d   1      49.837  34.560  52.169  0.00  0.00     0.102 A 
ATOM     10  C   UNL d   1      50.085  34.929  52.865  0.00  0.00     0.099 A 
ATOM     11  C   UNL d   1      49.037  34.528  51.969  0.00  0.00     0.021 A 
ATOM     12  N   UNL d   1      50.895  34.955  53.058  0.00  0.00    -0.239 NA
ATOM     13  C   UNL d   1      49.536  35.272  53.373  0.00  0.00     0.021 A 
ATOM     14  C   UNL d   1      48.738  35.244  53.178  0.00  0.00     0.002 A 
ATOM     15  C   UNL d   1      48.490  34.875  52.481  0.00  0.00     0.002 A 
ENDBRANCH   4   5
ENDBRANCH   1   4
BRANCH   2  16
ATOM     16  C   UNL d   1      53.584  33.347  54.090  0.00  0.00     0.107 A 
ATOM     17  C   UNL d   1      53.606  32.523  54.200  0.00  0.00     0.118 A 
ATOM     18  C   UNL d   1      53.998  32.251  54.871  0.00  0.00     0.026 A 
ATOM     19  C   UNL d   1      54.365  32.788  55.429  0.00  0.00     0.002 A 
ATOM     20  C   UNL d   1      54.323  33.570  55.289  0.00  0.00     0.002 A 
ATOM     21  C   UNL d   1      53.937  33.863  54.626  0.00  0.00     0.021 A 
BRANCH  17  22
ATOM     22  O   UNL d   1      53.255  31.981  53.668  0.00  0.00    -0.304 OA
BRANCH  22  23
ATOM     23  C   UNL d   1      53.447  31.173  53.713  0.00  0.00     0.123 C 
BRANCH  23  24
ATOM     24  C   UNL d   1      53.129  30.609  53.158  0.00  0.00     0.027 C 
ATOM     25  C   UNL d   1      53.023  29.797  53.351  0.00  0.00     0.002 C 
ENDBRANCH  23  24
ENDBRANCH  22  23
ENDBRANCH  17  22
ENDBRANCH   2  16
TORSDOF 6
ENDMDL
MODEL 7
REMARK VINA RESULT:      -6.8      3.048      5.395
REMARK  6 active torsions:
REMARK  status: ('A' for Active; 'I' for Inactive)
REMARK    1  A    between atoms: C_5  and  C_4 
REMARK    2  A    between atoms: C_6  and  C_5 
REMARK       I    between atoms: N_9  and  C_6 
REMARK    3  A    between atoms: C_10  and  N_9 
REMARK    4  A    between atoms: O_14  and  C_13 
REMARK    5  A    between atoms: C_19  and  O_14 
REMARK    6  A    between atoms: C_20  and  C_19 
ROOT
ATOM      1  C   UNL d   1      54.127  32.049  54.059  0.00  0.00     0.281 C 
ATOM      2  N   UNL d   1      53.616  31.443  54.216  0.00  0.00    -0.206 NA
ATOM      3  O   UNL d   1      54.438  32.130  53.309  0.00  0.00    -0.265 OA
ENDROOT
BRANCH   1   4
ATOM      4  C   UNL d   1      54.325  32.567  54.653  0.00  0.00     0.086 C 
BRANCH   4   5
ATOM      5  C   UNL d   1      54.038  33.342  54.648  0.00  0.00     0.144 A 
ATOM      6  C   UNL d   1      54.438  33.937  55.059  0.00  0.00     0.297 A 
ATOM      7  N   UNL d   1      54.158  34.714  55.057  0.00  0.00    -0.205 NA
ATOM      8  O   UNL d   1      55.131  33.766  55.482  0.00  0.00    -0.264 OA
ATOM      9  C   UNL d   1      53.460  34.890  54.632  0.00  0.00     0.102 A 
ATOM     10  C   UNL d   1      53.060  34.295  54.221  0.00  0.00     0.099 A 
ATOM     11  C   UNL d   1      53.180  35.667  54.631  0.00  0.00     0.021 A 
ATOM     12  N   UNL d   1      53.351  33.515  54.228  0.00  0.00    -0.239 NA
ATOM     13  C   UNL d   1      52.373  34.467  53.802  0.00  0.00     0.021 A 
ATOM     14  C   UNL d   1      52.090  35.240  53.798  0.00  0.00     0.002 A 
ATOM     15  C   UNL d   1      52.490  35.834  54.209  0.00  0.00     0.002 A 
ENDBRANCH   4   5
ENDBRANCH   1   4
BRANCH   2  16
ATOM     16  C   UNL d   1      53.318  30.788  53.611  0.00  0.00     0.107 A 
ATOM     17  C   UNL d   1      53.300  29.966  53.736  0.00  0.00     0.118 A 
ATOM     18  C   UNL d   1      53.012  29.505  53.117  0.00  0.00     0.026 A 
ATOM     19  C   UNL d   1      52.745  29.852  52.381  0.00  0.00     0.002 A 
ATOM     20  C   UNL d   1      52.778  30.643  52.299  0.00  0.00     0.002 A 
ATOM     21  C   UNL d   1      53.061  31.122  52.903  0.00  0.00     0.021 A 
BRANCH  17  22
ATOM     22  O   UNL d   1      53.555  29.606  54.446  0.00  0.00    -0.304 OA
BRANCH  22  23
ATOM     23  C   UNL d   1      53.229  28.878  54.683  0.00  0.00     0.123 C 
BRANCH  23  24
ATOM     24  C   UNL d   1      53.560  28.432  55.330  0.00  0.00     0.027 C 
ATOM     25  C   UNL d   1      53.246  28.467  56.110  0.00  0.00     0.002 C 
ENDBRANCH  23  24
ENDBRANCH  22  23
ENDBRANCH  17  22
ENDBRANCH   2  16
TORSDOF 6
ENDMDL
MODEL 8
REMARK VINA RESULT:      -6.0      1.560      2.698
REMARK  6 active torsions:
REMARK  status: ('A' for Active; 'I' for Inactive)
REMARK    1  A    between atoms: C_5  and  C_4 
REMARK    2  A    between atoms: C_6  and  C_5 
REMARK       I    between atoms: N_9  and  C_6 
REMARK    3  A    between atoms: C_10  and  N_9 
REMARK    4  A    between atoms: O_14  and  C_13 
REMARK    5  A    between atoms: C_19  and  O_14 
REMARK    6  A    between atoms: C_20  and  C_19 
ROOT
ATOM      1  C   UNL d   1      49.564  34.807  52.950  0.00  0.00     0.281 C 
ATOM      2  N   UNL d   1      48.953  35.168  52.563  0.00  0.00    -0.206 NA
ATOM      3  O   UNL d   1      49.646  34.907  53.755  0.00  0.00    -0.265 OA
ENDROOT
BRANCH   1   4
ATOM      4  C   UNL d   1      50.086  34.349  52.529  0.00  0.00     0.086 C 
BRANCH   4   5
ATOM      5  C   UNL d   1      50.803  34.110  52.866  0.00  0.00     0.144 A 
ATOM      6  C   UNL d   1      50.937  33.314  53.038  0.00  0.00     0.297 A 
ATOM      7  N   UNL d   1      51.651  33.068  53.374  0.00  0.00    -0.205 NA
ATOM      8  O   UNL d   1      50.358  32.742  52.876  0.00  0.00    -0.264 OA
ATOM      9  C   UNL d   1      52.237  33.642  53.538  0.00  0.00     0.102 A 
ATOM     10  C   UNL d   1      52.103  34.438  53.366  0.00  0.00     0.099 A 
ATOM     11  C   UNL d   1      52.951  33.396  53.874  0.00  0.00     0.021 A 
ATOM     12  N   UNL d   1      51.380  34.675  53.027  0.00  0.00    -0.239 NA
ATOM     13  C   UNL d   1      52.679  35.003  53.527  0.00  0.00     0.021 A 
ATOM     14  C   UNL d   1      53.391  34.763  53.862  0.00  0.00     0.002 A 
ATOM     15  C   UNL d   1      53.526  33.966  54.034  0.00  0.00     0.002 A 
ENDBRANCH   4   5
ENDBRANCH   1   4
BRANCH   2  16
ATOM     16  C   UNL d   1      48.292  35.717  52.944  0.00  0.00     0.107 A 
ATOM     17  C   UNL d   1      47.551  35.906  52.616  0.00  0.00     0.118 A 
ATOM     18  C   UNL d   1      47.067  36.401  53.061  0.00  0.00     0.026 A 
ATOM     19  C   UNL d   1      47.312  36.709  53.822  0.00  0.00     0.002 A 
ATOM     20  C   UNL d   1      48.028  36.506  54.102  0.00  0.00     0.002 A 
ATOM     21  C   UNL d   1      48.527  36.013  53.676  0.00  0.00     0.021 A 
BRANCH  17  22
ATOM     22  O   UNL d   1      47.292  35.616  51.875  0.00  0.00    -0.304 OA
BRANCH  22  23
ATOM     23  C   UNL d   1      46.545  35.836  51.583  0.00  0.00     0.123 C 
BRANCH  23  24
ATOM     24  C   UNL d   1      46.167  35.400  50.954  0.00  0.00     0.027 C 
ATOM     25  C   UNL d   1      45.399  35.591  50.672  0.00  0.00     0.002 C 
ENDBRANCH  23  24
ENDBRANCH  22  23
ENDBRANCH  17  22
ENDBRANCH   2  16
TORSDOF 6
ENDMDL
