MODEL 1
REMARK VINA RESULT:      -2.1      0.000      0.000
REMARK  4 active torsions:
REMARK  status: ('A' for Active; 'I' for Inactive)
REMARK    1  A    between atoms: C_2  and  S_1 
REMARK    2  A    between atoms: N_5  and  S_1 
REMARK    3  A    between atoms: C_13  and  N_5 
REMARK    4  A    between atoms: C_11  and  C_13 
ROOT
ATOM      1  C   UNL d   1      31.382  16.890 -24.190  0.00  0.00     0.105 A 
ATOM      2  C   UNL d   1      31.639  17.572 -24.562  0.00  0.00     0.012 A 
ATOM      3  C   UNL d   1      31.908  16.456 -23.724  0.00  0.00     0.012 A 
ATOM      4  C   UNL d   1      32.690  16.708 -23.632  0.00  0.00     0.001 A 
ATOM      5  C   UNL d   1      32.416  17.830 -24.475  0.00  0.00     0.001 A 
ATOM      6  C   UNL d   1      32.946  17.398 -24.009  0.00  0.00     0.000 A 
ATOM      7  C   UNL d   1      31.115  18.006 -25.027  0.00  0.00     0.001 C 
ATOM      8  C   UNL d   1      31.648  15.766 -23.348  0.00  0.00     0.001 C 
ATOM      9  C   UNL d   1      32.677  18.517 -24.849  0.00  0.00     0.000 C 
ATOM     10  C   UNL d   1      33.215  16.275 -23.167  0.00  0.00     0.000 C 
ENDROOT
BRANCH   1  11
ATOM     11  S   UNL d   1      30.604  16.642 -24.284  0.00  0.00     0.285 S 
ATOM     12  O   UNL d   1      30.384  17.117 -23.638  0.00  0.00    -0.198 OA
ATOM     13  O   UNL d   1      30.827  16.179 -24.915  0.00  0.00    -0.198 OA
BRANCH  11  14
ATOM     14  N   UNL d   1      29.821  16.402 -24.367  0.00  0.00    -0.155 NA
BRANCH  14  15
ATOM     15  C   UNL d   1      29.318  16.394 -23.714  0.00  0.00     0.137 C 
BRANCH  15  16
ATOM     16  C   UNL d   1      28.576  16.047 -23.778  0.00  0.00     0.120 A 
ATOM     17  O   UNL d   1      28.151  15.496 -24.216  0.00  0.00    -0.304 OA
ATOM     18  C   UNL d   1      27.383  15.462 -23.912  0.00  0.00     0.123 A 
ATOM     19  C   UNL d   1      27.334  15.994 -23.284  0.00  0.00     0.029 A 
ATOM     20  C   UNL d   1      28.072  16.356 -23.201  0.00  0.00     0.028 A 
ENDBRANCH  15  16
ENDBRANCH  14  15
ENDBRANCH  11  14
ENDBRANCH   1  11
TORSDOF 4
ENDMDL
MODEL 2
REMARK VINA RESULT:      -0.6      4.587      5.922
REMARK  4 active torsions:
REMARK  status: ('A' for Active; 'I' for Inactive)
REMARK    1  A    between atoms: C_2  and  S_1 
REMARK    2  A    between atoms: N_5  and  S_1 
REMARK    3  A    between atoms: C_13  and  N_5 
REMARK    4  A    between atoms: C_11  and  C_13 
ROOT
ATOM      1  C   UNL d   1      32.789  21.710 -21.671  0.00  0.00     0.105 A 
ATOM      2  C   UNL d   1      32.491  21.899 -20.932  0.00  0.00     0.012 A 
ATOM      3  C   UNL d   1      32.936  22.312 -22.217  0.00  0.00     0.012 A 
ATOM      4  C   UNL d   1      32.784  23.101 -22.020  0.00  0.00     0.001 A 
ATOM      5  C   UNL d   1      32.336  22.682 -20.729  0.00  0.00     0.001 A 
ATOM      6  C   UNL d   1      32.482  23.287 -21.274  0.00  0.00     0.000 A 
ATOM      7  C   UNL d   1      32.343  21.299 -20.387  0.00  0.00     0.001 C 
ATOM      8  C   UNL d   1      33.238  22.122 -22.963  0.00  0.00     0.001 C 
ATOM      9  C   UNL d   1      32.035  22.872 -19.986  0.00  0.00     0.000 C 
ATOM     10  C   UNL d   1      32.931  23.701 -22.566  0.00  0.00     0.000 C 
ENDROOT
BRANCH   1  11
ATOM     11  S   UNL d   1      32.940  20.925 -21.862  0.00  0.00     0.285 S 
ATOM     12  O   UNL d   1      33.181  20.789 -21.079  0.00  0.00    -0.198 OA
ATOM     13  O   UNL d   1      32.702  21.067 -22.628  0.00  0.00    -0.198 OA
BRANCH  11  14
ATOM     14  N   UNL d   1      33.094  20.137 -22.042  0.00  0.00    -0.155 NA
BRANCH  14  15
ATOM     15  C   UNL d   1      32.808  19.808 -22.741  0.00  0.00     0.137 C 
BRANCH  15  16
ATOM     16  C   UNL d   1      32.844  18.994 -22.851  0.00  0.00     0.120 A 
ATOM     17  O   UNL d   1      33.144  18.305 -22.516  0.00  0.00    -0.304 OA
ATOM     18  C   UNL d   1      32.925  17.670 -22.997  0.00  0.00     0.123 A 
ATOM     19  C   UNL d   1      32.488  17.966 -23.630  0.00  0.00     0.029 A 
ATOM     20  C   UNL d   1      32.438  18.787 -23.540  0.00  0.00     0.028 A 
ENDBRANCH  15  16
ENDBRANCH  14  15
ENDBRANCH  11  14
ENDBRANCH   1  11
TORSDOF 4
ENDMDL
MODEL 3
REMARK VINA RESULT:       0.1      1.576      2.475
REMARK  4 active torsions:
REMARK  status: ('A' for Active; 'I' for Inactive)
REMARK    1  A    between atoms: C_2  and  S_1 
REMARK    2  A    between atoms: N_5  and  S_1 
REMARK    3  A    between atoms: C_13  and  N_5 
REMARK    4  A    between atoms: C_11  and  C_13 
ROOT
ATOM      1  C   UNL d   1      32.449  18.369 -23.632  0.00  0.00     0.105 A 
ATOM      2  C   UNL d   1      32.638  18.745 -22.930  0.00  0.00     0.012 A 
ATOM      3  C   UNL d   1      32.650  18.721 -24.351  0.00  0.00     0.012 A 
ATOM      4  C   UNL d   1      33.040  19.450 -24.364  0.00  0.00     0.001 A 
ATOM      5  C   UNL d   1      33.026  19.471 -22.935  0.00  0.00     0.001 A 
ATOM      6  C   UNL d   1      33.229  19.827 -23.653  0.00  0.00     0.000 A 
ATOM      7  C   UNL d   1      32.438  18.394 -22.212  0.00  0.00     0.001 C 
ATOM      8  C   UNL d   1      32.459  18.340 -25.060  0.00  0.00     0.001 C 
ATOM      9  C   UNL d   1      33.217  19.852 -22.228  0.00  0.00     0.000 C 
ATOM     10  C   UNL d   1      33.240  19.802 -25.082  0.00  0.00     0.000 C 
ENDROOT
BRANCH   1  11
ATOM     11  S   UNL d   1      32.062  17.644 -23.615  0.00  0.00     0.285 S 
ATOM     12  O   UNL d   1      32.791  17.260 -23.721  0.00  0.00    -0.198 OA
ATOM     13  O   UNL d   1      31.351  18.026 -23.511  0.00  0.00    -0.198 OA
BRANCH  11  14
ATOM     14  N   UNL d   1      31.685  16.912 -23.600  0.00  0.00    -0.155 NA
BRANCH  14  15
ATOM     15  C   UNL d   1      31.046  16.765 -24.098  0.00  0.00     0.137 C 
BRANCH  15  16
ATOM     16  C   UNL d   1      30.410  16.322 -23.822  0.00  0.00     0.120 A 
ATOM     17  O   UNL d   1      30.213  15.732 -23.285  0.00  0.00    -0.304 OA
ATOM     18  C   UNL d   1      29.402  15.586 -23.350  0.00  0.00     0.123 A 
ATOM     19  C   UNL d   1      29.097  16.088 -23.929  0.00  0.00     0.029 A 
ATOM     20  C   UNL d   1      29.721  16.544 -24.222  0.00  0.00     0.028 A 
ENDBRANCH  15  16
ENDBRANCH  14  15
ENDBRANCH  11  14
ENDBRANCH   1  11
TORSDOF 4
ENDMDL
MODEL 4
REMARK VINA RESULT:       0.4      3.225      4.590
REMARK  4 active torsions:
REMARK  status: ('A' for Active; 'I' for Inactive)
REMARK    1  A    between atoms: C_2  and  S_1 
REMARK    2  A    between atoms: N_5  and  S_1 
REMARK    3  A    between atoms: C_13  and  N_5 
REMARK    4  A    between atoms: C_11  and  C_13 
ROOT
ATOM      1  C   UNL d   1      33.163  20.271 -22.768  0.00  0.00     0.105 A 
ATOM      2  C   UNL d   1      33.125  20.427 -21.966  0.00  0.00     0.012 A 
ATOM      3  C   UNL d   1      33.197  20.897 -23.305  0.00  0.00     0.012 A 
ATOM      4  C   UNL d   1      33.194  21.679 -23.034  0.00  0.00     0.001 A 
ATOM      5  C   UNL d   1      33.122  21.202 -21.689  0.00  0.00     0.001 A 
ATOM      6  C   UNL d   1      33.156  21.832 -22.223  0.00  0.00     0.000 A 
ATOM      7  C   UNL d   1      33.091  19.801 -21.430  0.00  0.00     0.001 C 
ATOM      8  C   UNL d   1      33.235  20.740 -24.116  0.00  0.00     0.001 C 
ATOM      9  C   UNL d   1      33.084  21.361 -20.880  0.00  0.00     0.000 C 
ATOM     10  C   UNL d   1      33.228  22.304 -23.570  0.00  0.00     0.000 C 
ENDROOT
BRANCH   1  11
ATOM     11  S   UNL d   1      33.166  19.493 -23.033  0.00  0.00     0.285 S 
ATOM     12  O   UNL d   1      33.089  19.767 -23.814  0.00  0.00    -0.198 OA
ATOM     13  O   UNL d   1      33.241  19.231 -22.266  0.00  0.00    -0.198 OA
BRANCH  11  14
ATOM     14  N   UNL d   1      33.168  18.718 -23.311  0.00  0.00    -0.155 NA
BRANCH  14  15
ATOM     15  C   UNL d   1      32.464  18.292 -23.357  0.00  0.00     0.137 C 
BRANCH  15  16
ATOM     16  C   UNL d   1      32.485  17.492 -23.544  0.00  0.00     0.120 A 
ATOM     17  O   UNL d   1      32.981  16.837 -23.543  0.00  0.00    -0.304 OA
ATOM     18  C   UNL d   1      32.556  16.192 -23.837  0.00  0.00     0.123 A 
ATOM     19  C   UNL d   1      31.794  16.449 -24.019  0.00  0.00     0.029 A 
ATOM     20  C   UNL d   1      31.749  17.255 -23.839  0.00  0.00     0.028 A 
ENDBRANCH  15  16
ENDBRANCH  14  15
ENDBRANCH  11  14
ENDBRANCH   1  11
TORSDOF 4
ENDMDL
MODEL 5
REMARK VINA RESULT:       0.6      4.468      5.804
REMARK  4 active torsions:
REMARK  status: ('A' for Active; 'I' for Inactive)
REMARK    1  A    between atoms: C_2  and  S_1 
REMARK    2  A    between atoms: N_5  and  S_1 
REMARK    3  A    between atoms: C_13  and  N_5 
REMARK    4  A    between atoms: C_11  and  C_13 
ROOT
ATOM      1  C   UNL d   1      33.179  20.100 -22.630  0.00  0.00     0.105 A 
ATOM      2  C   UNL d   1      33.203  20.311 -23.420  0.00  0.00     0.012 A 
ATOM      3  C   UNL d   1      33.141  19.301 -22.422  0.00  0.00     0.012 A 
ATOM      4  C   UNL d   1      33.127  18.718 -23.007  0.00  0.00     0.001 A 
ATOM      5  C   UNL d   1      33.189  19.736 -24.009  0.00  0.00     0.001 A 
ATOM      6  C   UNL d   1      33.151  18.935 -23.804  0.00  0.00     0.000 A 
ATOM      7  C   UNL d   1      33.241  21.107 -23.628  0.00  0.00     0.001 C 
ATOM      8  C   UNL d   1      33.118  19.087 -21.623  0.00  0.00     0.001 C 
ATOM      9  C   UNL d   1      33.213  19.947 -24.805  0.00  0.00     0.000 C 
ATOM     10  C   UNL d   1      33.089  17.921 -22.799  0.00  0.00     0.000 C 
ENDROOT
BRANCH   1  11
ATOM     11  S   UNL d   1      33.194  20.682 -22.050  0.00  0.00     0.285 S 
ATOM     12  O   UNL d   1      33.241  20.091 -21.468  0.00  0.00    -0.198 OA
ATOM     13  O   UNL d   1      33.148  21.256 -22.626  0.00  0.00    -0.198 OA
BRANCH  11  14
ATOM     14  N   UNL d   1      33.209  21.257 -21.461  0.00  0.00    -0.155 NA
BRANCH  14  15
ATOM     15  C   UNL d   1      32.558  21.749 -21.345  0.00  0.00     0.137 C 
BRANCH  15  16
ATOM     16  C   UNL d   1      32.611  22.372 -20.811  0.00  0.00     0.120 A 
ATOM     17  O   UNL d   1      33.133  22.748 -20.300  0.00  0.00    -0.304 OA
ATOM     18  C   UNL d   1      32.733  23.374 -19.938  0.00  0.00     0.123 A 
ATOM     19  C   UNL d   1      31.961  23.385 -20.227  0.00  0.00     0.029 A 
ATOM     20  C   UNL d   1      31.884  22.764 -20.768  0.00  0.00     0.028 A 
ENDBRANCH  15  16
ENDBRANCH  14  15
ENDBRANCH  11  14
ENDBRANCH   1  11
TORSDOF 4
ENDMDL
MODEL 6
REMARK VINA RESULT:       0.7      1.259      3.834
REMARK  4 active torsions:
REMARK  status: ('A' for Active; 'I' for Inactive)
REMARK    1  A    between atoms: C_2  and  S_1 
REMARK    2  A    between atoms: N_5  and  S_1 
REMARK    3  A    between atoms: C_13  and  N_5 
REMARK    4  A    between atoms: C_11  and  C_13 
ROOT
ATOM      1  C   UNL d   1      30.055  16.724 -23.984  0.00  0.00     0.105 A 
ATOM      2  C   UNL d   1      29.422  17.027 -24.406  0.00  0.00     0.012 A 
ATOM      3  C   UNL d   1      29.917  16.199 -23.362  0.00  0.00     0.012 A 
ATOM      4  C   UNL d   1      29.144  15.978 -23.166  0.00  0.00     0.001 A 
ATOM      5  C   UNL d   1      28.650  16.812 -24.216  0.00  0.00     0.001 A 
ATOM      6  C   UNL d   1      28.508  16.286 -23.595  0.00  0.00     0.000 A 
ATOM      7  C   UNL d   1      29.559  17.552 -25.027  0.00  0.00     0.001 C 
ATOM      8  C   UNL d   1      30.556  15.893 -22.936  0.00  0.00     0.001 C 
ATOM      9  C   UNL d   1      28.012  17.116 -24.641  0.00  0.00     0.000 C 
ATOM     10  C   UNL d   1      29.007  15.453 -22.546  0.00  0.00     0.000 C 
ENDROOT
BRANCH   1  11
ATOM     11  S   UNL d   1      30.821  16.946 -24.182  0.00  0.00     0.285 S 
ATOM     12  O   UNL d   1      30.967  17.125 -23.384  0.00  0.00    -0.198 OA
ATOM     13  O   UNL d   1      30.671  16.768 -24.962  0.00  0.00    -0.198 OA
BRANCH  11  14
ATOM     14  N   UNL d   1      31.591  17.170 -24.368  0.00  0.00    -0.155 NA
BRANCH  14  15
ATOM     15  C   UNL d   1      32.013  17.663 -23.859  0.00  0.00     0.137 C 
BRANCH  15  16
ATOM     16  C   UNL d   1      32.480  18.263 -24.171  0.00  0.00     0.120 A 
ATOM     17  O   UNL d   1      32.890  18.483 -24.848  0.00  0.00    -0.304 OA
ATOM     18  C   UNL d   1      33.241  19.218 -24.710  0.00  0.00     0.123 A 
ATOM     19  C   UNL d   1      33.046  19.454 -23.944  0.00  0.00     0.029 A 
ATOM     20  C   UNL d   1      32.575  18.863 -23.610  0.00  0.00     0.028 A 
ENDBRANCH  15  16
ENDBRANCH  14  15
ENDBRANCH  11  14
ENDBRANCH   1  11
TORSDOF 4
ENDMDL
