MODEL 1
REMARK VINA RESULT:      -5.1      0.000      0.000
REMARK  3 active torsions:
REMARK  status: ('A' for Active; 'I' for Inactive)
REMARK    1  A    between atoms: N_2  and  S_1 
REMARK    2  A    between atoms: N_3  and  S_1 
REMARK    3  A    between atoms: C_6  and  N_2 
ROOT
ATOM      1  C   UNL d   1     -41.125-122.935 -53.162  0.00  0.00     0.095 A 
ATOM      2  C   UNL d   1     -41.128-123.105 -51.498  0.00  0.00     0.000 A 
ATOM      3  C   UNL d   1     -41.128-122.264 -52.677  0.00  0.00     0.020 A 
ATOM      4  C   UNL d   1     -41.124-123.682 -52.822  0.00  0.00     0.020 A 
ATOM      5  C   UNL d   1     -41.129-122.350 -51.831  0.00  0.00     0.002 A 
ATOM      6  C   UNL d   1     -41.125-123.769 -51.976  0.00  0.00     0.002 A 
ATOM      7  C   UNL d   1     -41.129-123.188 -50.676  0.00  0.00     0.000 C 
ENDROOT
BRANCH   1   8
ATOM      8  N   UNL d   1     -41.125-122.851 -53.981  0.00  0.00    -0.144 NA
BRANCH   8   9
ATOM      9  S   UNL d   1     -41.841-122.824 -54.391  0.00  0.00     0.351 S 
ATOM     10  O   UNL d   1     -42.074-123.529 -54.039  0.00  0.00    -0.180 OA
ATOM     11  O   UNL d   1     -42.577-123.152 -54.570  0.00  0.00    -0.180 OA
BRANCH   9  12
ATOM     12  N   UNL d   1     -41.996-122.196 -54.902  0.00  0.00    -0.212 N 
ATOM     13  C   UNL d   1     -42.654-121.715 -54.771  0.00  0.00     0.113 C 
ATOM     14  C   UNL d   1     -41.495-122.053 -55.538  0.00  0.00     0.113 C 
ENDBRANCH   9  12
ENDBRANCH   8   9
ENDBRANCH   1   8
TORSDOF 3
ENDMDL
MODEL 2
REMARK VINA RESULT:      -4.8      1.481      3.141
REMARK  3 active torsions:
REMARK  status: ('A' for Active; 'I' for Inactive)
REMARK    1  A    between atoms: N_2  and  S_1 
REMARK    2  A    between atoms: N_3  and  S_1 
REMARK    3  A    between atoms: C_6  and  N_2 
ROOT
ATOM      1  C   UNL d   1     -41.501-122.189 -53.653  0.00  0.00     0.095 A 
ATOM      2  C   UNL d   1     -42.256-122.128 -55.143  0.00  0.00     0.000 A 
ATOM      3  C   UNL d   1     -41.249-122.685 -54.266  0.00  0.00     0.020 A 
ATOM      4  C   UNL d   1     -42.122-121.668 -53.781  0.00  0.00     0.020 A 
ATOM      5  C   UNL d   1     -41.633-122.654 -55.023  0.00  0.00     0.002 A 
ATOM      6  C   UNL d   1     -42.506-121.637 -54.538  0.00  0.00     0.002 A 
ATOM      7  C   UNL d   1     -42.630-122.097 -55.879  0.00  0.00     0.000 C 
ENDROOT
BRANCH   1   8
ATOM      8  N   UNL d   1     -41.128-122.220 -52.918  0.00  0.00    -0.144 NA
BRANCH   8   9
ATOM      9  S   UNL d   1     -41.495-122.609 -52.290  0.00  0.00     0.351 S 
ATOM     10  O   UNL d   1     -41.587-123.281 -52.754  0.00  0.00    -0.180 OA
ATOM     11  O   UNL d   1     -41.858-123.281 -51.977  0.00  0.00    -0.180 OA
BRANCH   9  12
ATOM     12  N   UNL d   1     -41.598-122.219 -51.571  0.00  0.00    -0.212 N 
ATOM     13  C   UNL d   1     -42.173-122.482 -51.041  0.00  0.00     0.113 C 
ATOM     14  C   UNL d   1     -41.127-121.569 -51.387  0.00  0.00     0.113 C 
ENDBRANCH   9  12
ENDBRANCH   8   9
ENDBRANCH   1   8
TORSDOF 3
ENDMDL
MODEL 3
REMARK VINA RESULT:      -4.6      2.351      3.517
REMARK  3 active torsions:
REMARK  status: ('A' for Active; 'I' for Inactive)
REMARK    1  A    between atoms: N_2  and  S_1 
REMARK    2  A    between atoms: N_3  and  S_1 
REMARK    3  A    between atoms: C_6  and  N_2 
ROOT
ATOM      1  C   UNL d   1     -41.200-122.834 -51.736  0.00  0.00     0.095 A 
ATOM      2  C   UNL d   1     -41.228-123.228 -53.361  0.00  0.00     0.000 A 
ATOM      3  C   UNL d   1     -41.284-122.238 -52.305  0.00  0.00     0.020 A 
ATOM      4  C   UNL d   1     -41.132-123.617 -51.973  0.00  0.00     0.020 A 
ATOM      5  C   UNL d   1     -41.298-122.439 -53.131  0.00  0.00     0.002 A 
ATOM      6  C   UNL d   1     -41.146-123.817 -52.799  0.00  0.00     0.002 A 
ATOM      7  C   UNL d   1     -41.242-123.423 -54.163  0.00  0.00     0.000 C 
ENDROOT
BRANCH   1   8
ATOM      8  N   UNL d   1     -41.186-122.639 -50.935  0.00  0.00    -0.144 NA
BRANCH   8   9
ATOM      9  S   UNL d   1     -41.881-122.684 -50.492  0.00  0.00     0.351 S 
ATOM     10  O   UNL d   1     -42.235-122.127 -50.981  0.00  0.00    -0.180 OA
ATOM     11  O   UNL d   1     -42.658-122.445 -50.351  0.00  0.00    -0.180 OA
BRANCH   9  12
ATOM     12  N   UNL d   1     -41.920-123.191 -49.842  0.00  0.00    -0.212 N 
ATOM     13  C   UNL d   1     -41.326-123.168 -49.270  0.00  0.00     0.113 C 
ATOM     14  C   UNL d   1     -42.549-123.716 -49.771  0.00  0.00     0.113 C 
ENDBRANCH   9  12
ENDBRANCH   8   9
ENDBRANCH   1   8
TORSDOF 3
ENDMDL
MODEL 4
REMARK VINA RESULT:      -4.0      2.744      3.732
REMARK  3 active torsions:
REMARK  status: ('A' for Active; 'I' for Inactive)
REMARK    1  A    between atoms: N_2  and  S_1 
REMARK    2  A    between atoms: N_3  and  S_1 
REMARK    3  A    between atoms: C_6  and  N_2 
ROOT
ATOM      1  C   UNL d   1     -42.156-123.354 -49.685  0.00  0.00     0.095 A 
ATOM      2  C   UNL d   1     -42.369-123.428 -48.029  0.00  0.00     0.000 A 
ATOM      3  C   UNL d   1     -41.509-123.249 -49.179  0.00  0.00     0.020 A 
ATOM      4  C   UNL d   1     -42.901-123.494 -49.370  0.00  0.00     0.020 A 
ATOM      5  C   UNL d   1     -41.617-123.287 -48.337  0.00  0.00     0.002 A 
ATOM      6  C   UNL d   1     -43.009-123.532 -48.528  0.00  0.00     0.002 A 
ATOM      7  C   UNL d   1     -42.475-123.466 -47.210  0.00  0.00     0.000 C 
ENDROOT
BRANCH   1   8
ATOM      8  N   UNL d   1     -42.050-123.317 -50.502  0.00  0.00    -0.144 NA
BRANCH   8   9
ATOM      9  S   UNL d   1     -42.079-122.586 -50.885  0.00  0.00     0.351 S 
ATOM     10  O   UNL d   1     -42.828-122.449 -50.578  0.00  0.00    -0.180 OA
ATOM     11  O   UNL d   1     -42.477-121.886 -51.064  0.00  0.00    -0.180 OA
BRANCH   9  12
ATOM     12  N   UNL d   1     -41.440-122.341 -51.345  0.00  0.00    -0.212 N 
ATOM     13  C   UNL d   1     -41.123-122.852 -51.911  0.00  0.00     0.113 C 
ATOM     14  C   UNL d   1     -41.123-121.589 -51.237  0.00  0.00     0.113 C 
ENDBRANCH   9  12
ENDBRANCH   8   9
ENDBRANCH   1   8
TORSDOF 3
ENDMDL
