MODEL 1
REMARK VINA RESULT:      70.7      0.000      0.000
REMARK  4 active torsions:
REMARK  status: ('A' for Active; 'I' for Inactive)
REMARK    1  A    between atoms: C_2  and  C_1 
REMARK       I    between atoms: N_4  and  C_2 
REMARK    2  A    between atoms: C_5  and  N_4 
REMARK    3  A    between atoms: O_17  and  C_9 
REMARK    4  A    between atoms: O_18  and  C_12 
ROOT
ATOM      1  C   UNL d   1     -50.425  26.227  33.915  0.00  0.00     0.353 C 
ATOM      2  N   UNL d   1     -50.396  26.542  34.683  0.00  0.00    -0.361 NA
ATOM      3  O   UNL d   1     -50.053  26.615  33.306  0.00  0.00    -0.249 OA
ENDROOT
BRANCH   1   4
ATOM      4  C   UNL d   1     -50.833  25.515  33.763  0.00  0.00     0.195 A 
ATOM      5  O   UNL d   1     -51.654  25.505  33.804  0.00  0.00    -0.297 OA
ATOM      6  C   UNL d   1     -52.033  24.796  33.651  0.00  0.00     0.123 A 
ATOM      7  C   UNL d   1     -52.879  24.771  33.690  0.00  0.00     0.027 A 
ATOM      8  C   UNL d   1     -51.627  24.108  33.460  0.00  0.00     0.123 A 
ATOM      9  C   UNL d   1     -53.248  24.068  33.538  0.00  0.00     0.002 A 
ATOM     10  C   UNL d   1     -52.822  23.387  33.348  0.00  0.00     0.002 A 
ATOM     11  C   UNL d   1     -52.021  23.399  33.308  0.00  0.00     0.027 A 
ATOM     12  O   UNL d   1     -50.796  24.133  33.422  0.00  0.00    -0.301 OA
ATOM     13  C   UNL d   1     -50.407  24.834  33.573  0.00  0.00     0.153 A 
ENDBRANCH   1   4
BRANCH   2  14
ATOM     14  C   UNL d   1     -50.376  26.840  35.447  0.00  0.00     0.159 A 
ATOM     15  C   UNL d   1     -50.916  26.593  36.008  0.00  0.00     0.059 A 
ATOM     16  C   UNL d   1     -50.901  26.893  36.786  0.00  0.00     0.107 A 
ATOM     17  C   UNL d   1     -50.304  27.468  36.983  0.00  0.00     0.082 A 
ATOM     18  C   UNL d   1     -49.764  27.715  36.422  0.00  0.00     0.040 A 
ATOM     19 CL   UNL d   1     -50.294  27.760  37.752  0.00  0.00    -0.080 Cl
ATOM     20  C   UNL d   1     -49.791  27.406  35.647  0.00  0.00     0.125 A 
BRANCH  16  21
ATOM     21  O   UNL d   1     -51.432  26.650  37.338  0.00  0.00    -0.327 OA
ATOM     22  C   UNL d   1     -51.359  25.905  37.681  0.00  0.00     0.181 C 
ENDBRANCH  16  21
BRANCH  20  23
ATOM     23  O   UNL d   1     -49.245  27.656  35.080  0.00  0.00    -0.326 OA
ATOM     24  C   UNL d   1     -48.701  28.229  35.293  0.00  0.00     0.181 C 
ENDBRANCH  20  23
ENDBRANCH   2  14
TORSDOF 4
ENDMDL
MODEL 2
REMARK VINA RESULT:      71.2      1.610      2.953
REMARK  4 active torsions:
REMARK  status: ('A' for Active; 'I' for Inactive)
REMARK    1  A    between atoms: C_2  and  C_1 
REMARK       I    between atoms: N_4  and  C_2 
REMARK    2  A    between atoms: C_5  and  N_4 
REMARK    3  A    between atoms: O_17  and  C_9 
REMARK    4  A    between atoms: O_18  and  C_12 
ROOT
ATOM      1  C   UNL d   1     -49.161  26.939  33.761  0.00  0.00     0.353 C 
ATOM      2  N   UNL d   1     -48.880  27.555  34.241  0.00  0.00    -0.361 NA
ATOM      3  O   UNL d   1     -48.632  26.446  33.388  0.00  0.00    -0.249 OA
ENDROOT
BRANCH   1   4
ATOM      4  C   UNL d   1     -49.979  26.820  33.656  0.00  0.00     0.195 A 
ATOM      5  O   UNL d   1     -50.272  26.052  33.616  0.00  0.00    -0.297 OA
ATOM      6  C   UNL d   1     -51.079  25.959  33.513  0.00  0.00     0.123 A 
ATOM      7  C   UNL d   1     -51.395  25.174  33.471  0.00  0.00     0.027 A 
ATOM      8  C   UNL d   1     -51.595  26.595  33.449  0.00  0.00     0.123 A 
ATOM      9  C   UNL d   1     -52.193  25.088  33.369  0.00  0.00     0.002 A 
ATOM     10  C   UNL d   1     -52.695  25.740  33.306  0.00  0.00     0.002 A 
ATOM     11  C   UNL d   1     -52.407  26.488  33.345  0.00  0.00     0.027 A 
ATOM     12  O   UNL d   1     -51.284  27.366  33.490  0.00  0.00    -0.301 OA
ATOM     13  C   UNL d   1     -50.481  27.471  33.593  0.00  0.00     0.153 A 
ENDBRANCH   1   4
BRANCH   2  14
ATOM     14  C   UNL d   1     -48.619  28.168  34.720  0.00  0.00     0.159 A 
ATOM     15  C   UNL d   1     -48.179  28.782  34.410  0.00  0.00     0.059 A 
ATOM     16  C   UNL d   1     -47.910  29.408  34.892  0.00  0.00     0.107 A 
ATOM     17  C   UNL d   1     -48.108  29.392  35.720  0.00  0.00     0.082 A 
ATOM     18  C   UNL d   1     -48.549  28.777  36.029  0.00  0.00     0.040 A 
ATOM     19 CL   UNL d   1     -47.841  30.012  36.190  0.00  0.00    -0.080 Cl
ATOM     20  C   UNL d   1     -48.811  28.157  35.536  0.00  0.00     0.125 A 
BRANCH  16  21
ATOM     21  O   UNL d   1     -47.477  30.013  34.587  0.00  0.00    -0.327 OA
ATOM     22  C   UNL d   1     -47.702  30.794  34.725  0.00  0.00     0.181 C 
ENDBRANCH  16  21
BRANCH  20  23
ATOM     23  O   UNL d   1     -49.256  27.536  35.848  0.00  0.00    -0.326 OA
ATOM     24  C   UNL d   1     -49.540  27.610  36.612  0.00  0.00     0.181 C 
ENDBRANCH  20  23
ENDBRANCH   2  14
TORSDOF 4
ENDMDL
MODEL 3
REMARK VINA RESULT:      72.2      2.783      4.438
REMARK  4 active torsions:
REMARK  status: ('A' for Active; 'I' for Inactive)
REMARK    1  A    between atoms: C_2  and  C_1 
REMARK       I    between atoms: N_4  and  C_2 
REMARK    2  A    between atoms: C_5  and  N_4 
REMARK    3  A    between atoms: O_17  and  C_9 
REMARK    4  A    between atoms: O_18  and  C_12 
ROOT
ATOM      1  C   UNL d   1     -48.249  28.376  34.715  0.00  0.00     0.353 C 
ATOM      2  N   UNL d   1     -48.087  29.186  34.803  0.00  0.00    -0.361 NA
ATOM      3  O   UNL d   1     -47.709  27.826  34.973  0.00  0.00    -0.249 OA
ENDROOT
BRANCH   1   4
ATOM      4  C   UNL d   1     -48.961  28.122  34.363  0.00  0.00     0.195 A 
ATOM      5  O   UNL d   1     -49.140  27.319  34.353  0.00  0.00    -0.297 OA
ATOM      6  C   UNL d   1     -49.844  27.092  34.002  0.00  0.00     0.123 A 
ATOM      7  C   UNL d   1     -50.041  26.268  33.985  0.00  0.00     0.027 A 
ATOM      8  C   UNL d   1     -50.367  27.629  33.667  0.00  0.00     0.123 A 
ATOM      9  C   UNL d   1     -50.738  26.049  33.638  0.00  0.00     0.002 A 
ATOM     10  C   UNL d   1     -51.250  26.604  33.306  0.00  0.00     0.002 A 
ATOM     11  C   UNL d   1     -51.074  27.387  33.317  0.00  0.00     0.027 A 
ATOM     12  O   UNL d   1     -50.172  28.438  33.685  0.00  0.00    -0.301 OA
ATOM     13  C   UNL d   1     -49.473  28.677  34.031  0.00  0.00     0.153 A 
ENDBRANCH   1   4
BRANCH   2  14
ATOM     14  C   UNL d   1     -47.940  29.989  34.884  0.00  0.00     0.159 A 
ATOM     15  C   UNL d   1     -48.174  30.518  34.306  0.00  0.00     0.059 A 
ATOM     16  C   UNL d   1     -48.027  31.335  34.383  0.00  0.00     0.107 A 
ATOM     17  C   UNL d   1     -47.627  31.608  35.083  0.00  0.00     0.082 A 
ATOM     18  C   UNL d   1     -47.394  31.079  35.661  0.00  0.00     0.040 A 
ATOM     19 CL   UNL d   1     -47.485  32.416  35.154  0.00  0.00    -0.080 Cl
ATOM     20  C   UNL d   1     -47.546  30.263  35.571  0.00  0.00     0.125 A 
BRANCH  16  21
ATOM     21  O   UNL d   1     -48.257  31.856  33.815  0.00  0.00    -0.327 OA
ATOM     22  C   UNL d   1     -47.814  32.536  33.675  0.00  0.00     0.181 C 
ENDBRANCH  16  21
BRANCH  20  23
ATOM     23  O   UNL d   1     -47.311  29.729  36.155  0.00  0.00    -0.326 OA
ATOM     24  C   UNL d   1     -46.902  30.018  36.802  0.00  0.00     0.181 C 
ENDBRANCH  20  23
ENDBRANCH   2  14
TORSDOF 4
ENDMDL
