MODEL 1
REMARK VINA RESULT:       5.3      0.000      0.000
REMARK  0 active torsions:
REMARK  status: ('A' for Active; 'I' for Inactive)
ROOT
ATOM      1  C   UNL d   1     -51.142  24.713  33.311  0.00  0.00     0.061 A 
ATOM      2  C   UNL d   1     -50.792  25.460  33.313  0.00  0.00     0.279 A 
ATOM      3  C   UNL d   1     -51.962  24.642  33.309  0.00  0.00     0.045 A 
ATOM      4  N   UNL d   1     -51.263  26.132  33.313  0.00  0.00    -0.206 NA
ATOM      5  C   UNL d   1     -52.310  23.890  33.308  0.00  0.00     0.196 A 
ATOM      6  O   UNL d   1     -49.972  25.531  33.314  0.00  0.00    -0.265 OA
ATOM      7  C   UNL d   1     -52.087  26.058  33.311  0.00  0.00     0.102 A 
ATOM      8  O   UNL d   1     -53.130  23.819  33.306  0.00  0.00    -0.287 OA
ATOM      9  C   UNL d   1     -52.431  25.307  33.309  0.00  0.00     0.024 A 
ATOM     10  C   UNL d   1     -50.662  24.031  33.311  0.00  0.00     0.005 A 
ATOM     11  C   UNL d   1     -51.010  23.289  33.310  0.00  0.00     0.003 A 
ATOM     12  C   UNL d   1     -51.831  23.218  33.308  0.00  0.00     0.042 A 
ENDROOT
TORSDOF 0
ENDMDL
MODEL 2
REMARK VINA RESULT:       5.5      0.886      2.599
REMARK  0 active torsions:
REMARK  status: ('A' for Active; 'I' for Inactive)
ROOT
ATOM      1  C   UNL d   1     -51.861  24.739  33.314  0.00  0.00     0.061 A 
ATOM      2  C   UNL d   1     -52.327  24.058  33.317  0.00  0.00     0.279 A 
ATOM      3  C   UNL d   1     -51.041  24.676  33.314  0.00  0.00     0.045 A 
ATOM      4  N   UNL d   1     -51.971  23.318  33.319  0.00  0.00    -0.206 NA
ATOM      5  C   UNL d   1     -50.576  25.362  33.312  0.00  0.00     0.196 A 
ATOM      6  O   UNL d   1     -53.148  24.121  33.317  0.00  0.00    -0.265 OA
ATOM      7  C   UNL d   1     -51.146  23.259  33.319  0.00  0.00     0.102 A 
ATOM      8  O   UNL d   1     -49.755  25.299  33.312  0.00  0.00    -0.287 OA
ATOM      9  C   UNL d   1     -50.685  23.944  33.317  0.00  0.00     0.024 A 
ATOM     10  C   UNL d   1     -52.225  25.489  33.312  0.00  0.00     0.005 A 
ATOM     11  C   UNL d   1     -51.761  26.165  33.310  0.00  0.00     0.003 A 
ATOM     12  C   UNL d   1     -50.939  26.102  33.310  0.00  0.00     0.042 A 
ENDROOT
TORSDOF 0
ENDMDL
MODEL 3
REMARK VINA RESULT:       6.5      1.086      1.670
REMARK  0 active torsions:
REMARK  status: ('A' for Active; 'I' for Inactive)
ROOT
ATOM      1  C   UNL d   1     -51.875  25.354  33.320  0.00  0.00     0.061 A 
ATOM      2  C   UNL d   1     -51.751  26.170  33.323  0.00  0.00     0.279 A 
ATOM      3  C   UNL d   1     -51.232  24.840  33.318  0.00  0.00     0.045 A 
ATOM      4  N   UNL d   1     -50.986  26.467  33.323  0.00  0.00    -0.206 NA
ATOM      5  C   UNL d   1     -51.360  24.021  33.316  0.00  0.00     0.196 A 
ATOM      6  O   UNL d   1     -52.394  26.683  33.325  0.00  0.00    -0.265 OA
ATOM      7  C   UNL d   1     -50.342  25.948  33.321  0.00  0.00     0.102 A 
ATOM      8  O   UNL d   1     -50.717  23.508  33.313  0.00  0.00    -0.287 OA
ATOM      9  C   UNL d   1     -50.473  25.132  33.319  0.00  0.00     0.024 A 
ATOM     10  C   UNL d   1     -52.653  25.053  33.320  0.00  0.00     0.005 A 
ATOM     11  C   UNL d   1     -52.775  24.242  33.318  0.00  0.00     0.003 A 
ATOM     12  C   UNL d   1     -52.131  23.728  33.315  0.00  0.00     0.042 A 
ENDROOT
TORSDOF 0
ENDMDL
