MODEL 1
REMARK VINA RESULT:      52.0      0.000      0.000
REMARK  4 active torsions:
REMARK  status: ('A' for Active; 'I' for Inactive)
REMARK    1  A    between atoms: N_2  and  C_1 
REMARK       I    between atoms: C_6  and  N_2 
REMARK    2  A    between atoms: C_21  and  N_3 
REMARK    3  A    between atoms: C_8  and  C_6 
REMARK       I    between atoms: C_17  and  N_18 
REMARK    4  A    between atoms: N_18  and  C_19 
ROOT
ATOM      1  C   UNL d   1      14.935  12.361  -0.784  0.00  0.00    -0.031 C 
ATOM      2  C   UNL d   1      14.553  11.802  -0.312  0.00  0.00    -0.008 C 
ATOM      3  C   UNL d   1      15.316  12.919  -1.255  0.00  0.00     0.133 C 
ENDROOT
BRANCH   3   4
ATOM      4  N   UNL d   1      14.956  13.646  -1.420  0.00  0.00    -0.278 N 
ATOM      5  C   UNL d   1      14.367  13.782  -1.976  0.00  0.00     0.183 A 
ATOM      6  S   UNL d   1      14.174  14.583  -1.952  0.00  0.00    -0.048 SA
ATOM      7  C   UNL d   1      14.648  14.945  -1.377  0.00  0.00     0.050 A 
ATOM      8  C   UNL d   1      14.700  15.725  -1.113  0.00  0.00     0.027 A 
ATOM      9  C   UNL d   1      15.134  14.363  -1.047  0.00  0.00     0.073 A 
ATOM     10  C   UNL d   1      15.237  15.923  -0.519  0.00  0.00     0.085 A 
ATOM     11  C   UNL d   1      15.723  15.341  -0.189  0.00  0.00     0.021 A 
ATOM     12  C   UNL d   1      15.671  14.561  -0.453  0.00  0.00     0.020 A 
BRANCH   5  13
ATOM     13  N   UNL d   1      14.030  13.210  -2.470  0.00  0.00    -0.183 NA
ATOM     14  C   UNL d   1      13.778  13.423  -3.225  0.00  0.00     0.287 C 
ATOM     15  O   UNL d   1      13.862  14.202  -3.483  0.00  0.00    -0.265 OA
BRANCH  14  16
ATOM     16  C   UNL d   1      13.441  12.856  -3.725  0.00  0.00     0.088 A 
ATOM     17  S   UNL d   1      13.474  12.847  -4.566  0.00  0.00    -0.075 SA
ATOM     18  C   UNL d   1      13.065  12.184  -4.831  0.00  0.00     0.064 A 
ATOM     19 BR   UNL d   1      12.951  11.946  -5.626  0.00  0.00    -0.042 Br
ATOM     20  C   UNL d   1      12.776  11.780  -4.170  0.00  0.00     0.014 A 
ATOM     21  C   UNL d   1      13.008  12.194  -3.497  0.00  0.00     0.012 A 
ENDBRANCH  14  16
ENDBRANCH   5  13
BRANCH  10  22
ATOM     22  N   UNL d   1      15.292  16.715  -0.249  0.00  0.00    -0.208 NA
ATOM     23  C   UNL d   1      15.742  17.255  -0.665  0.00  0.00     0.279 C 
ATOM     24  O   UNL d   1      15.795  18.034  -0.397  0.00  0.00    -0.265 OA
ATOM     25  C   UNL d   1      16.147  17.034  -1.351  0.00  0.00     0.068 C 
ENDBRANCH  10  22
ENDBRANCH   3   4
TORSDOF 4
ENDMDL
MODEL 2
REMARK VINA RESULT:      55.0      2.610      4.107
REMARK  4 active torsions:
REMARK  status: ('A' for Active; 'I' for Inactive)
REMARK    1  A    between atoms: N_2  and  C_1 
REMARK       I    between atoms: C_6  and  N_2 
REMARK    2  A    between atoms: C_21  and  N_3 
REMARK    3  A    between atoms: C_8  and  C_6 
REMARK       I    between atoms: C_17  and  N_18 
REMARK    4  A    between atoms: N_18  and  C_19 
ROOT
ATOM      1  C   UNL d   1      13.167  12.493  -5.429  0.00  0.00    -0.031 C 
ATOM      2  C   UNL d   1      13.562  12.223  -6.101  0.00  0.00    -0.008 C 
ATOM      3  C   UNL d   1      12.771  12.762  -4.758  0.00  0.00     0.133 C 
ENDROOT
BRANCH   3   4
ATOM      4  N   UNL d   1      13.189  13.112  -4.136  0.00  0.00    -0.278 N 
ATOM      5  C   UNL d   1      13.501  13.872  -4.127  0.00  0.00     0.183 A 
ATOM      6  S   UNL d   1      13.871  13.987  -3.399  0.00  0.00    -0.048 SA
ATOM      7  C   UNL d   1      13.788  13.291  -2.956  0.00  0.00     0.050 A 
ATOM      8  C   UNL d   1      14.041  13.084  -2.199  0.00  0.00     0.027 A 
ATOM      9  C   UNL d   1      13.364  12.748  -3.414  0.00  0.00     0.073 A 
ATOM     10  C   UNL d   1      13.872  12.335  -1.899  0.00  0.00     0.085 A 
ATOM     11  C   UNL d   1      13.448  11.792  -2.357  0.00  0.00     0.021 A 
ATOM     12  C   UNL d   1      13.195  11.999  -3.114  0.00  0.00     0.020 A 
BRANCH   5  13
ATOM     13  N   UNL d   1      13.448  14.421  -4.743  0.00  0.00    -0.183 NA
ATOM     14  C   UNL d   1      13.763  15.177  -4.642  0.00  0.00     0.287 C 
ATOM     15  O   UNL d   1      14.127  15.379  -3.930  0.00  0.00    -0.265 OA
BRANCH  14  16
ATOM     16  C   UNL d   1      13.714  15.731  -5.254  0.00  0.00     0.088 A 
ATOM     17  S   UNL d   1      13.093  16.286  -5.379  0.00  0.00    -0.075 SA
ATOM     18  C   UNL d   1      13.273  16.725  -6.051  0.00  0.00     0.064 A 
ATOM     19 BR   UNL d   1      12.816  17.341  -6.388  0.00  0.00    -0.042 Br
ATOM     20  C   UNL d   1      13.996  16.455  -6.347  0.00  0.00     0.014 A 
ATOM     21  C   UNL d   1      14.262  15.848  -5.858  0.00  0.00     0.012 A 
ENDBRANCH  14  16
ENDBRANCH   5  13
BRANCH  10  22
ATOM     22  N   UNL d   1      14.128  12.121  -1.130  0.00  0.00    -0.208 NA
ATOM     23  C   UNL d   1      14.874  12.337  -0.876  0.00  0.00     0.279 C 
ATOM     24  O   UNL d   1      15.124  12.126  -0.119  0.00  0.00    -0.265 OA
ATOM     25  C   UNL d   1      15.384  12.764  -1.368  0.00  0.00     0.068 C 
ENDBRANCH  10  22
ENDBRANCH   3   4
TORSDOF 4
ENDMDL
