MODEL 1
REMARK VINA RESULT:      -4.5      0.000      0.000
REMARK  2 active torsions:
REMARK  status: ('A' for Active; 'I' for Inactive)
REMARK    1  A    between atoms: C_6  and  C_1 
REMARK    2  A    between atoms: O_16  and  C_13 
ROOT
ATOM      1  C   UNL d   1     -41.570-122.240 -50.963  0.00  0.00     0.148 A 
ATOM      2  N   UNL d   1     -41.440-122.677 -51.635  0.00  0.00    -0.289 N 
ATOM      3  N   UNL d   1     -41.492-121.448 -51.152  0.00  0.00    -0.225 NA
ATOM      4  C   UNL d   1     -41.276-122.166 -52.270  0.00  0.00     0.085 A 
ATOM      5  C   UNL d   1     -41.311-121.392 -51.955  0.00  0.00     0.118 A 
ATOM      6  C   UNL d   1     -41.445-123.532 -51.783  0.00  0.00     0.082 A 
ATOM      7  C   UNL d   1     -41.123-122.451 -53.016  0.00  0.00     0.019 A 
ATOM      8  C   UNL d   1     -41.292-123.817 -52.529  0.00  0.00     0.019 A 
ATOM      9  C   UNL d   1     -41.123-123.267 -53.179  0.00  0.00     0.003 A 
ENDROOT
BRANCH   1  10
ATOM     10  C   UNL d   1     -41.748-122.620 -50.236  0.00  0.00     0.035 A 
ATOM     11  C   UNL d   1     -42.532-122.673 -49.967  0.00  0.00     0.005 A 
ATOM     12  C   UNL d   1     -42.699-123.046 -49.257  0.00  0.00     0.024 A 
ATOM     13  C   UNL d   1     -42.092-123.371 -48.804  0.00  0.00     0.094 A 
ATOM     14  C   UNL d   1     -41.325-123.321 -49.064  0.00  0.00     0.024 A 
ATOM     15  C   UNL d   1     -41.143-122.943 -49.788  0.00  0.00     0.005 A 
BRANCH  13  16
ATOM     16  O   UNL d   1     -42.240-123.762 -48.066  0.00  0.00    -0.328 OA
ATOM     17  C   UNL d   1     -42.153-123.359 -47.352  0.00  0.00     0.181 C 
ENDBRANCH  13  16
ENDBRANCH   1  10
TORSDOF 2
ENDMDL
MODEL 2
REMARK VINA RESULT:      -4.3      1.672      3.813
REMARK  2 active torsions:
REMARK  status: ('A' for Active; 'I' for Inactive)
REMARK    1  A    between atoms: C_6  and  C_1 
REMARK    2  A    between atoms: O_16  and  C_13 
ROOT
ATOM      1  C   UNL d   1     -42.578-123.294 -49.663  0.00  0.00     0.148 A 
ATOM      2  N   UNL d   1     -42.179-123.310 -48.956  0.00  0.00    -0.289 N 
ATOM      3  N   UNL d   1     -43.327-123.602 -49.545  0.00  0.00    -0.225 NA
ATOM      4  C   UNL d   1     -42.671-123.632 -48.368  0.00  0.00     0.085 A 
ATOM      5  C   UNL d   1     -43.393-123.814 -48.749  0.00  0.00     0.118 A 
ATOM      6  C   UNL d   1     -41.378-123.061 -48.734  0.00  0.00     0.082 A 
ATOM      7  C   UNL d   1     -42.417-123.716 -47.601  0.00  0.00     0.019 A 
ATOM      8  C   UNL d   1     -41.124-123.145 -47.966  0.00  0.00     0.019 A 
ATOM      9  C   UNL d   1     -41.653-123.484 -47.367  0.00  0.00     0.003 A 
ENDROOT
BRANCH   1  10
ATOM     10  C   UNL d   1     -42.208-122.993 -50.354  0.00  0.00     0.035 A 
ATOM     11  C   UNL d   1     -41.680-123.463 -50.790  0.00  0.00     0.005 A 
ATOM     12  C   UNL d   1     -41.322-123.163 -51.463  0.00  0.00     0.024 A 
ATOM     13  C   UNL d   1     -41.481-122.394 -51.712  0.00  0.00     0.094 A 
ATOM     14  C   UNL d   1     -41.996-121.932 -51.288  0.00  0.00     0.024 A 
ATOM     15  C   UNL d   1     -42.368-122.228 -50.600  0.00  0.00     0.005 A 
BRANCH  13  16
ATOM     16  O   UNL d   1     -41.123-122.061 -52.406  0.00  0.00    -0.328 OA
ATOM     17  C   UNL d   1     -41.241-122.403 -53.146  0.00  0.00     0.181 C 
ENDBRANCH  13  16
ENDBRANCH   1  10
TORSDOF 2
ENDMDL
MODEL 3
REMARK VINA RESULT:      -4.0      2.257      4.182
REMARK  2 active torsions:
REMARK  status: ('A' for Active; 'I' for Inactive)
REMARK    1  A    between atoms: C_6  and  C_1 
REMARK    2  A    between atoms: O_16  and  C_13 
ROOT
ATOM      1  C   UNL d   1     -41.427-121.904 -52.427  0.00  0.00     0.148 A 
ATOM      2  N   UNL d   1     -41.447-122.499 -51.875  0.00  0.00    -0.289 N 
ATOM      3  N   UNL d   1     -41.228-121.206 -52.048  0.00  0.00    -0.225 NA
ATOM      4  C   UNL d   1     -41.259-122.188 -51.126  0.00  0.00     0.085 A 
ATOM      5  C   UNL d   1     -41.123-121.372 -51.246  0.00  0.00     0.118 A 
ATOM      6  C   UNL d   1     -41.621-123.346 -51.938  0.00  0.00     0.082 A 
ATOM      7  C   UNL d   1     -41.236-122.659 -50.464  0.00  0.00     0.019 A 
ATOM      8  C   UNL d   1     -41.598-123.818 -51.276  0.00  0.00     0.019 A 
ATOM      9  C   UNL d   1     -41.400-123.474 -50.504  0.00  0.00     0.003 A 
ENDROOT
BRANCH   1  10
ATOM     10  C   UNL d   1     -41.597-122.066 -53.233  0.00  0.00     0.035 A 
ATOM     11  C   UNL d   1     -41.123-122.592 -53.668  0.00  0.00     0.005 A 
ATOM     12  C   UNL d   1     -41.294-122.746 -54.454  0.00  0.00     0.024 A 
ATOM     13  C   UNL d   1     -41.936-122.382 -54.820  0.00  0.00     0.094 A 
ATOM     14  C   UNL d   1     -42.401-121.867 -54.398  0.00  0.00     0.024 A 
ATOM     15  C   UNL d   1     -42.235-121.702 -53.595  0.00  0.00     0.005 A 
BRANCH  13  16
ATOM     16  O   UNL d   1     -42.133-122.525 -55.633  0.00  0.00    -0.328 OA
ATOM     17  C   UNL d   1     -42.629-122.009 -56.042  0.00  0.00     0.181 C 
ENDBRANCH  13  16
ENDBRANCH   1  10
TORSDOF 2
ENDMDL
MODEL 4
REMARK VINA RESULT:      -3.2      1.808      3.818
REMARK  2 active torsions:
REMARK  status: ('A' for Active; 'I' for Inactive)
REMARK    1  A    between atoms: C_6  and  C_1 
REMARK    2  A    between atoms: O_16  and  C_13 
ROOT
ATOM      1  C   UNL d   1     -41.533-123.281 -51.030  0.00  0.00     0.148 A 
ATOM      2  N   UNL d   1     -42.118-122.943 -50.578  0.00  0.00    -0.289 N 
ATOM      3  N   UNL d   1     -41.125-123.816 -50.566  0.00  0.00    -0.225 NA
ATOM      4  C   UNL d   1     -42.092-123.261 -49.810  0.00  0.00     0.085 A 
ATOM      5  C   UNL d   1     -41.462-123.811 -49.812  0.00  0.00     0.118 A 
ATOM      6  C   UNL d   1     -42.721-122.346 -50.758  0.00  0.00     0.082 A 
ATOM      7  C   UNL d   1     -42.616-123.024 -49.235  0.00  0.00     0.019 A 
ATOM      8  C   UNL d   1     -43.244-122.109 -50.183  0.00  0.00     0.019 A 
ATOM      9  C   UNL d   1     -43.201-122.453 -49.387  0.00  0.00     0.003 A 
ENDROOT
BRANCH   1  10
ATOM     10  C   UNL d   1     -41.435-123.058 -51.833  0.00  0.00     0.035 A 
ATOM     11  C   UNL d   1     -41.475-122.260 -52.060  0.00  0.00     0.005 A 
ATOM     12  C   UNL d   1     -41.378-122.049 -52.845  0.00  0.00     0.024 A 
ATOM     13  C   UNL d   1     -41.240-122.626 -53.417  0.00  0.00     0.094 A 
ATOM     14  C   UNL d   1     -41.200-123.407 -53.200  0.00  0.00     0.024 A 
ATOM     15  C   UNL d   1     -41.298-123.633 -52.400  0.00  0.00     0.005 A 
BRANCH  13  16
ATOM     16  O   UNL d   1     -41.137-122.433 -54.237  0.00  0.00    -0.328 OA
ATOM     17  C   UNL d   1     -41.769-122.485 -54.764  0.00  0.00     0.181 C 
ENDBRANCH  13  16
ENDBRANCH   1  10
TORSDOF 2
ENDMDL
