MODEL 1
REMARK VINA RESULT:      55.1      0.000      0.000
REMARK  4 active torsions:
REMARK  status: ('A' for Active; 'I' for Inactive)
REMARK    1  A    between atoms: C_2  and  C_1 
REMARK    2  A    between atoms: C_3  and  C_2 
REMARK    3  A    between atoms: C_5  and  C_3 
REMARK    4  A    between atoms: C_13  and  C_5 
ROOT
ATOM      1  C   UNL d   1     -49.441  27.339  33.810  0.00  0.00     0.042 C 
ENDROOT
BRANCH   1   2
ATOM      2  C   UNL d   1     -49.570  26.576  33.522  0.00  0.00     0.199 C 
ATOM      3  O   UNL d   1     -48.941  26.103  33.309  0.00  0.00    -0.286 OA
BRANCH   2   4
ATOM      4  C   UNL d   1     -50.337  26.301  33.451  0.00  0.00     0.078 A 
ATOM      5  C   UNL d   1     -50.512  25.511  33.375  0.00  0.00     0.199 A 
ATOM      6  C   UNL d   1     -51.270  25.250  33.306  0.00  0.00     0.042 A 
ATOM      7  O   UNL d   1     -49.845  24.934  33.370  0.00  0.00    -0.286 OA
ATOM      8  C   UNL d   1     -51.904  25.759  33.309  0.00  0.00     0.003 A 
ATOM      9  C   UNL d   1     -51.766  26.544  33.382  0.00  0.00     0.000 A 
ATOM     10  C   UNL d   1     -50.989  26.828  33.453  0.00  0.00     0.006 A 
ATOM     11  C   UNL d   1     -52.249  27.081  33.395  0.00  0.00     0.000 C 
ENDBRANCH   2   4
ENDBRANCH   1   2
BRANCH   1  12
ATOM     12  C   UNL d   1     -48.651  27.427  34.060  0.00  0.00     0.003 C 
BRANCH  12  13
ATOM     13  C   UNL d   1     -48.470  28.051  34.682  0.00  0.00     0.002 A 
ATOM     14  C   UNL d   1     -47.909  28.606  34.585  0.00  0.00     0.027 A 
ATOM     15  C   UNL d   1     -47.758  29.170  35.167  0.00  0.00     0.123 A 
ATOM     16  O   UNL d   1     -47.154  29.771  35.066  0.00  0.00    -0.301 OA
ATOM     17  C   UNL d   1     -48.197  29.187  35.909  0.00  0.00     0.123 A 
ATOM     18  C   UNL d   1     -46.989  30.338  35.631  0.00  0.00     0.149 A 
ATOM     19  C   UNL d   1     -47.445  30.349  36.390  0.00  0.00     0.149 A 
ATOM     20  O   UNL d   1     -48.026  29.781  36.502  0.00  0.00    -0.301 OA
ATOM     21  C   UNL d   1     -48.793  28.606  36.025  0.00  0.00     0.027 A 
ATOM     22  C   UNL d   1     -48.936  28.049  35.440  0.00  0.00     0.002 A 
ENDBRANCH  12  13
ENDBRANCH   1  12
TORSDOF 4
ENDMDL
MODEL 2
REMARK VINA RESULT:      55.2      1.641      5.307
REMARK  4 active torsions:
REMARK  status: ('A' for Active; 'I' for Inactive)
REMARK    1  A    between atoms: C_2  and  C_1 
REMARK    2  A    between atoms: C_3  and  C_2 
REMARK    3  A    between atoms: C_5  and  C_3 
REMARK    4  A    between atoms: C_13  and  C_5 
ROOT
ATOM      1  C   UNL d   1     -50.263  26.553  34.118  0.00  0.00     0.042 C 
ENDROOT
BRANCH   1   2
ATOM      2  C   UNL d   1     -49.989  27.331  34.076  0.00  0.00     0.199 C 
ATOM      3  O   UNL d   1     -50.116  27.778  33.407  0.00  0.00    -0.286 OA
BRANCH   2   4
ATOM      4  C   UNL d   1     -49.588  27.647  34.715  0.00  0.00     0.078 A 
ATOM      5  C   UNL d   1     -49.742  27.425  35.481  0.00  0.00     0.199 A 
ATOM      6  C   UNL d   1     -49.342  27.742  36.103  0.00  0.00     0.042 A 
ATOM      7  O   UNL d   1     -50.367  26.818  35.622  0.00  0.00    -0.286 OA
ATOM      8  C   UNL d   1     -48.762  28.303  36.002  0.00  0.00     0.003 A 
ATOM      9  C   UNL d   1     -48.585  28.544  35.260  0.00  0.00     0.000 A 
ATOM     10  C   UNL d   1     -48.990  28.225  34.608  0.00  0.00     0.006 A 
ATOM     11  C   UNL d   1     -48.093  29.031  35.057  0.00  0.00     0.000 C 
ENDBRANCH   2   4
ENDBRANCH   1   2
BRANCH   1  12
ATOM     12  C   UNL d   1     -50.786  26.394  33.489  0.00  0.00     0.003 C 
BRANCH  12  13
ATOM     13  C   UNL d   1     -51.190  25.592  33.466  0.00  0.00     0.002 A 
ATOM     14  C   UNL d   1     -51.976  25.501  33.551  0.00  0.00     0.027 A 
ATOM     15  C   UNL d   1     -52.328  24.757  33.527  0.00  0.00     0.123 A 
ATOM     16  O   UNL d   1     -53.175  24.656  33.618  0.00  0.00    -0.301 OA
ATOM     17  C   UNL d   1     -51.866  24.038  33.410  0.00  0.00     0.123 A 
ATOM     18  C   UNL d   1     -53.543  23.926  33.598  0.00  0.00     0.149 A 
ATOM     19  C   UNL d   1     -53.060  23.193  33.477  0.00  0.00     0.149 A 
ATOM     20  O   UNL d   1     -52.249  23.273  33.388  0.00  0.00    -0.301 OA
ATOM     21  C   UNL d   1     -51.034  24.118  33.319  0.00  0.00     0.027 A 
ATOM     22  C   UNL d   1     -50.693  24.864  33.344  0.00  0.00     0.002 A 
ENDBRANCH  12  13
ENDBRANCH   1  12
TORSDOF 4
ENDMDL
