MODEL 1
REMARK VINA RESULT:      -4.9      0.000      0.000
REMARK  2 active torsions:
REMARK  status: ('A' for Active; 'I' for Inactive)
REMARK    1  A    between atoms: C_4  and  C_1 
REMARK       I    between atoms: N_8  and  C_4 
REMARK    2  A    between atoms: O_12  and  C_11 
ROOT
ATOM      1  C   UNL d   1     -41.641-122.461 -53.806  0.00  0.00     0.120 A 
ATOM      2  C   UNL d   1     -41.808-123.220 -53.529  0.00  0.00     0.305 A 
ATOM      3  O   UNL d   1     -41.763-123.383 -52.713  0.00  0.00    -0.271 OA
ATOM      4  C   UNL d   1     -41.428-121.855 -53.275  0.00  0.00     0.012 A 
ATOM      5  C   UNL d   1     -41.553-122.792 -52.189  0.00  0.00     0.125 A 
ATOM      6  C   UNL d   1     -41.385-122.026 -52.469  0.00  0.00     0.025 A 
ATOM      7  O   UNL d   1     -42.018-123.815 -54.052  0.00  0.00    -0.259 OA
ATOM      8  C   UNL d   1     -41.505-122.944 -51.377  0.00  0.00     0.117 A 
ATOM      9  C   UNL d   1     -41.174-121.428 -51.938  0.00  0.00     0.002 A 
ATOM     10  C   UNL d   1     -41.130-121.595 -51.133  0.00  0.00     0.002 A 
ATOM     11  C   UNL d   1     -41.295-122.349 -50.854  0.00  0.00     0.026 A 
ENDROOT
BRANCH   1  12
ATOM     12  C   UNL d   1     -41.686-122.302 -54.609  0.00  0.00     0.270 C 
ATOM     13  N   UNL d   1     -42.202-121.732 -54.891  0.00  0.00    -0.269 N 
ATOM     14  C   UNL d   1     -42.676-121.320 -54.362  0.00  0.00     0.102 C 
ATOM     15  C   UNL d   1     -42.248-121.572 -55.693  0.00  0.00     0.102 C 
ATOM     16  O   UNL d   1     -41.212-122.713 -55.138  0.00  0.00    -0.266 OA
ENDBRANCH   1  12
BRANCH   8  17
ATOM     17  O   UNL d   1     -41.671-123.698 -51.097  0.00  0.00    -0.326 OA
ATOM     18  C   UNL d   1     -41.832-123.814 -50.303  0.00  0.00     0.181 C 
ENDBRANCH   8  17
TORSDOF 2
ENDMDL
MODEL 2
REMARK VINA RESULT:      -3.7      1.115      1.595
REMARK  2 active torsions:
REMARK  status: ('A' for Active; 'I' for Inactive)
REMARK    1  A    between atoms: C_4  and  C_1 
REMARK       I    between atoms: N_8  and  C_4 
REMARK    2  A    between atoms: O_12  and  C_11 
ROOT
ATOM      1  C   UNL d   1     -41.714-122.135 -54.374  0.00  0.00     0.120 A 
ATOM      2  C   UNL d   1     -41.841-121.501 -53.862  0.00  0.00     0.305 A 
ATOM      3  O   UNL d   1     -41.754-121.607 -53.040  0.00  0.00    -0.271 OA
ATOM      4  C   UNL d   1     -41.500-122.884 -54.074  0.00  0.00     0.012 A 
ATOM      5  C   UNL d   1     -41.545-122.338 -52.741  0.00  0.00     0.125 A 
ATOM      6  C   UNL d   1     -41.418-122.979 -53.258  0.00  0.00     0.025 A 
ATOM      7  O   UNL d   1     -42.050-120.766 -54.159  0.00  0.00    -0.259 OA
ATOM      8  C   UNL d   1     -41.457-122.454 -51.927  0.00  0.00     0.117 A 
ATOM      9  C   UNL d   1     -41.206-123.719 -52.956  0.00  0.00     0.002 A 
ATOM     10  C   UNL d   1     -41.122-123.818 -52.143  0.00  0.00     0.002 A 
ATOM     11  C   UNL d   1     -41.248-123.188 -51.631  0.00  0.00     0.026 A 
ENDROOT
BRANCH   1  12
ATOM     12  C   UNL d   1     -41.799-122.031 -55.182  0.00  0.00     0.270 C 
ATOM     13  N   UNL d   1     -42.533-122.108 -55.536  0.00  0.00    -0.269 N 
ATOM     14  C   UNL d   1     -43.186-122.292 -55.074  0.00  0.00     0.102 C 
ATOM     15  C   UNL d   1     -42.618-122.004 -56.344  0.00  0.00     0.102 C 
ATOM     16  O   UNL d   1     -41.145-121.847 -55.644  0.00  0.00    -0.266 OA
ENDBRANCH   1  12
BRANCH   8  17
ATOM     17  O   UNL d   1     -41.583-121.825 -51.415  0.00  0.00    -0.326 OA
ATOM     18  C   UNL d   1     -41.506-121.932 -50.607  0.00  0.00     0.181 C 
ENDBRANCH   8  17
TORSDOF 2
ENDMDL
MODEL 3
REMARK VINA RESULT:      -3.6      1.487      2.266
REMARK  2 active torsions:
REMARK  status: ('A' for Active; 'I' for Inactive)
REMARK    1  A    between atoms: C_4  and  C_1 
REMARK       I    between atoms: N_8  and  C_4 
REMARK    2  A    between atoms: O_12  and  C_11 
ROOT
ATOM      1  C   UNL d   1     -41.674-122.546 -52.121  0.00  0.00     0.120 A 
ATOM      2  C   UNL d   1     -42.333-122.135 -51.842  0.00  0.00     0.305 A 
ATOM      3  O   UNL d   1     -42.591-122.249 -51.058  0.00  0.00    -0.271 OA
ATOM      4  C   UNL d   1     -41.263-123.074 -51.623  0.00  0.00     0.012 A 
ATOM      5  C   UNL d   1     -42.192-122.765 -50.566  0.00  0.00     0.125 A 
ATOM      6  C   UNL d   1     -41.526-123.179 -50.847  0.00  0.00     0.025 A 
ATOM      7  O   UNL d   1     -42.735-121.617 -52.333  0.00  0.00    -0.259 OA
ATOM      8  C   UNL d   1     -42.440-122.884 -49.785  0.00  0.00     0.117 A 
ATOM      9  C   UNL d   1     -41.123-123.702 -50.350  0.00  0.00     0.002 A 
ATOM     10  C   UNL d   1     -41.383-123.809 -49.576  0.00  0.00     0.002 A 
ATOM     11  C   UNL d   1     -42.038-123.402 -49.295  0.00  0.00     0.026 A 
ENDROOT
BRANCH   1  12
ATOM     12  C   UNL d   1     -41.421-122.435 -52.892  0.00  0.00     0.270 C 
ATOM     13  N   UNL d   1     -41.448-123.050 -53.431  0.00  0.00    -0.269 N 
ATOM     14  C   UNL d   1     -41.732-123.783 -53.193  0.00  0.00     0.102 C 
ATOM     15  C   UNL d   1     -41.195-122.940 -54.202  0.00  0.00     0.102 C 
ATOM     16  O   UNL d   1     -41.136-121.702 -53.130  0.00  0.00    -0.266 OA
ENDBRANCH   1  12
BRANCH   8  17
ATOM     17  O   UNL d   1     -43.096-122.477 -49.505  0.00  0.00    -0.326 OA
ATOM     18  C   UNL d   1     -43.327-122.562 -48.724  0.00  0.00     0.181 C 
ENDBRANCH   8  17
TORSDOF 2
ENDMDL
MODEL 4
REMARK VINA RESULT:      -2.9      2.294      4.456
REMARK  2 active torsions:
REMARK  status: ('A' for Active; 'I' for Inactive)
REMARK    1  A    between atoms: C_4  and  C_1 
REMARK       I    between atoms: N_8  and  C_4 
REMARK    2  A    between atoms: O_12  and  C_11 
ROOT
ATOM      1  C   UNL d   1     -42.279-123.106 -49.607  0.00  0.00     0.120 A 
ATOM      2  C   UNL d   1     -42.552-122.369 -49.858  0.00  0.00     0.305 A 
ATOM      3  O   UNL d   1     -42.396-122.112 -50.635  0.00  0.00    -0.271 OA
ATOM      4  C   UNL d   1     -41.848-123.596 -50.126  0.00  0.00     0.012 A 
ATOM      5  C   UNL d   1     -41.975-122.589 -51.148  0.00  0.00     0.125 A 
ATOM      6  C   UNL d   1     -41.699-123.333 -50.894  0.00  0.00     0.025 A 
ATOM      7  O   UNL d   1     -42.975-121.888 -49.347  0.00  0.00    -0.259 OA
ATOM      8  C   UNL d   1     -41.816-122.344 -51.922  0.00  0.00     0.117 A 
ATOM      9  C   UNL d   1     -41.273-123.816 -51.412  0.00  0.00     0.002 A 
ATOM     10  C   UNL d   1     -41.123-123.557 -52.179  0.00  0.00     0.002 A 
ATOM     11  C   UNL d   1     -41.393-122.824 -52.433  0.00  0.00     0.026 A 
ENDROOT
BRANCH   1  12
ATOM     12  C   UNL d   1     -42.432-123.358 -48.842  0.00  0.00     0.270 C 
ATOM     13  N   UNL d   1     -41.860-123.290 -48.260  0.00  0.00    -0.269 N 
ATOM     14  C   UNL d   1     -41.130-122.965 -48.448  0.00  0.00     0.102 C 
ATOM     15  C   UNL d   1     -42.012-123.541 -47.496  0.00  0.00     0.102 C 
ATOM     16  O   UNL d   1     -43.162-123.683 -48.654  0.00  0.00    -0.266 OA
ENDBRANCH   1  12
BRANCH   8  17
ATOM     17  O   UNL d   1     -42.086-121.611 -52.175  0.00  0.00    -0.326 OA
ATOM     18  C   UNL d   1     -42.051-121.413 -52.969  0.00  0.00     0.181 C 
ENDBRANCH   8  17
TORSDOF 2
ENDMDL
