MODEL 1
REMARK VINA RESULT:      -9.2      0.000      0.000
REMARK  6 active torsions:
REMARK  status: ('A' for Active; 'I' for Inactive)
REMARK    1  A    between atoms: C_10  and  N_1 
REMARK    2  A    between atoms: S_14  and  C_6 
REMARK       I    between atoms: N_7  and  C_11 
REMARK    3  A    between atoms: C_22  and  N_9 
REMARK    4  A    between atoms: C_13  and  C_10 
REMARK    5  A    between atoms: C_11  and  C_16 
REMARK    6  A    between atoms: C_16  and  S_14 
ROOT
ATOM      1  N   UNL d   1      52.976  32.150  53.242  0.00  0.00    -0.192 N 
ATOM      2  N   UNL d   1      52.575  31.919  52.569  0.00  0.00    -0.058 NA
ATOM      3  C   UNL d   1      52.748  32.920  53.416  0.00  0.00     0.189 A 
ATOM      4  C   UNL d   1      52.205  33.153  52.841  0.00  0.00     0.164 A 
ATOM      5  N   UNL d   1      52.106  32.524  52.322  0.00  0.00    -0.125 NA
ATOM      6  C   UNL d   1      51.874  33.897  52.863  0.00  0.00     0.135 A 
ATOM      7  N   UNL d   1      52.962  33.430  54.013  0.00  0.00    -0.203 NA
ATOM      8  N   UNL d   1      52.087  34.421  53.468  0.00  0.00    -0.216 NA
ATOM      9  C   UNL d   1      52.631  34.187  54.043  0.00  0.00     0.201 A 
ENDROOT
BRANCH   6  10
ATOM     10  S   UNL d   1      51.331  34.131  52.289  0.00  0.00    -0.061 SA
BRANCH  10  11
ATOM     11  C   UNL d   1      50.609  34.438  52.505  0.00  0.00     0.098 C 
BRANCH  11  12
ATOM     12  C   UNL d   1      50.015  34.527  51.939  0.00  0.00     0.272 C 
ATOM     13  N   UNL d   1      49.303  34.892  52.154  0.00  0.00    -0.269 N 
ATOM     14  C   UNL d   1      49.190  35.164  52.927  0.00  0.00     0.102 A 
ATOM     15  C   UNL d   1      48.700  34.988  51.600  0.00  0.00     0.102 A 
ATOM     16  C   UNL d   1      48.479  35.529  53.142  0.00  0.00     0.100 A 
ATOM     17  N   UNL d   1      47.880  35.622  52.582  0.00  0.00    -0.301 N 
ATOM     18  C   UNL d   1      47.992  35.350  51.808  0.00  0.00     0.100 A 
ATOM     19  O   UNL d   1      50.123  34.259  51.172  0.00  0.00    -0.266 OA
BRANCH  17  20
ATOM     20  C   UNL d   1      47.168  35.986  52.795  0.00  0.00     0.064 A 
ATOM     21  C   UNL d   1      47.017  36.162  53.587  0.00  0.00     0.018 A 
ATOM     22  C   UNL d   1      46.306  36.525  53.791  0.00  0.00     0.002 A 
ATOM     23  C   UNL d   1      45.759  36.709  53.225  0.00  0.00     0.000 A 
ATOM     24  C   UNL d   1      45.910  36.534  52.433  0.00  0.00     0.002 A 
ATOM     25  C   UNL d   1      46.623  36.169  52.220  0.00  0.00     0.018 A 
ENDBRANCH  17  20
ENDBRANCH  11  12
ENDBRANCH  10  11
ENDBRANCH   6  10
BRANCH   1  26
ATOM     26  C   UNL d   1      53.521  31.682  53.673  0.00  0.00     0.106 C 
BRANCH  26  27
ATOM     27  C   UNL d   1      53.407  30.860  53.745  0.00  0.00     0.047 A 
ATOM     28  C   UNL d   1      53.413  30.507  54.490  0.00  0.00     0.142 A 
ATOM     29  F   UNL d   1      53.531  30.953  55.169  0.00  0.00    -0.204 F 
ATOM     30  C   UNL d   1      53.302  29.703  54.564  0.00  0.00     0.030 A 
ATOM     31  C   UNL d   1      53.183  29.241  53.888  0.00  0.00     0.002 A 
ATOM     32  C   UNL d   1      53.175  29.592  53.136  0.00  0.00     0.000 A 
ATOM     33  C   UNL d   1      53.287  30.392  53.079  0.00  0.00     0.004 A 
ENDBRANCH  26  27
ENDBRANCH   1  26
TORSDOF 6
ENDMDL
MODEL 2
REMARK VINA RESULT:      -9.2      2.350      6.963
REMARK  6 active torsions:
REMARK  status: ('A' for Active; 'I' for Inactive)
REMARK    1  A    between atoms: C_10  and  N_1 
REMARK    2  A    between atoms: S_14  and  C_6 
REMARK       I    between atoms: N_7  and  C_11 
REMARK    3  A    between atoms: C_22  and  N_9 
REMARK    4  A    between atoms: C_13  and  C_10 
REMARK    5  A    between atoms: C_11  and  C_16 
REMARK    6  A    between atoms: C_16  and  S_14 
ROOT
ATOM      1  N   UNL d   1      47.088  35.812  52.107  0.00  0.00    -0.192 N 
ATOM      2  N   UNL d   1      47.325  35.372  51.460  0.00  0.00    -0.058 NA
ATOM      3  C   UNL d   1      47.709  35.819  52.644  0.00  0.00     0.189 A 
ATOM      4  C   UNL d   1      48.326  35.379  52.316  0.00  0.00     0.164 A 
ATOM      5  N   UNL d   1      48.074  35.107  51.583  0.00  0.00    -0.125 NA
ATOM      6  C   UNL d   1      49.025  35.283  52.722  0.00  0.00     0.135 A 
ATOM      7  N   UNL d   1      47.793  36.164  53.376  0.00  0.00    -0.203 NA
ATOM      8  N   UNL d   1      49.117  35.631  53.467  0.00  0.00    -0.216 NA
ATOM      9  C   UNL d   1      48.501  36.071  53.794  0.00  0.00     0.201 A 
ENDROOT
BRANCH   6  10
ATOM     10  S   UNL d   1      49.642  34.842  52.395  0.00  0.00    -0.061 SA
BRANCH  10  11
ATOM     11  C   UNL d   1      50.250  34.574  52.863  0.00  0.00     0.098 C 
BRANCH  11  12
ATOM     12  C   UNL d   1      50.902  34.205  52.517  0.00  0.00     0.272 C 
ATOM     13  N   UNL d   1      51.571  34.048  52.980  0.00  0.00    -0.269 N 
ATOM     14  C   UNL d   1      51.584  34.259  53.780  0.00  0.00     0.102 A 
ATOM     15  C   UNL d   1      52.230  33.680  52.648  0.00  0.00     0.102 A 
ATOM     16  C   UNL d   1      52.252  34.102  54.243  0.00  0.00     0.100 A 
ATOM     17  N   UNL d   1      52.908  33.734  53.904  0.00  0.00    -0.301 N 
ATOM     18  C   UNL d   1      52.896  33.522  53.104  0.00  0.00     0.100 A 
ATOM     19  O   UNL d   1      50.893  33.994  51.725  0.00  0.00    -0.266 OA
BRANCH  17  20
ATOM     20  C   UNL d   1      53.577  33.576  54.366  0.00  0.00     0.064 A 
ATOM     21  C   UNL d   1      54.101  34.185  54.552  0.00  0.00     0.018 A 
ATOM     22  C   UNL d   1      54.764  34.020  55.012  0.00  0.00     0.002 A 
ATOM     23  C   UNL d   1      54.905  33.270  55.280  0.00  0.00     0.000 A 
ATOM     24  C   UNL d   1      54.381  32.661  55.093  0.00  0.00     0.002 A 
ATOM     25  C   UNL d   1      53.711  32.819  54.632  0.00  0.00     0.018 A 
ENDBRANCH  17  20
ENDBRANCH  11  12
ENDBRANCH  10  11
ENDBRANCH   6  10
BRANCH   1  26
ATOM     26  C   UNL d   1      46.345  36.186  52.200  0.00  0.00     0.106 C 
BRANCH  26  27
ATOM     27  C   UNL d   1      45.663  35.865  51.845  0.00  0.00     0.047 A 
ATOM     28  C   UNL d   1      45.073  35.532  52.315  0.00  0.00     0.142 A 
ATOM     29  F   UNL d   1      45.144  35.511  53.133  0.00  0.00    -0.204 F 
ATOM     30  C   UNL d   1      44.404  35.216  51.972  0.00  0.00     0.030 A 
ATOM     31  C   UNL d   1      44.319  35.231  51.149  0.00  0.00     0.002 A 
ATOM     32  C   UNL d   1      44.911  35.565  50.672  0.00  0.00     0.000 A 
ATOM     33  C   UNL d   1      45.569  35.874  51.028  0.00  0.00     0.004 A 
ENDBRANCH  26  27
ENDBRANCH   1  26
TORSDOF 6
ENDMDL
MODEL 3
REMARK VINA RESULT:      -9.0      1.756      2.448
REMARK  6 active torsions:
REMARK  status: ('A' for Active; 'I' for Inactive)
REMARK    1  A    between atoms: C_10  and  N_1 
REMARK    2  A    between atoms: S_14  and  C_6 
REMARK       I    between atoms: N_7  and  C_11 
REMARK    3  A    between atoms: C_22  and  N_9 
REMARK    4  A    between atoms: C_13  and  C_10 
REMARK    5  A    between atoms: C_11  and  C_16 
REMARK    6  A    between atoms: C_16  and  S_14 
ROOT
ATOM      1  N   UNL d   1      52.693  33.589  53.341  0.00  0.00    -0.192 N 
ATOM      2  N   UNL d   1      52.759  34.403  53.383  0.00  0.00    -0.058 NA
ATOM      3  C   UNL d   1      51.906  33.410  53.187  0.00  0.00     0.189 A 
ATOM      4  C   UNL d   1      51.495  34.124  53.137  0.00  0.00     0.164 A 
ATOM      5  N   UNL d   1      52.034  34.731  53.260  0.00  0.00    -0.125 NA
ATOM      6  C   UNL d   1      50.694  34.129  52.987  0.00  0.00     0.135 A 
ATOM      7  N   UNL d   1      51.517  32.702  53.089  0.00  0.00    -0.203 NA
ATOM      8  N   UNL d   1      50.293  33.412  52.886  0.00  0.00    -0.216 NA
ATOM      9  C   UNL d   1      50.704  32.699  52.937  0.00  0.00     0.201 A 
ENDROOT
BRANCH   6  10
ATOM     10  S   UNL d   1      50.283  34.842  52.937  0.00  0.00    -0.061 SA
BRANCH  10  11
ATOM     11  C   UNL d   1      49.481  34.846  52.798  0.00  0.00     0.098 C 
BRANCH  11  12
ATOM     12  C   UNL d   1      49.019  35.470  53.079  0.00  0.00     0.272 C 
ATOM     13  N   UNL d   1      48.268  35.595  52.755  0.00  0.00    -0.269 N 
ATOM     14  C   UNL d   1      47.984  35.099  52.156  0.00  0.00     0.102 A 
ATOM     15  C   UNL d   1      47.794  36.214  53.025  0.00  0.00     0.102 A 
ATOM     16  C   UNL d   1      47.232  35.224  51.832  0.00  0.00     0.100 A 
ATOM     17  N   UNL d   1      46.765  35.845  52.107  0.00  0.00    -0.301 N 
ATOM     18  C   UNL d   1      47.048  36.342  52.706  0.00  0.00     0.100 A 
ATOM     19  O   UNL d   1      49.297  35.964  53.672  0.00  0.00    -0.266 OA
BRANCH  17  20
ATOM     20  C   UNL d   1      46.013  35.971  51.784  0.00  0.00     0.064 A 
ATOM     21  C   UNL d   1      45.867  35.779  50.995  0.00  0.00     0.018 A 
ATOM     22  C   UNL d   1      45.116  35.907  50.680  0.00  0.00     0.002 A 
ATOM     23  C   UNL d   1      44.525  36.218  51.137  0.00  0.00     0.000 A 
ATOM     24  C   UNL d   1      44.671  36.410  51.926  0.00  0.00     0.002 A 
ATOM     25  C   UNL d   1      45.424  36.284  52.249  0.00  0.00     0.018 A 
ENDBRANCH  17  20
ENDBRANCH  11  12
ENDBRANCH  10  11
ENDBRANCH   6  10
BRANCH   1  26
ATOM     26  C   UNL d   1      53.319  33.041  53.438  0.00  0.00     0.106 C 
BRANCH  26  27
ATOM     27  C   UNL d   1      53.909  33.172  54.010  0.00  0.00     0.047 A 
ATOM     28  C   UNL d   1      54.704  33.165  53.790  0.00  0.00     0.142 A 
ATOM     29  F   UNL d   1      54.927  33.030  53.011  0.00  0.00    -0.204 F 
ATOM     30  C   UNL d   1      55.286  33.293  54.347  0.00  0.00     0.030 A 
ATOM     31  C   UNL d   1      55.075  33.430  55.136  0.00  0.00     0.002 A 
ATOM     32  C   UNL d   1      54.276  33.438  55.362  0.00  0.00     0.000 A 
ATOM     33  C   UNL d   1      53.711  33.309  54.796  0.00  0.00     0.004 A 
ENDBRANCH  26  27
ENDBRANCH   1  26
TORSDOF 6
ENDMDL
MODEL 4
REMARK VINA RESULT:      -8.9      1.938      7.054
REMARK  6 active torsions:
REMARK  status: ('A' for Active; 'I' for Inactive)
REMARK    1  A    between atoms: C_10  and  N_1 
REMARK    2  A    between atoms: S_14  and  C_6 
REMARK       I    between atoms: N_7  and  C_11 
REMARK    3  A    between atoms: C_22  and  N_9 
REMARK    4  A    between atoms: C_13  and  C_10 
REMARK    5  A    between atoms: C_11  and  C_16 
REMARK    6  A    between atoms: C_16  and  S_14 
ROOT
ATOM      1  N   UNL d   1      47.415  35.789  52.272  0.00  0.00    -0.192 N 
ATOM      2  N   UNL d   1      47.709  35.989  53.008  0.00  0.00    -0.058 NA
ATOM      3  C   UNL d   1      47.996  35.363  51.878  0.00  0.00     0.189 A 
ATOM      4  C   UNL d   1      48.647  35.306  52.383  0.00  0.00     0.164 A 
ATOM      5  N   UNL d   1      48.456  35.699  53.078  0.00  0.00    -0.125 NA
ATOM      6  C   UNL d   1      49.319  34.911  52.147  0.00  0.00     0.135 A 
ATOM      7  N   UNL d   1      48.017  35.024  51.139  0.00  0.00    -0.203 NA
ATOM      8  N   UNL d   1      49.347  34.565  51.396  0.00  0.00    -0.216 NA
ATOM      9  C   UNL d   1      48.696  34.621  50.892  0.00  0.00     0.201 A 
ENDROOT
BRANCH   6  10
ATOM     10  S   UNL d   1      49.969  34.855  52.651  0.00  0.00    -0.061 SA
BRANCH  10  11
ATOM     11  C   UNL d   1      50.506  34.249  52.564  0.00  0.00     0.098 C 
BRANCH  11  12
ATOM     12  C   UNL d   1      51.212  34.263  52.992  0.00  0.00     0.272 C 
ATOM     13  N   UNL d   1      51.645  33.563  53.080  0.00  0.00    -0.269 N 
ATOM     14  C   UNL d   1      51.372  32.858  52.743  0.00  0.00     0.102 A 
ATOM     15  C   UNL d   1      52.352  33.560  53.504  0.00  0.00     0.102 A 
ATOM     16  C   UNL d   1      51.804  32.158  52.831  0.00  0.00     0.100 A 
ATOM     17  N   UNL d   1      52.511  32.162  53.257  0.00  0.00    -0.301 N 
ATOM     18  C   UNL d   1      52.785  32.867  53.594  0.00  0.00     0.100 A 
ATOM     19  O   UNL d   1      51.486  34.959  53.327  0.00  0.00    -0.266 OA
BRANCH  17  20
ATOM     20  C   UNL d   1      52.945  31.463  53.345  0.00  0.00     0.064 A 
ATOM     21  C   UNL d   1      52.617  30.743  53.112  0.00  0.00     0.018 A 
ATOM     22  C   UNL d   1      53.055  30.051  53.204  0.00  0.00     0.002 A 
ATOM     23  C   UNL d   1      53.800  30.073  53.519  0.00  0.00     0.000 A 
ATOM     24  C   UNL d   1      54.127  30.793  53.752  0.00  0.00     0.002 A 
ATOM     25  C   UNL d   1      53.693  31.493  53.663  0.00  0.00     0.018 A 
ENDBRANCH  17  20
ENDBRANCH  11  12
ENDBRANCH  10  11
ENDBRANCH   6  10
BRANCH   1  26
ATOM     26  C   UNL d   1      46.655  35.986  51.978  0.00  0.00     0.106 C 
BRANCH  26  27
ATOM     27  C   UNL d   1      46.009  36.064  52.497  0.00  0.00     0.047 A 
ATOM     28  C   UNL d   1      45.349  35.579  52.408  0.00  0.00     0.142 A 
ATOM     29  F   UNL d   1      45.315  35.014  51.813  0.00  0.00    -0.204 F 
ATOM     30  C   UNL d   1      44.714  35.652  52.914  0.00  0.00     0.030 A 
ATOM     31  C   UNL d   1      44.734  36.217  53.518  0.00  0.00     0.002 A 
ATOM     32  C   UNL d   1      45.397  36.708  53.612  0.00  0.00     0.000 A 
ATOM     33  C   UNL d   1      46.020  36.622  53.101  0.00  0.00     0.004 A 
ENDBRANCH  26  27
ENDBRANCH   1  26
TORSDOF 6
ENDMDL
