MODEL 1
REMARK VINA RESULT:      -8.0      0.000      0.000
REMARK  4 active torsions:
REMARK  status: ('A' for Active; 'I' for Inactive)
REMARK    1  A    between atoms: N_10  and  C_3 
REMARK    2  A    between atoms: C_11  and  C_4 
REMARK    3  A    between atoms: C_17  and  N_10 
REMARK       I    between atoms: C_12  and  N_13 
REMARK    4  A    between atoms: N_13  and  C_18 
ROOT
ATOM      1  C   UNL d   1      48.489  35.320  52.589  0.00  0.00     0.168 A 
ATOM      2  N   UNL d   1      49.253  35.134  52.886  0.00  0.00    -0.184 N 
ATOM      3  C   UNL d   1      49.734  34.677  52.447  0.00  0.00     0.218 A 
ATOM      4  C   UNL d   1      47.993  35.779  53.020  0.00  0.00     0.057 A 
ATOM      5  N   UNL d   1      48.974  35.886  54.040  0.00  0.00    -0.160 NA
ATOM      6  N   UNL d   1      48.258  35.037  51.873  0.00  0.00    -0.227 NA
ATOM      7  C   UNL d   1      49.510  34.385  51.721  0.00  0.00     0.071 A 
ATOM      8  C   UNL d   1      48.233  36.067  53.752  0.00  0.00     0.124 A 
ATOM      9  C   UNL d   1      48.757  34.569  51.428  0.00  0.00     0.087 A 
ATOM     10  C   UNL d   1      48.514  34.269  50.672  0.00  0.00     0.021 C 
ENDROOT
BRANCH   3  11
ATOM     11  N   UNL d   1      50.507  34.486  52.742  0.00  0.00    -0.383 NA
BRANCH  11  12
ATOM     12  C   UNL d   1      51.261  34.205  52.978  0.00  0.00     0.134 A 
ATOM     13  C   UNL d   1      51.358  33.427  53.260  0.00  0.00     0.034 A 
ATOM     14  C   UNL d   1      52.134  33.149  53.499  0.00  0.00     0.022 A 
ATOM     15  C   UNL d   1      52.799  33.661  53.450  0.00  0.00     0.085 A 
ATOM     16  C   UNL d   1      52.706  34.451  53.164  0.00  0.00     0.022 A 
ATOM     17  C   UNL d   1      51.935  34.732  52.925  0.00  0.00     0.034 A 
BRANCH  15  18
ATOM     18  N   UNL d   1      53.563  33.386  53.685  0.00  0.00    -0.208 NA
ATOM     19  C   UNL d   1      53.873  33.589  54.444  0.00  0.00     0.279 C 
ATOM     20  O   UNL d   1      54.628  33.318  54.680  0.00  0.00    -0.265 OA
ATOM     21  C   UNL d   1      53.417  34.069  54.970  0.00  0.00     0.068 C 
ENDBRANCH  15  18
ENDBRANCH  11  12
ENDBRANCH   3  11
BRANCH   4  22
ATOM     22  C   UNL d   1      47.252  35.960  52.732  0.00  0.00     0.005 A 
ATOM     23  C   UNL d   1      47.169  36.529  52.169  0.00  0.00     0.001 A 
ATOM     24  C   UNL d   1      46.429  36.709  51.882  0.00  0.00     0.011 A 
ATOM     25  C   UNL d   1      45.784  36.318  52.161  0.00  0.00     0.058 A 
ATOM     26  C   UNL d   1      45.879  35.745  52.728  0.00  0.00     0.011 A 
ATOM     27 CL   UNL d   1      45.008  36.507  51.860  0.00  0.00    -0.082 Cl
ATOM     28  C   UNL d   1      46.607  35.568  53.011  0.00  0.00     0.001 A 
ENDBRANCH   4  22
TORSDOF 4
ENDMDL
MODEL 2
REMARK VINA RESULT:      -7.5      0.870      1.562
REMARK  4 active torsions:
REMARK  status: ('A' for Active; 'I' for Inactive)
REMARK    1  A    between atoms: N_10  and  C_3 
REMARK    2  A    between atoms: C_11  and  C_4 
REMARK    3  A    between atoms: C_17  and  N_10 
REMARK       I    between atoms: C_12  and  N_13 
REMARK    4  A    between atoms: N_13  and  C_18 
ROOT
ATOM      1  C   UNL d   1      47.950  35.337  52.213  0.00  0.00     0.168 A 
ATOM      2  N   UNL d   1      48.712  34.982  52.186  0.00  0.00    -0.184 N 
ATOM      3  C   UNL d   1      49.203  35.079  52.805  0.00  0.00     0.218 A 
ATOM      4  C   UNL d   1      47.445  35.248  51.598  0.00  0.00     0.057 A 
ATOM      5  N   UNL d   1      48.411  34.466  50.914  0.00  0.00    -0.160 NA
ATOM      6  N   UNL d   1      47.732  35.765  52.859  0.00  0.00    -0.227 NA
ATOM      7  C   UNL d   1      48.991  35.510  53.462  0.00  0.00     0.071 A 
ATOM      8  C   UNL d   1      47.673  34.810  50.941  0.00  0.00     0.124 A 
ATOM      9  C   UNL d   1      48.241  35.860  53.489  0.00  0.00     0.087 A 
ATOM     10  C   UNL d   1      48.010  36.311  54.171  0.00  0.00     0.021 C 
ENDROOT
BRANCH   3  11
ATOM     11  N   UNL d   1      49.973  34.722  52.782  0.00  0.00    -0.383 NA
BRANCH  11  12
ATOM     12  C   UNL d   1      50.710  34.330  52.857  0.00  0.00     0.134 A 
ATOM     13  C   UNL d   1      50.752  33.549  53.144  0.00  0.00     0.034 A 
ATOM     14  C   UNL d   1      51.512  33.157  53.217  0.00  0.00     0.022 A 
ATOM     15  C   UNL d   1      52.217  33.559  53.000  0.00  0.00     0.085 A 
ATOM     16  C   UNL d   1      52.181  34.352  52.709  0.00  0.00     0.022 A 
ATOM     17  C   UNL d   1      51.426  34.747  52.634  0.00  0.00     0.034 A 
BRANCH  15  18
ATOM     18  N   UNL d   1      52.965  33.172  53.073  0.00  0.00    -0.208 NA
ATOM     19  C   UNL d   1      53.423  33.258  53.777  0.00  0.00     0.279 C 
ATOM     20  O   UNL d   1      54.163  32.876  53.852  0.00  0.00    -0.265 OA
ATOM     21  C   UNL d   1      53.131  33.735  54.412  0.00  0.00     0.068 C 
ENDBRANCH  15  18
ENDBRANCH  11  12
ENDBRANCH   3  11
BRANCH   4  22
ATOM     22  C   UNL d   1      46.707  35.592  51.625  0.00  0.00     0.005 A 
ATOM     23  C   UNL d   1      46.614  36.359  51.399  0.00  0.00     0.001 A 
ATOM     24  C   UNL d   1      45.876  36.703  51.426  0.00  0.00     0.011 A 
ATOM     25  C   UNL d   1      45.243  36.275  51.679  0.00  0.00     0.058 A 
ATOM     26  C   UNL d   1      45.348  35.502  51.904  0.00  0.00     0.011 A 
ATOM     27 CL   UNL d   1      44.470  36.635  51.707  0.00  0.00    -0.082 Cl
ATOM     28  C   UNL d   1      46.074  35.164  51.878  0.00  0.00     0.001 A 
ENDBRANCH   4  22
TORSDOF 4
ENDMDL
MODEL 3
REMARK VINA RESULT:      -7.4      2.979      6.062
REMARK  4 active torsions:
REMARK  status: ('A' for Active; 'I' for Inactive)
REMARK    1  A    between atoms: N_10  and  C_3 
REMARK    2  A    between atoms: C_11  and  C_4 
REMARK    3  A    between atoms: C_17  and  N_10 
REMARK       I    between atoms: C_12  and  N_13 
REMARK    4  A    between atoms: N_13  and  C_18 
ROOT
ATOM      1  C   UNL d   1      52.396  34.095  53.657  0.00  0.00     0.168 A 
ATOM      2  N   UNL d   1      51.684  34.396  53.326  0.00  0.00    -0.184 N 
ATOM      3  C   UNL d   1      51.230  33.910  52.889  0.00  0.00     0.218 A 
ATOM      4  C   UNL d   1      52.864  34.572  54.100  0.00  0.00     0.057 A 
ATOM      5  N   UNL d   1      51.957  35.646  53.907  0.00  0.00    -0.160 NA
ATOM      6  N   UNL d   1      52.605  33.329  53.529  0.00  0.00    -0.227 NA
ATOM      7  C   UNL d   1      51.433  33.133  52.753  0.00  0.00     0.071 A 
ATOM      8  C   UNL d   1      52.647  35.354  54.229  0.00  0.00     0.124 A 
ATOM      9  C   UNL d   1      52.134  32.837  53.079  0.00  0.00     0.087 A 
ATOM     10  C   UNL d   1      52.355  32.028  52.943  0.00  0.00     0.021 C 
ENDROOT
BRANCH   3  11
ATOM     11  N   UNL d   1      50.510  34.209  52.552  0.00  0.00    -0.383 NA
BRANCH  11  12
ATOM     12  C   UNL d   1      49.764  34.515  52.322  0.00  0.00     0.134 A 
ATOM     13  C   UNL d   1      49.230  34.810  52.889  0.00  0.00     0.034 A 
ATOM     14  C   UNL d   1      48.469  35.121  52.643  0.00  0.00     0.022 A 
ATOM     15  C   UNL d   1      48.259  35.128  51.828  0.00  0.00     0.085 A 
ATOM     16  C   UNL d   1      48.798  34.830  51.249  0.00  0.00     0.022 A 
ATOM     17  C   UNL d   1      49.557  34.519  51.490  0.00  0.00     0.034 A 
BRANCH  15  18
ATOM     18  N   UNL d   1      47.509  35.435  51.587  0.00  0.00    -0.208 NA
ATOM     19  C   UNL d   1      47.232  36.172  51.893  0.00  0.00     0.279 C 
ATOM     20  O   UNL d   1      46.491  36.477  51.656  0.00  0.00    -0.265 OA
ATOM     21  C   UNL d   1      47.708  36.605  52.443  0.00  0.00     0.068 C 
ENDBRANCH  15  18
ENDBRANCH  11  12
ENDBRANCH   3  11
BRANCH   4  22
ATOM     22  C   UNL d   1      53.554  34.281  54.421  0.00  0.00     0.005 A 
ATOM     23  C   UNL d   1      54.236  34.300  53.992  0.00  0.00     0.001 A 
ATOM     24  C   UNL d   1      54.925  34.009  54.313  0.00  0.00     0.011 A 
ATOM     25  C   UNL d   1      54.923  33.703  55.058  0.00  0.00     0.058 A 
ATOM     26  C   UNL d   1      54.230  33.688  55.481  0.00  0.00     0.011 A 
ATOM     27 CL   UNL d   1      55.645  33.398  55.394  0.00  0.00    -0.082 Cl
ATOM     28  C   UNL d   1      53.552  33.974  55.165  0.00  0.00     0.001 A 
ENDBRANCH   4  22
TORSDOF 4
ENDMDL
MODEL 4
REMARK VINA RESULT:      -5.6      3.025      6.099
REMARK  4 active torsions:
REMARK  status: ('A' for Active; 'I' for Inactive)
REMARK    1  A    between atoms: N_10  and  C_3 
REMARK    2  A    between atoms: C_11  and  C_4 
REMARK    3  A    between atoms: C_17  and  N_10 
REMARK       I    between atoms: C_12  and  N_13 
REMARK    4  A    between atoms: N_13  and  C_18 
ROOT
ATOM      1  C   UNL d   1      51.593  33.371  53.191  0.00  0.00     0.168 A 
ATOM      2  N   UNL d   1      50.814  33.668  53.081  0.00  0.00    -0.184 N 
ATOM      3  C   UNL d   1      50.713  34.451  52.981  0.00  0.00     0.218 A 
ATOM      4  C   UNL d   1      51.712  32.585  53.293  0.00  0.00     0.057 A 
ATOM      5  N   UNL d   1      50.315  32.358  53.184  0.00  0.00    -0.160 NA
ATOM      6  N   UNL d   1      52.218  33.878  53.193  0.00  0.00    -0.227 NA
ATOM      7  C   UNL d   1      51.338  34.972  52.981  0.00  0.00     0.071 A 
ATOM      8  C   UNL d   1      51.070  32.071  53.290  0.00  0.00     0.124 A 
ATOM      9  C   UNL d   1      52.106  34.680  53.089  0.00  0.00     0.087 A 
ATOM     10  C   UNL d   1      52.765  35.215  53.091  0.00  0.00     0.021 C 
ENDROOT
BRANCH   3  11
ATOM     11  N   UNL d   1      49.928  34.755  52.870  0.00  0.00    -0.383 NA
BRANCH  11  12
ATOM     12  C   UNL d   1      49.200  35.137  52.705  0.00  0.00     0.134 A 
ATOM     13  C   UNL d   1      48.840  35.632  53.269  0.00  0.00     0.034 A 
ATOM     14  C   UNL d   1      48.094  36.019  53.091  0.00  0.00     0.022 A 
ATOM     15  C   UNL d   1      47.725  35.899  52.345  0.00  0.00     0.085 A 
ATOM     16  C   UNL d   1      48.087  35.397  51.769  0.00  0.00     0.022 A 
ATOM     17  C   UNL d   1      48.829  35.010  51.942  0.00  0.00     0.034 A 
BRANCH  15  18
ATOM     18  N   UNL d   1      46.991  36.280  52.170  0.00  0.00    -0.208 NA
ATOM     19  C   UNL d   1      46.312  36.138  52.652  0.00  0.00     0.279 C 
ATOM     20  O   UNL d   1      45.585  36.513  52.482  0.00  0.00    -0.265 OA
ATOM     21  C   UNL d   1      46.368  35.611  53.312  0.00  0.00     0.068 C 
ENDBRANCH  15  18
ENDBRANCH  11  12
ENDBRANCH   3  11
BRANCH   4  22
ATOM     22  C   UNL d   1      52.467  32.298  53.399  0.00  0.00     0.005 A 
ATOM     23  C   UNL d   1      52.829  32.378  54.114  0.00  0.00     0.001 A 
ATOM     24  C   UNL d   1      53.583  32.090  54.220  0.00  0.00     0.011 A 
ATOM     25  C   UNL d   1      53.964  31.728  53.610  0.00  0.00     0.058 A 
ATOM     26  C   UNL d   1      53.590  31.653  52.894  0.00  0.00     0.011 A 
ATOM     27 CL   UNL d   1      54.755  31.427  53.721  0.00  0.00    -0.082 Cl
ATOM     28  C   UNL d   1      52.847  31.936  52.789  0.00  0.00     0.001 A 
ENDBRANCH   4  22
TORSDOF 4
ENDMDL
