MODEL 1
REMARK VINA RESULT:      -9.7      0.000      0.000
REMARK  4 active torsions:
REMARK  status: ('A' for Active; 'I' for Inactive)
REMARK    1  A    between atoms: N_7  and  S_1 
REMARK    2  A    between atoms: C_8  and  S_1 
REMARK    3  A    between atoms: C_17  and  N_2 
REMARK    4  A    between atoms: C_14  and  N_7 
ROOT
ATOM      1  N   UNL d   1      52.097  34.607  53.445  0.00  0.00    -0.273 N 
ATOM      2  C   UNL d   1      52.758  35.100  54.161  0.00  0.00     0.265 A 
ATOM      3  C   UNL d   1      52.382  33.864  53.414  0.00  0.00     0.067 A 
ATOM      4  C   UNL d   1      53.040  33.822  53.936  0.00  0.00     0.021 A 
ATOM      5  C   UNL d   1      53.270  34.490  54.362  0.00  0.00     0.058 A 
ATOM      6  C   UNL d   1      53.224  32.430  53.592  0.00  0.00     0.105 A 
ATOM      7  C   UNL d   1      53.453  33.108  54.020  0.00  0.00     0.014 A 
ATOM      8  C   UNL d   1      52.179  33.190  53.008  0.00  0.00     0.018 A 
ATOM      9  C   UNL d   1      52.595  32.453  53.086  0.00  0.00     0.014 A 
ATOM     10  O   UNL d   1      52.821  35.848  54.478  0.00  0.00    -0.267 OA
ATOM     11  C   UNL d   1      53.901  34.450  54.864  0.00  0.00     0.005 A 
ATOM     12  C   UNL d   1      54.084  33.067  54.521  0.00  0.00     0.001 A 
ATOM     13  C   UNL d   1      54.314  33.740  54.948  0.00  0.00     0.000 A 
ENDROOT
BRANCH   6  14
ATOM     14  S   UNL d   1      53.610  31.723  53.656  0.00  0.00     0.287 S 
ATOM     15  O   UNL d   1      53.274  31.579  54.366  0.00  0.00    -0.198 OA
ATOM     16  O   UNL d   1      53.965  31.861  52.918  0.00  0.00    -0.198 OA
BRANCH  14  17
ATOM     17  N   UNL d   1      54.023  30.999  53.690  0.00  0.00    -0.139 NA
BRANCH  17  18
ATOM     18  C   UNL d   1      53.610  30.288  53.721  0.00  0.00     0.175 A 
ATOM     19  N   UNL d   1      53.158  30.030  53.067  0.00  0.00    -0.225 NA
ATOM     20  C   UNL d   1      52.744  29.307  53.114  0.00  0.00     0.101 A 
ATOM     21  C   UNL d   1      52.786  28.855  53.804  0.00  0.00     0.021 A 
ATOM     22  C   UNL d   1      53.226  29.100  54.447  0.00  0.00     0.005 A 
ATOM     23  C   UNL d   1      53.641  29.824  54.403  0.00  0.00     0.040 A 
ENDBRANCH  17  18
ENDBRANCH  14  17
ENDBRANCH   6  14
BRANCH   1  24
ATOM     24  C   UNL d   1      51.448  34.810  52.986  0.00  0.00     0.083 C 
ATOM     25  C   UNL d   1      50.703  34.918  53.357  0.00  0.00     0.021 C 
ENDBRANCH   1  24
TORSDOF 4
ENDMDL
MODEL 2
REMARK VINA RESULT:      -8.8      1.830      4.224
REMARK  4 active torsions:
REMARK  status: ('A' for Active; 'I' for Inactive)
REMARK    1  A    between atoms: N_7  and  S_1 
REMARK    2  A    between atoms: C_8  and  S_1 
REMARK    3  A    between atoms: C_17  and  N_2 
REMARK    4  A    between atoms: C_14  and  N_7 
ROOT
ATOM      1  N   UNL d   1      53.277  31.805  53.442  0.00  0.00    -0.273 N 
ATOM      2  C   UNL d   1      53.932  32.470  54.008  0.00  0.00     0.265 A 
ATOM      3  C   UNL d   1      52.665  32.275  53.244  0.00  0.00     0.067 A 
ATOM      4  C   UNL d   1      52.818  33.038  53.561  0.00  0.00     0.021 A 
ATOM      5  C   UNL d   1      53.511  33.175  53.988  0.00  0.00     0.058 A 
ATOM      6  C   UNL d   1      51.569  33.516  53.013  0.00  0.00     0.105 A 
ATOM      7  C   UNL d   1      52.270  33.650  53.443  0.00  0.00     0.014 A 
ATOM      8  C   UNL d   1      51.974  32.170  52.829  0.00  0.00     0.018 A 
ATOM      9  C   UNL d   1      51.406  32.789  52.701  0.00  0.00     0.014 A 
ATOM     10  O   UNL d   1      54.650  32.399  54.385  0.00  0.00    -0.267 OA
ATOM     11  C   UNL d   1      53.658  33.908  54.292  0.00  0.00     0.005 A 
ATOM     12  C   UNL d   1      52.417  34.383  53.747  0.00  0.00     0.001 A 
ATOM     13  C   UNL d   1      53.114  34.518  54.176  0.00  0.00     0.000 A 
ENDROOT
BRANCH   6  14
ATOM     14  S   UNL d   1      51.020  34.095  52.883  0.00  0.00     0.287 S 
ATOM     15  O   UNL d   1      51.464  34.418  52.303  0.00  0.00    -0.198 OA
ATOM     16  O   UNL d   1      50.549  33.769  53.485  0.00  0.00    -0.198 OA
BRANCH  14  17
ATOM     17  N   UNL d   1      50.432  34.678  52.776  0.00  0.00    -0.139 NA
BRANCH  17  18
ATOM     18  C   UNL d   1      49.885  34.606  52.166  0.00  0.00     0.175 A 
ATOM     19  N   UNL d   1      50.136  34.434  51.387  0.00  0.00    -0.225 NA
ATOM     20  C   UNL d   1      49.569  34.364  50.780  0.00  0.00     0.101 A 
ATOM     21  C   UNL d   1      48.769  34.465  50.953  0.00  0.00     0.021 A 
ATOM     22  C   UNL d   1      48.514  34.633  51.711  0.00  0.00     0.005 A 
ATOM     23  C   UNL d   1      49.080  34.704  52.322  0.00  0.00     0.040 A 
ENDBRANCH  17  18
ENDBRANCH  14  17
ENDBRANCH   6  14
BRANCH   1  24
ATOM     24  C   UNL d   1      53.277  31.020  53.203  0.00  0.00     0.083 C 
ATOM     25  C   UNL d   1      53.655  30.446  53.685  0.00  0.00     0.021 C 
ENDBRANCH   1  24
TORSDOF 4
ENDMDL
MODEL 3
REMARK VINA RESULT:      -7.5      1.321      4.503
REMARK  4 active torsions:
REMARK  status: ('A' for Active; 'I' for Inactive)
REMARK    1  A    between atoms: N_7  and  S_1 
REMARK    2  A    between atoms: C_8  and  S_1 
REMARK    3  A    between atoms: C_17  and  N_2 
REMARK    4  A    between atoms: C_14  and  N_7 
ROOT
ATOM      1  N   UNL d   1      53.248  29.780  54.544  0.00  0.00    -0.273 N 
ATOM      2  C   UNL d   1      52.874  29.516  53.553  0.00  0.00     0.265 A 
ATOM      3  C   UNL d   1      53.402  30.559  54.480  0.00  0.00     0.067 A 
ATOM      4  C   UNL d   1      53.206  30.794  53.697  0.00  0.00     0.021 A 
ATOM      5  C   UNL d   1      52.911  30.237  53.163  0.00  0.00     0.058 A 
ATOM      6  C   UNL d   1      53.606  32.148  54.003  0.00  0.00     0.105 A 
ATOM      7  C   UNL d   1      53.309  31.583  53.466  0.00  0.00     0.014 A 
ATOM      8  C   UNL d   1      53.690  31.128  54.984  0.00  0.00     0.018 A 
ATOM      9  C   UNL d   1      53.800  31.940  54.758  0.00  0.00     0.014 A 
ATOM     10  O   UNL d   1      52.606  28.836  53.192  0.00  0.00    -0.267 OA
ATOM     11  C   UNL d   1      52.723  30.463  52.411  0.00  0.00     0.005 A 
ATOM     12  C   UNL d   1      53.121  31.809  52.715  0.00  0.00     0.001 A 
ATOM     13  C   UNL d   1      52.825  31.249  52.180  0.00  0.00     0.000 A 
ENDROOT
BRANCH   6  14
ATOM     14  S   UNL d   1      53.717  32.923  53.803  0.00  0.00     0.287 S 
ATOM     15  O   UNL d   1      52.930  33.061  53.814  0.00  0.00    -0.198 OA
ATOM     16  O   UNL d   1      54.537  32.793  53.787  0.00  0.00    -0.198 OA
BRANCH  14  17
ATOM     17  N   UNL d   1      53.866  33.718  53.596  0.00  0.00    -0.139 NA
BRANCH  17  18
ATOM     18  C   UNL d   1      53.523  34.329  54.027  0.00  0.00     0.175 A 
ATOM     19  N   UNL d   1      53.800  34.516  54.793  0.00  0.00    -0.225 NA
ATOM     20  C   UNL d   1      53.441  35.139  55.218  0.00  0.00     0.101 A 
ATOM     21  C   UNL d   1      52.819  35.561  54.878  0.00  0.00     0.021 A 
ATOM     22  C   UNL d   1      52.542  35.384  54.130  0.00  0.00     0.005 A 
ATOM     23  C   UNL d   1      52.899  34.761  53.702  0.00  0.00     0.040 A 
ENDBRANCH  17  18
ENDBRANCH  14  17
ENDBRANCH   6  14
BRANCH   1  24
ATOM     24  C   UNL d   1      53.388  29.398  55.256  0.00  0.00     0.083 C 
ATOM     25  C   UNL d   1      53.410  28.559  55.272  0.00  0.00     0.021 C 
ENDBRANCH   1  24
TORSDOF 4
ENDMDL
MODEL 4
REMARK VINA RESULT:      -7.4      2.760      4.715
REMARK  4 active torsions:
REMARK  status: ('A' for Active; 'I' for Inactive)
REMARK    1  A    between atoms: N_7  and  S_1 
REMARK    2  A    between atoms: C_8  and  S_1 
REMARK    3  A    between atoms: C_17  and  N_2 
REMARK    4  A    between atoms: C_14  and  N_7 
ROOT
ATOM      1  N   UNL d   1      48.051  35.722  52.784  0.00  0.00    -0.273 N 
ATOM      2  C   UNL d   1      47.750  35.507  51.756  0.00  0.00     0.265 A 
ATOM      3  C   UNL d   1      48.756  35.356  52.848  0.00  0.00     0.067 A 
ATOM      4  C   UNL d   1      48.921  34.990  52.110  0.00  0.00     0.021 A 
ATOM      5  C   UNL d   1      48.382  35.057  51.488  0.00  0.00     0.058 A 
ATOM      6  C   UNL d   1      50.172  34.494  52.636  0.00  0.00     0.105 A 
ATOM      7  C   UNL d   1      49.626  34.564  52.011  0.00  0.00     0.014 A 
ATOM      8  C   UNL d   1      49.305  35.273  53.442  0.00  0.00     0.018 A 
ATOM      9  C   UNL d   1      50.030  34.839  53.352  0.00  0.00     0.014 A 
ATOM     10  O   UNL d   1      47.109  35.687  51.287  0.00  0.00    -0.267 OA
ATOM     11  C   UNL d   1      48.541  34.706  50.779  0.00  0.00     0.005 A 
ATOM     12  C   UNL d   1      49.784  34.213  51.302  0.00  0.00     0.001 A 
ATOM     13  C   UNL d   1      49.242  34.281  50.678  0.00  0.00     0.000 A 
ENDROOT
BRANCH   6  14
ATOM     14  S   UNL d   1      50.865  34.084  52.565  0.00  0.00     0.287 S 
ATOM     15  O   UNL d   1      51.210  34.690  52.175  0.00  0.00    -0.198 OA
ATOM     16  O   UNL d   1      50.519  33.447  52.969  0.00  0.00    -0.198 OA
BRANCH  14  17
ATOM     17  N   UNL d   1      51.566  33.633  52.509  0.00  0.00    -0.139 NA
BRANCH  17  18
ATOM     18  C   UNL d   1      52.177  33.752  53.047  0.00  0.00     0.175 A 
ATOM     19  N   UNL d   1      52.614  34.465  53.044  0.00  0.00    -0.225 NA
ATOM     20  C   UNL d   1      53.231  34.570  53.595  0.00  0.00     0.101 A 
ATOM     21  C   UNL d   1      53.403  33.972  54.137  0.00  0.00     0.021 A 
ATOM     22  C   UNL d   1      52.981  33.272  54.147  0.00  0.00     0.005 A 
ATOM     23  C   UNL d   1      52.362  33.164  53.595  0.00  0.00     0.040 A 
ENDBRANCH  17  18
ENDBRANCH  14  17
ENDBRANCH   6  14
BRANCH   1  24
ATOM     24  C   UNL d   1      47.747  36.129  53.428  0.00  0.00     0.083 C 
ATOM     25  C   UNL d   1      47.144  36.700  53.303  0.00  0.00     0.021 C 
ENDBRANCH   1  24
TORSDOF 4
ENDMDL
