MODEL 1
REMARK VINA RESULT:      -8.6      0.000      0.000
REMARK  5 active torsions:
REMARK  status: ('A' for Active; 'I' for Inactive)
REMARK    1  A    between atoms: N_7  and  C_1 
REMARK    2  A    between atoms: C_13  and  C_2 
REMARK    3  A    between atoms: N_4  and  C_9 
REMARK       I    between atoms: C_10  and  N_7 
REMARK       I    between atoms: C_15  and  N_8 
REMARK    4  A    between atoms: C_18  and  C_10 
REMARK    5  A    between atoms: O_27  and  C_13 
ROOT
ATOM      1  C   UNL d   1     -47.179  12.126  23.215  0.00  0.00     0.119 A 
ATOM      2  C   UNL d   1     -46.524  12.563  22.979  0.00  0.00     0.088 A 
ATOM      3  C   UNL d   1     -46.096  11.346  23.328  0.00  0.00     0.049 A 
ATOM      4  C   UNL d   1     -45.854  12.080  23.049  0.00  0.00     0.016 A 
ATOM      5  S   UNL d   1     -46.916  11.369  23.433  0.00  0.00    -0.066 SA
ATOM      6  N   UNL d   1     -44.744  10.882  23.298  0.00  0.00    -0.272 N 
ATOM      7  C   UNL d   1     -45.529  10.744  23.452  0.00  0.00     0.089 A 
ATOM      8  C   UNL d   1     -44.178  10.292  23.418  0.00  0.00     0.265 C 
ATOM      9  C   UNL d   1     -45.049  12.224  22.890  0.00  0.00     0.020 A 
ATOM     10  C   UNL d   1     -44.502  11.628  23.015  0.00  0.00     0.083 A 
ATOM     11  O   UNL d   1     -44.418   9.554  23.698  0.00  0.00    -0.267 OA
ATOM     12  C   UNL d   1     -43.385  10.428  23.264  0.00  0.00     0.066 C 
ENDROOT
BRANCH   1  13
ATOM     13  N   UNL d   1     -47.965  12.388  23.235  0.00  0.00    -0.201 NA
ATOM     14  C   UNL d   1     -48.580  11.834  23.267  0.00  0.00     0.280 C 
ATOM     15  O   UNL d   1     -48.419  11.025  23.279  0.00  0.00    -0.265 OA
BRANCH  14  16
ATOM     16  C   UNL d   1     -49.362  12.095  23.286  0.00  0.00     0.059 A 
ATOM     17  C   UNL d   1     -49.554  12.820  22.955  0.00  0.00     0.022 A 
ATOM     18  C   UNL d   1     -50.336  13.081  22.975  0.00  0.00     0.070 A 
ATOM     19  C   UNL d   1     -50.926  12.618  23.326  0.00  0.00     0.018 A 
ATOM     20  C   UNL d   1     -50.720  11.881  23.660  0.00  0.00     0.002 A 
ATOM     21  C   UNL d   1     -49.938  11.620  23.640  0.00  0.00     0.005 A 
BRANCH  18  22
ATOM     22  N   UNL d   1     -50.544  13.814  22.643  0.00  0.00    -0.242 N 
ATOM     23  C   UNL d   1     -50.459  14.563  22.968  0.00  0.00     0.267 A 
ATOM     24  C   UNL d   1     -50.746  15.115  22.425  0.00  0.00     0.066 A 
ATOM     25  O   UNL d   1     -50.148  14.753  23.698  0.00  0.00    -0.267 OA
ATOM     26  C   UNL d   1     -51.007  14.701  21.768  0.00  0.00     0.066 A 
ATOM     27  C   UNL d   1     -50.885  13.873  21.891  0.00  0.00     0.267 A 
ATOM     28  O   UNL d   1     -51.064  13.263  21.381  0.00  0.00    -0.267 OA
ENDBRANCH  18  22
ENDBRANCH  14  16
ENDBRANCH   1  13
BRANCH   2  29
ATOM     29  C   UNL d   1     -46.538  13.342  22.720  0.00  0.00     0.298 C 
ATOM     30  O   UNL d   1     -46.623  13.497  21.911  0.00  0.00    -0.259 OA
BRANCH  29  31
ATOM     31  O   UNL d   1     -46.468  13.965  23.266  0.00  0.00    -0.296 OA
ATOM     32  C   UNL d   1     -46.492  14.752  23.005  0.00  0.00     0.185 C 
ENDBRANCH  29  31
ENDBRANCH   2  29
TORSDOF 5
ENDMDL
