MODEL 1
REMARK VINA RESULT:     130.7      0.000      0.000
REMARK  6 active torsions:
REMARK  status: ('A' for Active; 'I' for Inactive)
REMARK    1  A    between atoms: C_10  and  N_3 
REMARK    2  A    between atoms: C_12  and  C_6 
REMARK    3  A    between atoms: C_20  and  C_10 
REMARK    4  A    between atoms: C_11  and  C_17 
REMARK    5  A    between atoms: O_27  and  C_11 
REMARK    6  A    between atoms: N_13  and  C_20 
ROOT
ATOM      1  C   UNL d   1      60.698  47.565  50.082  0.00  0.00     0.083 A 
ATOM      2  C   UNL d   1      61.521  47.633  50.204  0.00  0.00     0.161 A 
ATOM      3  N   UNL d   1      60.942  48.786  50.566  0.00  0.00    -0.270 N 
ATOM      4  C   UNL d   1      61.667  48.386  50.502  0.00  0.00     0.288 A 
ATOM      5  C   UNL d   1      60.384  46.856  49.781  0.00  0.00     0.201 A 
ATOM      6  C   UNL d   1      60.349  48.277  50.308  0.00  0.00     0.072 A 
ATOM      7  O   UNL d   1      62.016  46.999  50.026  0.00  0.00    -0.302 OA
ATOM      8  C   UNL d   1      60.891  46.227  49.606  0.00  0.00     0.063 A 
ATOM      9  C   UNL d   1      61.710  46.295  49.727  0.00  0.00     0.103 A 
ATOM     10  O   UNL d   1      62.408  48.695  50.704  0.00  0.00    -0.264 OA
ATOM     11  O   UNL d   1      59.573  46.785  49.660  0.00  0.00    -0.286 OA
ATOM     12  C   UNL d   1      60.576  45.526  49.308  0.00  0.00     0.017 A 
ATOM     13  C   UNL d   1      62.198  45.660  49.547  0.00  0.00     0.026 A 
ATOM     14  C   UNL d   1      61.071  44.896  49.131  0.00  0.00     0.058 A 
ATOM     15  C   UNL d   1      61.882  44.963  49.250  0.00  0.00     0.013 A 
ATOM     16 CL   UNL d   1      60.755  44.199  48.834  0.00  0.00    -0.082 Cl
ENDROOT
BRANCH   6  17
ATOM     17  C   UNL d   1      59.535  48.411  50.262  0.00  0.00     0.016 A 
ATOM     18  C   UNL d   1      59.189  48.636  49.545  0.00  0.00     0.002 A 
ATOM     19  C   UNL d   1      58.375  48.769  49.499  0.00  0.00     0.005 A 
ATOM     20  C   UNL d   1      57.900  48.678  50.173  0.00  0.00     0.063 A 
ATOM     21  C   UNL d   1      58.253  48.451  50.893  0.00  0.00     0.005 A 
ATOM     22  C   UNL d   1      59.065  48.319  50.934  0.00  0.00     0.002 A 
BRANCH  20  23
ATOM     23  C   UNL d   1      57.088  48.811  50.127  0.00  0.00     0.296 C 
ATOM     24  O   UNL d   1      56.658  48.505  49.498  0.00  0.00    -0.259 OA
BRANCH  23  25
ATOM     25  O   UNL d   1      56.717  49.248  50.713  0.00  0.00    -0.296 OA
ATOM     26  C   UNL d   1      57.155  49.603  51.316  0.00  0.00     0.185 C 
ENDBRANCH  23  25
ENDBRANCH  20  23
ENDBRANCH   6  17
BRANCH   3  27
ATOM     27  C   UNL d   1      60.838  49.554  50.841  0.00  0.00     0.102 C 
BRANCH  27  28
ATOM     28  C   UNL d   1      60.384  49.701  51.514  0.00  0.00     0.100 C 
BRANCH  28  29
ATOM     29  N   UNL d   1      60.731  49.699  52.261  0.00  0.00    -0.298 N 
ATOM     30  C   UNL d   1      61.545  49.705  52.327  0.00  0.00     0.107 A 
ATOM     31  C   UNL d   1      61.892  49.703  53.072  0.00  0.00     0.142 A 
ATOM     32  O   UNL d   1      61.421  49.696  53.745  0.00  0.00    -0.300 OA
ATOM     33  C   UNL d   1      60.603  49.691  53.671  0.00  0.00     0.142 A 
ATOM     34  C   UNL d   1      60.257  49.692  52.925  0.00  0.00     0.107 A 
ENDBRANCH  28  29
ENDBRANCH  27  28
ENDBRANCH   3  27
TORSDOF 6
ENDMDL
