MODEL 1
REMARK VINA RESULT:      26.4      0.000      0.000
REMARK  3 active torsions:
REMARK  status: ('A' for Active; 'I' for Inactive)
REMARK    1  A    between atoms: N_2  and  C_1 
REMARK    2  A    between atoms: N_4  and  C_1 
REMARK       I    between atoms: C_3  and  N_2 
REMARK    3  A    between atoms: C_5  and  C_3 
ROOT
ATOM      1  C   UNL d   1      59.578  49.610  50.584  0.00  0.00     0.209 C 
ATOM      2  S   UNL d   1      59.819  49.707  49.791  0.00  0.00    -0.038 SA
ENDROOT
BRANCH   1   3
ATOM      3  N   UNL d   1      58.790  49.504  50.765  0.00  0.00    -0.179 NA
ATOM      4  C   UNL d   1      58.221  49.528  50.172  0.00  0.00     0.287 C 
ATOM      5  O   UNL d   1      58.451  49.662  49.389  0.00  0.00    -0.265 OA
BRANCH   4   6
ATOM      6  C   UNL d   1      57.424  49.421  50.354  0.00  0.00     0.087 A 
ATOM      7  S   UNL d   1      56.952  49.701  50.979  0.00  0.00    -0.082 SA
ATOM      8  C   UNL d   1      56.186  49.411  50.872  0.00  0.00     0.036 A 
ATOM      9  C   UNL d   1      56.183  48.956  50.188  0.00  0.00     0.008 A 
ATOM     10  C   UNL d   1      56.947  48.959  49.864  0.00  0.00     0.012 A 
ENDBRANCH   4   6
ENDBRANCH   1   3
BRANCH   1  11
ATOM     11  N   UNL d   1      60.144  49.623  51.192  0.00  0.00    -0.281 N 
ATOM     12  C   UNL d   1      59.907  49.650  51.986  0.00  0.00     0.082 A 
ATOM     13  C   UNL d   1      60.464  49.662  52.584  0.00  0.00     0.019 A 
ATOM     14  C   UNL d   1      61.273  49.647  52.401  0.00  0.00     0.003 A 
ATOM     15  C   UNL d   1      61.504  49.620  51.609  0.00  0.00     0.019 A 
ATOM     16  C   UNL d   1      61.847  49.659  53.005  0.00  0.00     0.000 C 
ATOM     17  C   UNL d   1      60.944  49.608  51.008  0.00  0.00     0.082 A 
ENDBRANCH   1  11
TORSDOF 3
ENDMDL
MODEL 2
REMARK VINA RESULT:      26.5      1.142      3.953
REMARK  3 active torsions:
REMARK  status: ('A' for Active; 'I' for Inactive)
REMARK    1  A    between atoms: N_2  and  C_1 
REMARK    2  A    between atoms: N_4  and  C_1 
REMARK       I    between atoms: C_3  and  N_2 
REMARK    3  A    between atoms: C_5  and  C_3 
ROOT
ATOM      1  C   UNL d   1      59.360  49.657  50.226  0.00  0.00     0.209 C 
ATOM      2  S   UNL d   1      59.776  49.623  49.504  0.00  0.00    -0.038 SA
ENDROOT
BRANCH   1   3
ATOM      3  N   UNL d   1      59.762  49.702  50.933  0.00  0.00    -0.179 NA
ATOM      4  C   UNL d   1      60.563  49.517  50.967  0.00  0.00     0.287 C 
ATOM      5  O   UNL d   1      60.959  49.283  50.280  0.00  0.00    -0.265 OA
BRANCH   4   6
ATOM      6  C   UNL d   1      60.972  49.562  51.682  0.00  0.00     0.087 A 
ATOM      7  S   UNL d   1      61.781  49.502  51.865  0.00  0.00    -0.082 SA
ATOM      8  C   UNL d   1      61.866  49.592  52.682  0.00  0.00     0.036 A 
ATOM      9  C   UNL d   1      61.118  49.707  53.001  0.00  0.00     0.008 A 
ATOM     10  C   UNL d   1      60.561  49.689  52.386  0.00  0.00     0.012 A 
ENDBRANCH   4   6
ENDBRANCH   1   3
BRANCH   1  11
ATOM     11  N   UNL d   1      58.528  49.645  50.223  0.00  0.00    -0.281 N 
ATOM     12  C   UNL d   1      58.111  49.644  49.507  0.00  0.00     0.082 A 
ATOM     13  C   UNL d   1      57.293  49.632  49.505  0.00  0.00     0.019 A 
ATOM     14  C   UNL d   1      56.874  49.622  50.222  0.00  0.00     0.003 A 
ATOM     15  C   UNL d   1      57.295  49.624  50.931  0.00  0.00     0.019 A 
ATOM     16  C   UNL d   1      56.041  49.610  50.228  0.00  0.00     0.000 C 
ATOM     17  C   UNL d   1      58.116  49.636  50.933  0.00  0.00     0.082 A 
ENDBRANCH   1  11
TORSDOF 3
ENDMDL
