MODEL 1
REMARK VINA RESULT:      66.6      0.000      0.000
REMARK  3 active torsions:
REMARK  status: ('A' for Active; 'I' for Inactive)
REMARK    1  A    between atoms: C_9  and  N_1 
REMARK    2  A    between atoms: C_5  and  C_9 
REMARK       I    between atoms: N_8  and  C_5 
REMARK    3  A    between atoms: O_14  and  C_12 
ROOT
ATOM      1  N   UNL d   1      59.835  49.015  50.776  0.00  0.00    -0.268 N 
ATOM      2  C   UNL d   1      60.584  49.025  50.441  0.00  0.00     0.265 A 
ATOM      3  C   UNL d   1      61.054  48.343  50.470  0.00  0.00     0.059 A 
ATOM      4  C   UNL d   1      60.770  47.661  50.832  0.00  0.00     0.028 A 
ATOM      5  C   UNL d   1      60.020  47.651  51.166  0.00  0.00     0.021 A 
ATOM      6  C   UNL d   1      59.551  48.324  51.140  0.00  0.00     0.083 A 
ATOM      7  O   UNL d   1      60.869  49.707  50.079  0.00  0.00    -0.267 OA
ATOM      8  C   UNL d   1      61.242  46.986  50.857  0.00  0.00     0.094 A 
ATOM      9  C   UNL d   1      61.806  48.360  50.132  0.00  0.00     0.005 A 
ATOM     10  C   UNL d   1      62.282  47.683  50.156  0.00  0.00     0.002 A 
ATOM     11  C   UNL d   1      62.001  46.999  50.517  0.00  0.00     0.024 A 
ENDROOT
BRANCH   1  12
ATOM     12  C   UNL d   1      59.367  49.688  50.750  0.00  0.00     0.144 C 
BRANCH  12  13
ATOM     13  C   UNL d   1      58.622  49.695  51.119  0.00  0.00     0.283 C 
ATOM     14  N   UNL d   1      57.942  49.694  50.657  0.00  0.00    -0.271 N 
ATOM     15  C   UNL d   1      57.218  49.702  51.115  0.00  0.00     0.083 A 
ATOM     16  C   UNL d   1      58.075  49.686  49.925  0.00  0.00     0.083 A 
ATOM     17  C   UNL d   1      56.518  49.704  50.949  0.00  0.00     0.019 A 
ATOM     18  C   UNL d   1      56.174  49.698  50.186  0.00  0.00     0.002 A 
ATOM     19  C   UNL d   1      56.615  49.688  49.421  0.00  0.00     0.002 A 
ATOM     20  C   UNL d   1      57.498  49.682  49.294  0.00  0.00     0.019 A 
ATOM     21  O   UNL d   1      58.561  49.704  51.930  0.00  0.00    -0.265 OA
ENDBRANCH  12  13
ENDBRANCH   1  12
BRANCH   8  22
ATOM     22  O   UNL d   1      60.969  46.298  51.216  0.00  0.00    -0.328 OA
ATOM     23  C   UNL d   1      61.219  45.569  50.949  0.00  0.00     0.181 C 
ENDBRANCH   8  22
TORSDOF 3
ENDMDL
