MODEL 1
REMARK VINA RESULT:      -1.9      0.000      0.000
REMARK  4 active torsions:
REMARK  status: ('A' for Active; 'I' for Inactive)
REMARK    1  A    between atoms: C_11  and  N_3 
REMARK    2  A    between atoms: C_10  and  C_5 
REMARK    3  A    between atoms: C_21  and  C_11 
REMARK    4  A    between atoms: N_12  and  C_21 
ROOT
ATOM      1  C   UNL d   1      33.120  20.866 -22.337  0.00  0.00     0.085 A 
ATOM      2  C   UNL d   1      33.149  20.282 -21.740  0.00  0.00     0.161 A 
ATOM      3  N   UNL d   1      33.094  19.669 -22.931  0.00  0.00    -0.268 N 
ATOM      4  C   UNL d   1      33.133  19.547 -22.110  0.00  0.00     0.288 A 
ATOM      5  C   UNL d   1      33.086  20.483 -23.066  0.00  0.00     0.095 A 
ATOM      6  C   UNL d   1      33.128  21.671 -22.125  0.00  0.00     0.201 A 
ATOM      7  O   UNL d   1      33.187  20.506 -20.947  0.00  0.00    -0.302 OA
ATOM      8  C   UNL d   1      33.166  21.883 -21.326  0.00  0.00     0.063 A 
ATOM      9  C   UNL d   1      33.195  21.302 -20.732  0.00  0.00     0.103 A 
ATOM     10  O   UNL d   1      33.153  18.810 -21.732  0.00  0.00    -0.264 OA
ATOM     11  O   UNL d   1      33.099  22.250 -22.710  0.00  0.00    -0.286 OA
ATOM     12  C   UNL d   1      33.174  22.682 -21.121  0.00  0.00     0.017 A 
ATOM     13  C   UNL d   1      33.232  21.531 -19.945  0.00  0.00     0.026 A 
ATOM     14  C   UNL d   1      33.211  22.902 -20.330  0.00  0.00     0.058 A 
ATOM     15  C   UNL d   1      33.240  22.327 -19.742  0.00  0.00     0.013 A 
ATOM     16 CL   UNL d   1      33.219  23.699 -20.128  0.00  0.00    -0.082 Cl
ENDROOT
BRANCH   3  17
ATOM     17  C   UNL d   1      33.068  19.080 -23.505  0.00  0.00     0.102 C 
BRANCH  17  18
ATOM     18  C   UNL d   1      32.618  18.398 -23.388  0.00  0.00     0.100 C 
BRANCH  18  19
ATOM     19  N   UNL d   1      32.600  17.805 -23.958  0.00  0.00    -0.298 N 
ATOM     20  C   UNL d   1      31.991  17.785 -24.501  0.00  0.00     0.107 A 
ATOM     21  C   UNL d   1      31.974  17.192 -25.071  0.00  0.00     0.142 A 
ATOM     22  O   UNL d   1      32.565  16.624 -25.093  0.00  0.00    -0.300 OA
ATOM     23  C   UNL d   1      33.176  16.649 -24.543  0.00  0.00     0.142 A 
ATOM     24  C   UNL d   1      33.193  17.242 -23.973  0.00  0.00     0.107 A 
ENDBRANCH  18  19
ENDBRANCH  17  18
ENDBRANCH   3  17
BRANCH   5  25
ATOM     25  C   UNL d   1      33.051  20.888 -23.785  0.00  0.00     0.116 A 
ATOM     26  O   UNL d   1      32.825  21.681 -23.896  0.00  0.00    -0.304 OA
ATOM     27  C   UNL d   1      32.872  21.851 -24.702  0.00  0.00     0.123 A 
ATOM     28  C   UNL d   1      33.124  21.171 -25.097  0.00  0.00     0.029 A 
ATOM     29  C   UNL d   1      33.235  20.574 -24.531  0.00  0.00     0.028 A 
ENDBRANCH   5  25
TORSDOF 4
ENDMDL
MODEL 2
REMARK VINA RESULT:      -1.4      1.985      4.655
REMARK  4 active torsions:
REMARK  status: ('A' for Active; 'I' for Inactive)
REMARK    1  A    between atoms: C_11  and  N_3 
REMARK    2  A    between atoms: C_10  and  C_5 
REMARK    3  A    between atoms: C_21  and  C_11 
REMARK    4  A    between atoms: N_12  and  C_21 
ROOT
ATOM      1  C   UNL d   1      33.161  19.455 -22.978  0.00  0.00     0.085 A 
ATOM      2  C   UNL d   1      33.152  19.134 -22.206  0.00  0.00     0.161 A 
ATOM      3  N   UNL d   1      33.206  20.471 -22.110  0.00  0.00    -0.268 N 
ATOM      4  C   UNL d   1      33.179  19.763 -21.675  0.00  0.00     0.288 A 
ATOM      5  C   UNL d   1      33.195  20.277 -22.911  0.00  0.00     0.095 A 
ATOM      6  C   UNL d   1      33.138  18.945 -23.634  0.00  0.00     0.201 A 
ATOM      7  O   UNL d   1      33.119  18.317 -22.100  0.00  0.00    -0.302 OA
ATOM      8  C   UNL d   1      33.105  18.127 -23.515  0.00  0.00     0.063 A 
ATOM      9  C   UNL d   1      33.096  17.808 -22.748  0.00  0.00     0.103 A 
ATOM     10  O   UNL d   1      33.181  19.704 -20.848  0.00  0.00    -0.264 OA
ATOM     11  O   UNL d   1      33.147  19.256 -24.397  0.00  0.00    -0.286 OA
ATOM     12  C   UNL d   1      33.082  17.625 -24.170  0.00  0.00     0.017 A 
ATOM     13  C   UNL d   1      33.064  16.994 -22.650  0.00  0.00     0.026 A 
ATOM     14  C   UNL d   1      33.050  16.811 -24.062  0.00  0.00     0.058 A 
ATOM     15  C   UNL d   1      33.041  16.495 -23.302  0.00  0.00     0.013 A 
ATOM     16 CL   UNL d   1      33.027  16.312 -24.715  0.00  0.00    -0.082 Cl
ENDROOT
BRANCH   3  17
ATOM     17  C   UNL d   1      33.238  21.230 -21.794  0.00  0.00     0.102 C 
BRANCH  17  18
ATOM     18  C   UNL d   1      32.922  21.389 -21.048  0.00  0.00     0.100 C 
BRANCH  18  19
ATOM     19  N   UNL d   1      32.686  22.151 -20.846  0.00  0.00    -0.298 N 
ATOM     20  C   UNL d   1      33.221  22.661 -20.500  0.00  0.00     0.107 A 
ATOM     21  C   UNL d   1      32.984  23.423 -20.299  0.00  0.00     0.142 A 
ATOM     22  O   UNL d   1      32.214  23.667 -20.445  0.00  0.00    -0.300 OA
ATOM     23  C   UNL d   1      31.681  23.149 -20.794  0.00  0.00     0.142 A 
ATOM     24  C   UNL d   1      31.918  22.387 -20.996  0.00  0.00     0.107 A 
ENDBRANCH  18  19
ENDBRANCH  17  18
ENDBRANCH   3  17
BRANCH   5  25
ATOM     25  C   UNL d   1      33.212  20.779 -23.567  0.00  0.00     0.116 A 
ATOM     26  O   UNL d   1      33.219  21.610 -23.554  0.00  0.00    -0.304 OA
ATOM     27  C   UNL d   1      33.237  21.879 -24.333  0.00  0.00     0.123 A 
ATOM     28  C   UNL d   1      33.241  21.224 -24.835  0.00  0.00     0.029 A 
ATOM     29  C   UNL d   1      33.226  20.541 -24.362  0.00  0.00     0.028 A 
ENDBRANCH   5  25
TORSDOF 4
ENDMDL
