MODEL 1
REMARK VINA RESULT:      29.3      0.000      0.000
REMARK  6 active torsions:
REMARK  status: ('A' for Active; 'I' for Inactive)
REMARK    1  A    between atoms: C_4  and  N_1 
REMARK    2  A    between atoms: C_3  and  C_2 
REMARK    3  A    between atoms: S_6  and  C_11 
REMARK    4  A    between atoms: C_7  and  S_6 
REMARK    5  A    between atoms: C_8  and  C_10 
REMARK    6  A    between atoms: C_11  and  C_8 
ROOT
ATOM      1  C   UNL d   1      13.219  12.473  -3.758  0.00  0.00     0.202 C 
ATOM      2  O   UNL d   1      13.154  11.780  -4.213  0.00  0.00    -0.286 OA
ENDROOT
BRANCH   1   3
ATOM      3  C   UNL d   1      13.314  13.204  -4.135  0.00  0.00     0.040 A 
ATOM      4  C   UNL d   1      13.769  13.258  -4.822  0.00  0.00     0.005 A 
ATOM      5  C   UNL d   1      13.850  13.994  -5.178  0.00  0.00     0.024 A 
ATOM      6  C   UNL d   1      13.487  14.673  -4.865  0.00  0.00     0.127 A 
ATOM      7  C   UNL d   1      13.036  14.607  -4.180  0.00  0.00     0.024 A 
ATOM      8  C   UNL d   1      12.958  13.870  -3.827  0.00  0.00     0.005 A 
BRANCH   6   9
ATOM      9  N   UNL d   1      13.569  15.430  -5.230  0.00  0.00    -0.114 N 
ATOM     10  O   UNL d   1      12.984  15.996  -5.102  0.00  0.00    -0.532 OA
ATOM     11  O   UNL d   1      14.239  15.583  -5.710  0.00  0.00    -0.532 OA
ENDBRANCH   6   9
ENDBRANCH   1   3
BRANCH   1  12
ATOM     12  C   UNL d   1      13.189  12.436  -2.944  0.00  0.00     0.077 C 
BRANCH  12  13
ATOM     13  S   UNL d   1      13.865  12.229  -2.503  0.00  0.00    -0.083 SA
BRANCH  13  14
ATOM     14  C   UNL d   1      13.812  12.097  -1.667  0.00  0.00     0.035 A 
ATOM     15  C   UNL d   1      14.494  12.163  -1.213  0.00  0.00     0.070 A 
ATOM     16  C   UNL d   1      14.442  12.033  -0.388  0.00  0.00     0.007 A 
ATOM     17  C   UNL d   1      13.709  11.840  -0.037  0.00  0.00     0.000 A 
ATOM     18  C   UNL d   1      13.045  11.780  -0.509  0.00  0.00     0.001 A 
ATOM     19  C   UNL d   1      13.097  11.909  -1.323  0.00  0.00     0.007 A 
BRANCH  15  20
ATOM     20  C   UNL d   1      15.242  12.360  -1.565  0.00  0.00     0.211 C 
ATOM     21  O   UNL d   1      15.855  11.795  -1.566  0.00  0.00    -0.644 OA
ATOM     22  O   UNL d   1      15.370  13.102  -1.906  0.00  0.00    -0.644 OA
ENDBRANCH  15  20
ENDBRANCH  13  14
ENDBRANCH  12  13
ENDBRANCH   1  12
TORSDOF 6
ENDMDL
