MODEL 1
REMARK VINA RESULT:      68.3      0.000      0.000
REMARK  9 active torsions:
REMARK  status: ('A' for Active; 'I' for Inactive)
REMARK       I    between atoms: C_9  and  N_1 
REMARK       I    between atoms: N_2  and  C_10 
REMARK    1  A    between atoms: C_17  and  C_9 
REMARK    2  A    between atoms: C_10  and  C_18 
REMARK    3  A    between atoms: C_21  and  C_17 
REMARK    4  A    between atoms: C_18  and  C_22 
REMARK    5  A    between atoms: C_24  and  C_21 
REMARK    6  A    between atoms: C_22  and  C_23 
REMARK    7  A    between atoms: C_23  and  C_26 
REMARK    8  A    between atoms: C_25  and  C_24 
REMARK    9  A    between atoms: C_26  and  C_25 
ROOT
ATOM      1  C   UNL d   1      60.721  47.709  50.382  0.00  0.00     0.000 C 
ENDROOT
BRANCH   1   2
ATOM      2  C   UNL d   1      61.179  47.034  50.548  0.00  0.00     0.000 C 
BRANCH   2   3
ATOM      3  C   UNL d   1      61.093  46.358  50.086  0.00  0.00     0.005 C 
BRANCH   3   4
ATOM      4  C   UNL d   1      61.138  45.611  50.433  0.00  0.00     0.063 C 
BRANCH   4   5
ATOM      5  C   UNL d   1      61.456  44.979  50.010  0.00  0.00     0.280 C 
ATOM      6  N   UNL d   1      61.737  44.315  50.406  0.00  0.00    -0.195 N 
ATOM      7  N   UNL d   1      62.055  43.683  49.986  0.00  0.00    -0.163 NA
ATOM      8  C   UNL d   1      61.775  44.124  51.208  0.00  0.00     0.088 A 
ATOM      9  C   UNL d   1      62.288  43.104  50.522  0.00  0.00     0.103 A 
ATOM     10  C   UNL d   1      62.636  42.376  50.335  0.00  0.00     0.022 C 
ATOM     11  C   UNL d   1      62.113  43.382  51.279  0.00  0.00     0.040 A 
ATOM     12  C   UNL d   1      61.516  44.600  51.830  0.00  0.00     0.021 C 
ATOM     13  O   UNL d   1      61.497  45.002  49.184  0.00  0.00    -0.265 OA
ENDBRANCH   4   5
ENDBRANCH   3   4
ENDBRANCH   2   3
ENDBRANCH   1   2
BRANCH   1  14
ATOM     14  C   UNL d   1      61.031  48.458  50.534  0.00  0.00     0.000 C 
BRANCH  14  15
ATOM     15  C   UNL d   1      60.740  48.909  51.170  0.00  0.00     0.000 C 
BRANCH  15  16
ATOM     16  C   UNL d   1      60.273  49.572  51.031  0.00  0.00     0.005 C 
BRANCH  16  17
ATOM     17  C   UNL d   1      59.581  49.505  50.586  0.00  0.00     0.063 C 
BRANCH  17  18
ATOM     18  C   UNL d   1      58.849  49.489  50.957  0.00  0.00     0.280 C 
ATOM     19  N   UNL d   1      58.155  49.552  50.515  0.00  0.00    -0.195 N 
ATOM     20  N   UNL d   1      57.385  49.545  50.806  0.00  0.00    -0.163 NA
ATOM     21  C   UNL d   1      58.106  49.635  49.689  0.00  0.00     0.088 A 
ATOM     22  C   UNL d   1      56.864  49.623  50.172  0.00  0.00     0.103 A 
ATOM     23  C   UNL d   1      56.039  49.641  50.223  0.00  0.00     0.022 C 
ATOM     24  C   UNL d   1      57.315  49.678  49.480  0.00  0.00     0.040 A 
ATOM     25  C   UNL d   1      58.753  49.668  49.169  0.00  0.00     0.021 C 
ATOM     26  O   UNL d   1      58.806  49.409  51.779  0.00  0.00    -0.265 OA
ENDBRANCH  17  18
ENDBRANCH  16  17
ENDBRANCH  15  16
ENDBRANCH  14  15
ENDBRANCH   1  14
TORSDOF 9
ENDMDL
