MODEL 1
REMARK VINA RESULT:      -2.5      0.000      0.000
REMARK  5 active torsions:
REMARK  status: ('A' for Active; 'I' for Inactive)
REMARK    1  A    between atoms: S_8  and  C_2 
REMARK    2  A    between atoms: C_4  and  C_3 
REMARK    3  A    between atoms: C_18  and  S_8 
REMARK    4  A    between atoms: C_9  and  C_18 
REMARK       I    between atoms: N_11  and  C_9 
REMARK    5  A    between atoms: C_13  and  N_11 
ROOT
ATOM      1  C   UNL d   1      29.770  16.770 -23.918  0.00  0.00     0.096 A 
ATOM      2  C   UNL d   1      30.299  17.305 -24.321  0.00  0.00     0.120 A 
ATOM      3  C   UNL d   1      28.949  16.922 -23.920  0.00  0.00     0.085 A 
ATOM      4  N   UNL d   1      29.978  17.962 -24.703  0.00  0.00    -0.238 NA
ATOM      5  C   UNL d   1      30.052  16.112 -23.532  0.00  0.00     0.103 C 
ATOM      6  N   UNL d   1      30.335  15.453 -23.144  0.00  0.00    -0.191 NA
ATOM      7  C   UNL d   1      28.642  17.591 -24.310  0.00  0.00     0.024 A 
ATOM      8  C   UNL d   1      29.171  18.126 -24.713  0.00  0.00     0.082 A 
ATOM      9  C   UNL d   1      28.900  18.777 -25.097  0.00  0.00     0.021 C 
ENDROOT
BRANCH   2  10
ATOM     10  S   UNL d   1      31.107  17.140 -24.310  0.00  0.00    -0.062 SA
BRANCH  10  11
ATOM     11  C   UNL d   1      31.654  17.731 -24.152  0.00  0.00     0.099 C 
BRANCH  11  12
ATOM     12  C   UNL d   1      32.422  17.664 -24.454  0.00  0.00     0.281 C 
ATOM     13  N   UNL d   1      33.021  18.096 -24.118  0.00  0.00    -0.238 NA
ATOM     14  O   UNL d   1      32.573  17.157 -25.097  0.00  0.00    -0.265 OA
BRANCH  13  15
ATOM     15  C   UNL d   1      32.867  18.594 -23.484  0.00  0.00     0.088 C 
ATOM     16  C   UNL d   1      32.708  19.108 -22.840  0.00  0.00     0.025 C 
ATOM     17  C   UNL d   1      32.985  17.974 -22.970  0.00  0.00     0.025 C 
ATOM     18  C   UNL d   1      32.753  19.198 -24.005  0.00  0.00     0.025 C 
ENDBRANCH  13  15
ENDBRANCH  11  12
ENDBRANCH  10  11
ENDBRANCH   2  10
BRANCH   3  19
ATOM     19  C   UNL d   1      28.441  16.409 -23.533  0.00  0.00     0.419 C 
ATOM     20  F   UNL d   1      27.937  15.900 -23.149  0.00  0.00    -0.166 F 
ATOM     21  F   UNL d   1      28.412  15.932 -24.205  0.00  0.00    -0.166 F 
ATOM     22  F   UNL d   1      28.471  16.887 -22.859  0.00  0.00    -0.166 F 
ENDBRANCH   3  19
TORSDOF 5
ENDMDL
MODEL 2
REMARK VINA RESULT:      -0.3      3.604      5.251
REMARK  5 active torsions:
REMARK  status: ('A' for Active; 'I' for Inactive)
REMARK    1  A    between atoms: S_8  and  C_2 
REMARK    2  A    between atoms: C_4  and  C_3 
REMARK    3  A    between atoms: C_18  and  S_8 
REMARK    4  A    between atoms: C_9  and  C_18 
REMARK       I    between atoms: N_11  and  C_9 
REMARK    5  A    between atoms: C_13  and  N_11 
ROOT
ATOM      1  C   UNL d   1      32.806  21.139 -21.578  0.00  0.00     0.096 A 
ATOM      2  C   UNL d   1      33.100  20.773 -22.289  0.00  0.00     0.120 A 
ATOM      3  C   UNL d   1      32.658  21.960 -21.566  0.00  0.00     0.085 A 
ATOM      4  N   UNL d   1      33.230  21.248 -22.951  0.00  0.00    -0.238 NA
ATOM      5  C   UNL d   1      32.666  20.701 -20.906  0.00  0.00     0.103 C 
ATOM      6  N   UNL d   1      32.526  20.261 -20.233  0.00  0.00    -0.191 NA
ATOM      7  C   UNL d   1      32.795  22.426 -22.244  0.00  0.00     0.024 A 
ATOM      8  C   UNL d   1      33.089  22.059 -22.956  0.00  0.00     0.082 A 
ATOM      9  C   UNL d   1      33.229  22.486 -23.622  0.00  0.00     0.021 C 
ENDROOT
BRANCH   2  10
ATOM     10  S   UNL d   1      33.241  19.960 -22.284  0.00  0.00    -0.062 SA
BRANCH  10  11
ATOM     11  C   UNL d   1      32.946  19.479 -22.879  0.00  0.00     0.099 C 
BRANCH  11  12
ATOM     12  C   UNL d   1      32.946  18.657 -22.774  0.00  0.00     0.281 C 
ATOM     13  N   UNL d   1      32.694  18.177 -23.377  0.00  0.00    -0.238 NA
ATOM     14  O   UNL d   1      33.204  18.331 -22.052  0.00  0.00    -0.265 OA
BRANCH  13  15
ATOM     15  C   UNL d   1      32.441  18.505 -24.086  0.00  0.00     0.088 C 
ATOM     16  C   UNL d   1      32.177  18.839 -24.809  0.00  0.00     0.025 C 
ATOM     17  C   UNL d   1      33.214  18.562 -24.333  0.00  0.00     0.025 C 
ATOM     18  C   UNL d   1      31.680  18.441 -23.828  0.00  0.00     0.025 C 
ENDBRANCH  13  15
ENDBRANCH  11  12
ENDBRANCH  10  11
ENDBRANCH   2  10
BRANCH   3  19
ATOM     19  C   UNL d   1      32.375  22.312 -20.883  0.00  0.00     0.419 C 
ATOM     20  F   UNL d   1      32.095  22.661 -20.204  0.00  0.00    -0.166 F 
ATOM     21  F   UNL d   1      33.148  22.490 -20.655  0.00  0.00    -0.166 F 
ATOM     22  F   UNL d   1      31.601  22.133 -21.111  0.00  0.00    -0.166 F 
ENDBRANCH   3  19
TORSDOF 5
ENDMDL
MODEL 3
REMARK VINA RESULT:       0.4      1.141      2.151
REMARK  5 active torsions:
REMARK  status: ('A' for Active; 'I' for Inactive)
REMARK    1  A    between atoms: S_8  and  C_2 
REMARK    2  A    between atoms: C_4  and  C_3 
REMARK    3  A    between atoms: C_18  and  S_8 
REMARK    4  A    between atoms: C_9  and  C_18 
REMARK       I    between atoms: N_11  and  C_9 
REMARK    5  A    between atoms: C_13  and  N_11 
ROOT
ATOM      1  C   UNL d   1      29.136  16.731 -23.874  0.00  0.00     0.096 A 
ATOM      2  C   UNL d   1      29.976  16.586 -23.856  0.00  0.00     0.120 A 
ATOM      3  C   UNL d   1      28.654  16.440 -23.258  0.00  0.00     0.085 A 
ATOM      4  N   UNL d   1      30.288  16.158 -23.224  0.00  0.00    -0.238 NA
ATOM      5  C   UNL d   1      28.795  17.149 -24.483  0.00  0.00     0.103 C 
ATOM      6  N   UNL d   1      28.452  17.568 -25.093  0.00  0.00    -0.191 NA
ATOM      7  C   UNL d   1      28.986  16.010 -22.626  0.00  0.00     0.024 A 
ATOM      8  C   UNL d   1      29.826  15.865 -22.609  0.00  0.00     0.082 A 
ATOM      9  C   UNL d   1      30.170  15.453 -22.011  0.00  0.00     0.021 C 
ENDROOT
BRANCH   2  10
ATOM     10  S   UNL d   1      30.439  16.880 -24.473  0.00  0.00    -0.062 SA
BRANCH  10  11
ATOM     11  C   UNL d   1      31.256  16.810 -24.455  0.00  0.00     0.099 C 
BRANCH  11  12
ATOM     12  C   UNL d   1      31.723  17.448 -24.699  0.00  0.00     0.281 C 
ATOM     13  N   UNL d   1      32.531  17.393 -24.653  0.00  0.00    -0.238 NA
ATOM     14  O   UNL d   1      31.362  18.141 -24.990  0.00  0.00    -0.265 OA
BRANCH  13  15
ATOM     15  C   UNL d   1      32.882  16.708 -24.366  0.00  0.00     0.088 C 
ATOM     16  C   UNL d   1      33.241  16.011 -24.067  0.00  0.00     0.025 C 
ATOM     17  C   UNL d   1      32.783  16.355 -25.093  0.00  0.00     0.025 C 
ATOM     18  C   UNL d   1      32.973  17.071 -23.652  0.00  0.00     0.025 C 
ENDBRANCH  13  15
ENDBRANCH  11  12
ENDBRANCH  10  11
ENDBRANCH   2  10
BRANCH   3  19
ATOM     19  C   UNL d   1      27.847  16.579 -23.275  0.00  0.00     0.419 C 
ATOM     20  F   UNL d   1      27.046  16.718 -23.291  0.00  0.00    -0.166 F 
ATOM     21  F   UNL d   1      27.966  17.312 -22.914  0.00  0.00    -0.166 F 
ATOM     22  F   UNL d   1      27.728  15.845 -23.636  0.00  0.00    -0.166 F 
ENDBRANCH   3  19
TORSDOF 5
ENDMDL
