MODEL 1
REMARK VINA RESULT:      -5.4      0.000      0.000
REMARK  3 active torsions:
REMARK  status: ('A' for Active; 'I' for Inactive)
REMARK    1  A    between atoms: C_4  and  C_1 
REMARK    2  A    between atoms: O_10  and  C_4 
REMARK    3  A    between atoms: C_13  and  O_10 
ROOT
ATOM      1  C   UNL d   1      57.479  -0.032  31.134  0.00  0.00     0.121 A 
ATOM      2  C   UNL d   1      57.123  -0.744  31.408  0.00  0.00     0.204 A 
ATOM      3  C   UNL d   1      56.610  -0.714  32.041  0.00  0.00     0.057 A 
ATOM      4  N   UNL d   1      56.778   0.682  32.150  0.00  0.00    -0.244 NA
ATOM      5  C   UNL d   1      57.306   0.682  31.505  0.00  0.00     0.107 A 
ATOM      6  C   UNL d   1      56.438  -0.000  32.412  0.00  0.00     0.085 A 
ATOM      7  O   UNL d   1      57.294  -1.451  31.040  0.00  0.00    -0.286 OA
ATOM      8  C   UNL d   1      56.260  -1.422  32.309  0.00  0.00     0.005 A 
ATOM      9  C   UNL d   1      55.915   0.004  33.051  0.00  0.00     0.019 A 
ATOM     10  C   UNL d   1      55.734  -1.402  32.956  0.00  0.00     0.000 A 
ATOM     11  C   UNL d   1      55.561  -0.688  33.328  0.00  0.00     0.002 A 
ENDROOT
BRANCH   1  12
ATOM     12  C   UNL d   1      58.003  -0.053  30.489  0.00  0.00     0.305 C 
ATOM     13  O   UNL d   1      57.734  -0.283  29.740  0.00  0.00    -0.259 OA
BRANCH  12  14
ATOM     14  O   UNL d   1      58.774   0.151  30.593  0.00  0.00    -0.271 OA
BRANCH  14  15
ATOM     15  C   UNL d   1      59.249   0.311  29.938  0.00  0.00     0.126 C 
ATOM     16  C   UNL d   1      60.020   0.609  30.042  0.00  0.00     0.029 C 
ENDBRANCH  14  15
ENDBRANCH  12  14
ENDBRANCH   1  12
TORSDOF 3
ENDMDL
MODEL 2
REMARK VINA RESULT:      -4.2      1.202      3.364
REMARK  3 active torsions:
REMARK  status: ('A' for Active; 'I' for Inactive)
REMARK    1  A    between atoms: C_4  and  C_1 
REMARK    2  A    between atoms: O_10  and  C_4 
REMARK    3  A    between atoms: C_13  and  O_10 
ROOT
ATOM      1  C   UNL d   1      56.816  -0.273  32.209  0.00  0.00     0.121 A 
ATOM      2  C   UNL d   1      57.009  -0.763  31.552  0.00  0.00     0.204 A 
ATOM      3  C   UNL d   1      57.572  -0.512  31.020  0.00  0.00     0.057 A 
ATOM      4  N   UNL d   1      57.769   0.682  31.745  0.00  0.00    -0.244 NA
ATOM      5  C   UNL d   1      57.196   0.451  32.305  0.00  0.00     0.107 A 
ATOM      6  C   UNL d   1      57.953   0.211  31.116  0.00  0.00     0.085 A 
ATOM      7  O   UNL d   1      56.632  -1.480  31.457  0.00  0.00    -0.286 OA
ATOM      8  C   UNL d   1      57.760  -1.001  30.371  0.00  0.00     0.005 A 
ATOM      9  C   UNL d   1      58.520   0.444  30.563  0.00  0.00     0.019 A 
ATOM     10  C   UNL d   1      58.335  -0.753  29.820  0.00  0.00     0.000 A 
ATOM     11  C   UNL d   1      58.715  -0.030  29.917  0.00  0.00     0.002 A 
ENDROOT
BRANCH   1  12
ATOM     12  C   UNL d   1      56.242  -0.521  32.757  0.00  0.00     0.305 C 
ATOM     13  O   UNL d   1      56.262  -1.290  33.062  0.00  0.00    -0.259 OA
BRANCH  12  14
ATOM     14  O   UNL d   1      55.666  -0.010  32.992  0.00  0.00    -0.271 OA
BRANCH  14  15
ATOM     15  C   UNL d   1      55.159  -0.219  33.607  0.00  0.00     0.126 C 
ATOM     16  C   UNL d   1      54.701   0.363  33.989  0.00  0.00     0.029 C 
ENDBRANCH  14  15
ENDBRANCH  12  14
ENDBRANCH   1  12
TORSDOF 3
ENDMDL
MODEL 3
REMARK VINA RESULT:      -4.0      1.220      1.759
REMARK  3 active torsions:
REMARK  status: ('A' for Active; 'I' for Inactive)
REMARK    1  A    between atoms: C_4  and  C_1 
REMARK    2  A    between atoms: O_10  and  C_4 
REMARK    3  A    between atoms: C_13  and  O_10 
ROOT
ATOM      1  C   UNL d   1      56.942  -0.751  31.514  0.00  0.00     0.121 A 
ATOM      2  C   UNL d   1      56.711  -0.025  31.872  0.00  0.00     0.204 A 
ATOM      3  C   UNL d   1      56.232  -0.041  32.531  0.00  0.00     0.057 A 
ATOM      4  N   UNL d   1      56.195  -1.451  32.506  0.00  0.00    -0.244 NA
ATOM      5  C   UNL d   1      56.684  -1.465  31.832  0.00  0.00     0.107 A 
ATOM      6  C   UNL d   1      55.974  -0.755  32.849  0.00  0.00     0.085 A 
ATOM      7  O   UNL d   1      56.967   0.682  31.557  0.00  0.00    -0.286 OA
ATOM      8  C   UNL d   1      56.006   0.680  32.882  0.00  0.00     0.005 A 
ATOM      9  C   UNL d   1      55.490  -0.745  33.517  0.00  0.00     0.019 A 
ATOM     10  C   UNL d   1      55.516   0.675  33.557  0.00  0.00     0.000 A 
ATOM     11  C   UNL d   1      55.258  -0.039  33.875  0.00  0.00     0.002 A 
ENDROOT
BRANCH   1  12
ATOM     12  C   UNL d   1      57.430  -0.744  30.841  0.00  0.00     0.305 C 
ATOM     13  O   UNL d   1      57.595  -0.032  30.452  0.00  0.00    -0.259 OA
BRANCH  12  14
ATOM     14  O   UNL d   1      57.744  -1.433  30.567  0.00  0.00    -0.271 OA
BRANCH  14  15
ATOM     15  C   UNL d   1      58.150  -1.442  29.850  0.00  0.00     0.126 C 
ATOM     16  C   UNL d   1      58.506  -2.145  29.579  0.00  0.00     0.029 C 
ENDBRANCH  14  15
ENDBRANCH  12  14
ENDBRANCH   1  12
TORSDOF 3
ENDMDL
MODEL 4
REMARK VINA RESULT:      -3.2      1.085      3.569
REMARK  3 active torsions:
REMARK  status: ('A' for Active; 'I' for Inactive)
REMARK    1  A    between atoms: C_4  and  C_1 
REMARK    2  A    between atoms: O_10  and  C_4 
REMARK    3  A    between atoms: C_13  and  O_10 
ROOT
ATOM      1  C   UNL d   1      57.802   0.258  31.242  0.00  0.00     0.121 A 
ATOM      2  C   UNL d   1      57.965   0.063  30.439  0.00  0.00     0.204 A 
ATOM      3  C   UNL d   1      58.716   0.186  30.145  0.00  0.00     0.057 A 
ATOM      4  N   UNL d   1      59.156   0.682  31.390  0.00  0.00    -0.244 NA
ATOM      5  C   UNL d   1      58.398   0.567  31.718  0.00  0.00     0.107 A 
ATOM      6  C   UNL d   1      59.311   0.496  30.621  0.00  0.00     0.085 A 
ATOM      7  O   UNL d   1      57.375  -0.243  29.968  0.00  0.00    -0.286 OA
ATOM      8  C   UNL d   1      58.873  -0.008  29.350  0.00  0.00     0.005 A 
ATOM      9  C   UNL d   1      60.063   0.611  30.300  0.00  0.00     0.019 A 
ATOM     10  C   UNL d   1      59.637   0.114  29.039  0.00  0.00     0.000 A 
ATOM     11  C   UNL d   1      60.233   0.424  29.514  0.00  0.00     0.002 A 
ENDROOT
BRANCH   1  12
ATOM     12  C   UNL d   1      57.040   0.136  31.551  0.00  0.00     0.305 C 
ATOM     13  O   UNL d   1      56.433   0.676  31.390  0.00  0.00    -0.259 OA
BRANCH  12  14
ATOM     14  O   UNL d   1      56.891  -0.510  32.008  0.00  0.00    -0.271 OA
BRANCH  14  15
ATOM     15  C   UNL d   1      56.248  -0.509  32.523  0.00  0.00     0.126 C 
ATOM     16  C   UNL d   1      55.926  -1.228  32.792  0.00  0.00     0.029 C 
ENDBRANCH  14  15
ENDBRANCH  12  14
ENDBRANCH   1  12
TORSDOF 3
ENDMDL
MODEL 5
REMARK VINA RESULT:      -3.1      1.476      2.015
REMARK  3 active torsions:
REMARK  status: ('A' for Active; 'I' for Inactive)
REMARK    1  A    between atoms: C_4  and  C_1 
REMARK    2  A    between atoms: O_10  and  C_4 
REMARK    3  A    between atoms: C_13  and  O_10 
ROOT
ATOM      1  C   UNL d   1      56.913   0.245  32.613  0.00  0.00     0.121 A 
ATOM      2  C   UNL d   1      56.103   0.231  32.841  0.00  0.00     0.204 A 
ATOM      3  C   UNL d   1      55.906   0.373  33.619  0.00  0.00     0.057 A 
ATOM      4  N   UNL d   1      57.264   0.542  33.963  0.00  0.00    -0.244 NA
ATOM      5  C   UNL d   1      57.494   0.401  33.175  0.00  0.00     0.107 A 
ATOM      6  C   UNL d   1      56.487   0.529  34.181  0.00  0.00     0.085 A 
ATOM      7  O   UNL d   1      55.528   0.077  32.285  0.00  0.00    -0.286 OA
ATOM      8  C   UNL d   1      55.102   0.358  33.840  0.00  0.00     0.005 A 
ATOM      9  C   UNL d   1      56.263   0.669  34.963  0.00  0.00     0.019 A 
ATOM     10  C   UNL d   1      54.890   0.502  34.634  0.00  0.00     0.000 A 
ATOM     11  C   UNL d   1      55.471   0.658  35.196  0.00  0.00     0.002 A 
ENDROOT
BRANCH   1  12
ATOM     12  C   UNL d   1      57.123   0.101  31.822  0.00  0.00     0.305 C 
ATOM     13  O   UNL d   1      56.952  -0.629  31.470  0.00  0.00    -0.259 OA
BRANCH  12  14
ATOM     14  O   UNL d   1      57.495   0.674  31.395  0.00  0.00    -0.271 OA
BRANCH  14  15
ATOM     15  C   UNL d   1      57.786   0.503  30.644  0.00  0.00     0.126 C 
ATOM     16  C   UNL d   1      58.578   0.678  30.451  0.00  0.00     0.029 C 
ENDBRANCH  14  15
ENDBRANCH  12  14
ENDBRANCH   1  12
TORSDOF 3
ENDMDL
MODEL 6
REMARK VINA RESULT:      -2.5      8.244      9.160
REMARK  3 active torsions:
REMARK  status: ('A' for Active; 'I' for Inactive)
REMARK    1  A    between atoms: C_4  and  C_1 
REMARK    2  A    between atoms: O_10  and  C_4 
REMARK    3  A    between atoms: C_13  and  O_10 
ROOT
ATOM      1  C   UNL d   1      59.679  -8.304  34.848  0.00  0.00     0.121 A 
ATOM      2  C   UNL d   1      60.387  -8.047  35.223  0.00  0.00     0.204 A 
ATOM      3  C   UNL d   1      60.403  -7.317  35.584  0.00  0.00     0.057 A 
ATOM      4  N   UNL d   1      59.059  -7.077  35.227  0.00  0.00    -0.244 NA
ATOM      5  C   UNL d   1      59.014  -7.819  34.850  0.00  0.00     0.107 A 
ATOM      6  C   UNL d   1      59.738  -6.831  35.587  0.00  0.00     0.085 A 
ATOM      7  O   UNL d   1      61.045  -8.528  35.221  0.00  0.00    -0.286 OA
ATOM      8  C   UNL d   1      61.106  -7.065  35.955  0.00  0.00     0.005 A 
ATOM      9  C   UNL d   1      59.779  -6.096  35.959  0.00  0.00     0.019 A 
ATOM     10  C   UNL d   1      61.133  -6.320  36.328  0.00  0.00     0.000 A 
ATOM     11  C   UNL d   1      60.469  -5.835  36.330  0.00  0.00     0.002 A 
ENDROOT
BRANCH   1  12
ATOM     12  C   UNL d   1      59.654  -9.048  34.477  0.00  0.00     0.305 C 
ATOM     13  O   UNL d   1      59.627  -9.740  34.930  0.00  0.00    -0.259 OA
BRANCH  12  14
ATOM     14  O   UNL d   1      59.655  -9.095  33.673  0.00  0.00    -0.271 OA
BRANCH  14  15
ATOM     15  C   UNL d   1      59.360  -9.768  33.301  0.00  0.00     0.126 C 
ATOM     16  C   UNL d   1      59.188  -9.755  32.486  0.00  0.00     0.029 C 
ENDBRANCH  14  15
ENDBRANCH  12  14
ENDBRANCH   1  12
TORSDOF 3
ENDMDL
