MODEL 1
REMARK VINA RESULT:      10.2      0.000      0.000
REMARK  7 active torsions:
REMARK  status: ('A' for Active; 'I' for Inactive)
REMARK    1  A    between atoms: N_4  and  C_2 
REMARK    2  A    between atoms: S_9  and  C_3 
REMARK    3  A    between atoms: C_8  and  C_13 
REMARK    4  A    between atoms: O_11  and  C_8 
REMARK    5  A    between atoms: C_13  and  S_9 
REMARK    6  A    between atoms: C_14  and  O_11 
REMARK    7  A    between atoms: C_17  and  C_14 
ROOT
ATOM      1  N   UNL d   1      46.208 -18.008  43.599  0.00  0.00    -0.203 NA
ATOM      2  C   UNL d   1      46.422 -18.691  43.191  0.00  0.00     0.152 A 
ATOM      3  C   UNL d   1      46.140 -18.023  44.425  0.00  0.00     0.196 A 
ATOM      4  C   UNL d   1      46.567 -19.387  43.604  0.00  0.00     0.057 A 
ATOM      5  N   UNL d   1      46.286 -18.720  44.839  0.00  0.00    -0.221 NA
ATOM      6  C   UNL d   1      46.500 -19.402  44.430  0.00  0.00     0.087 A 
ATOM      7  C   UNL d   1      46.647 -20.103  44.844  0.00  0.00     0.021 C 
ENDROOT
BRANCH   3   8
ATOM      8  S   UNL d   1      45.925 -17.332  44.834  0.00  0.00    -0.043 SA
BRANCH   8   9
ATOM      9  C   UNL d   1      46.004 -16.597  44.467  0.00  0.00     0.107 C 
BRANCH   9  10
ATOM     10  C   UNL d   1      45.488 -15.986  44.664  0.00  0.00     0.307 C 
ATOM     11  O   UNL d   1      44.737 -16.150  44.955  0.00  0.00    -0.258 OA
BRANCH  10  12
ATOM     12  O   UNL d   1      45.729 -15.198  44.569  0.00  0.00    -0.271 OA
BRANCH  12  13
ATOM     13  C   UNL d   1      45.171 -14.592  44.576  0.00  0.00     0.126 C 
BRANCH  13  14
ATOM     14  C   UNL d   1      45.389 -13.827  44.357  0.00  0.00     0.025 A 
ATOM     15  C   UNL d   1      45.835 -13.363  44.884  0.00  0.00     0.002 A 
ATOM     16  C   UNL d   1      46.053 -12.598  44.665  0.00  0.00     0.000 A 
ATOM     17  C   UNL d   1      45.824 -12.302  43.921  0.00  0.00     0.000 A 
ATOM     18  C   UNL d   1      45.380 -12.775  43.408  0.00  0.00     0.000 A 
ATOM     19  C   UNL d   1      45.164 -13.532  43.625  0.00  0.00     0.002 A 
ENDBRANCH  13  14
ENDBRANCH  12  13
ENDBRANCH  10  12
ENDBRANCH   9  10
ENDBRANCH   8   9
ENDBRANCH   3   8
BRANCH   2  20
ATOM     20  N   UNL d   1      46.490 -18.681  42.368  0.00  0.00    -0.285 N 
ATOM     21  C   UNL d   1      46.469 -17.958  41.965  0.00  0.00     0.108 A 
ATOM     22  C   UNL d   1      46.537 -17.944  41.147  0.00  0.00     0.142 A 
ATOM     23  O   UNL d   1      46.626 -18.648  40.729  0.00  0.00    -0.300 OA
ATOM     24  C   UNL d   1      46.646 -19.369  41.131  0.00  0.00     0.142 A 
ATOM     25  C   UNL d   1      46.578 -19.383  41.953  0.00  0.00     0.108 A 
ENDBRANCH   2  20
TORSDOF 7
ENDMDL
