MODEL 1
REMARK VINA RESULT:      55.1      0.000      0.000
REMARK  7 active torsions:
REMARK  status: ('A' for Active; 'I' for Inactive)
REMARK    1  A    between atoms: S_8  and  C_3 
REMARK    2  A    between atoms: C_4  and  C_15 
REMARK       I    between atoms: N_7  and  C_4 
REMARK    3  A    between atoms: C_13  and  C_5 
REMARK    4  A    between atoms: C_6  and  C_9 
REMARK    5  A    between atoms: C_9  and  N_7 
REMARK    6  A    between atoms: C_15  and  S_8 
REMARK    7  A    between atoms: O_17  and  C_11 
ROOT
ATOM      1  S   UNL d   1     -55.602-102.345 -41.709  0.00  0.00    -0.061 SA
ENDROOT
BRANCH   1   2
ATOM      2  C   UNL d   1     -55.499-102.323 -40.882  0.00  0.00     0.133 A 
ATOM      3  N   UNL d   1     -55.928-102.830 -40.391  0.00  0.00    -0.141 NA
ATOM      4  N   UNL d   1     -55.816-102.798 -39.567  0.00  0.00    -0.148 NA
ATOM      5  C   UNL d   1     -55.280-102.264 -39.242  0.00  0.00     0.103 A 
ATOM      6  C   UNL d   1     -54.850-101.758 -39.734  0.00  0.00     0.023 A 
ATOM      7  C   UNL d   1     -54.958-101.786 -40.550  0.00  0.00     0.029 A 
BRANCH   5   8
ATOM      8  C   UNL d   1     -55.172-102.236 -38.425  0.00  0.00     0.022 A 
ATOM      9  C   UNL d   1     -55.401-102.875 -37.958  0.00  0.00     0.022 A 
ATOM     10  C   UNL d   1     -55.293-102.849 -37.138  0.00  0.00     0.099 A 
ATOM     11  N   UNL d   1     -54.954-102.177 -36.787  0.00  0.00    -0.242 NA
ATOM     12  C   UNL d   1     -54.724-101.536 -37.257  0.00  0.00     0.099 A 
ATOM     13  C   UNL d   1     -54.833-101.565 -38.073  0.00  0.00     0.022 A 
ENDBRANCH   5   8
ENDBRANCH   1   2
BRANCH   1  14
ATOM     14  C   UNL d   1     -54.990-102.113 -42.213  0.00  0.00     0.099 C 
BRANCH  14  15
ATOM     15  C   UNL d   1     -55.009-101.369 -42.565  0.00  0.00     0.286 C 
ATOM     16  N   UNL d   1     -55.324-101.277 -43.332  0.00  0.00    -0.206 NA
ATOM     17  O   UNL d   1     -54.715-100.711 -42.158  0.00  0.00    -0.265 OA
BRANCH  16  18
ATOM     18  C   UNL d   1     -55.343-100.532 -43.684  0.00  0.00     0.104 C 
BRANCH  18  19
ATOM     19  C   UNL d   1     -56.049-100.247 -44.015  0.00  0.00     0.042 A 
ATOM     20  C   UNL d   1     -56.079 -99.486 -44.330  0.00  0.00     0.096 A 
ATOM     21  C   UNL d   1     -56.781 -99.201 -44.659  0.00  0.00     0.024 A 
ATOM     22  C   UNL d   1     -57.453 -99.678 -44.674  0.00  0.00     0.002 A 
ATOM     23  C   UNL d   1     -57.423-100.439 -44.359  0.00  0.00     0.000 A 
ATOM     24  C   UNL d   1     -56.720-100.723 -44.030  0.00  0.00     0.004 A 
BRANCH  20  25
ATOM     25  O   UNL d   1     -55.390 -99.002 -44.312  0.00  0.00    -0.328 OA
ATOM     26  C   UNL d   1     -54.713 -99.266 -43.921  0.00  0.00     0.181 C 
ENDBRANCH  20  25
ENDBRANCH  18  19
ENDBRANCH  16  18
ENDBRANCH  14  15
ENDBRANCH   1  14
TORSDOF 7
ENDMDL
