MODEL 1
REMARK VINA RESULT:      -4.0      0.000      0.000
REMARK  3 active torsions:
REMARK  status: ('A' for Active; 'I' for Inactive)
REMARK    1  A    between atoms: N_2  and  S_1 
REMARK    2  A    between atoms: C_3  and  S_1 
REMARK    3  A    between atoms: C_10  and  C_9 
ROOT
ATOM      1  C   UNL d   1      57.868  -0.039  29.988  0.00  0.00     0.104 A 
ATOM      2  C   UNL d   1      57.040  -0.064  31.421  0.00  0.00     0.000 A 
ATOM      3  C   UNL d   1      57.633   0.666  30.342  0.00  0.00     0.013 A 
ATOM      4  C   UNL d   1      57.690  -0.762  30.350  0.00  0.00     0.013 A 
ATOM      5  C   UNL d   1      57.275  -0.774  31.067  0.00  0.00     0.001 A 
ATOM      6  C   UNL d   1      57.218   0.654  31.059  0.00  0.00     0.001 A 
ENDROOT
BRANCH   1   7
ATOM      7  S   UNL d   1      58.281  -0.018  29.275  0.00  0.00     0.271 S 
ATOM      8  O   UNL d   1      57.578  -0.015  28.860  0.00  0.00    -0.200 OA
ATOM      9  O   UNL d   1      58.698   0.002  28.569  0.00  0.00    -0.200 OA
BRANCH   7  10
ATOM     10  N   UNL d   1      58.995  -0.021  29.687  0.00  0.00    -0.226 N 
ATOM     11  C   UNL d   1      59.262   0.682  30.040  0.00  0.00     0.111 A 
ATOM     12  C   UNL d   1      59.977   0.680  30.453  0.00  0.00     0.100 A 
ATOM     13  N   UNL d   1      60.413  -0.013  30.508  0.00  0.00    -0.299 N 
ATOM     14  C   UNL d   1      60.152  -0.708  30.161  0.00  0.00     0.100 A 
ATOM     15  C   UNL d   1      61.133  -0.007  30.926  0.00  0.00     0.100 C 
ATOM     16  C   UNL d   1      59.439  -0.710  29.748  0.00  0.00     0.111 A 
ENDBRANCH   7  10
ENDBRANCH   1   7
BRANCH   2  17
ATOM     17  C   UNL d   1      56.628  -0.069  32.131  0.00  0.00     0.000 A 
ATOM     18  C   UNL d   1      56.412  -0.779  32.486  0.00  0.00     0.001 A 
ATOM     19  C   UNL d   1      55.998  -0.775  33.199  0.00  0.00     0.011 A 
ATOM     20  C   UNL d   1      55.801  -0.062  33.559  0.00  0.00     0.058 A 
ATOM     21  C   UNL d   1      56.022   0.657  33.197  0.00  0.00     0.011 A 
ATOM     22 CL   UNL d   1      55.393  -0.058  34.265  0.00  0.00    -0.082 Cl
ATOM     23  C   UNL d   1      56.432   0.646  32.490  0.00  0.00     0.001 A 
ENDBRANCH   2  17
TORSDOF 3
ENDMDL
MODEL 2
REMARK VINA RESULT:      -3.5      0.648      1.215
REMARK  3 active torsions:
REMARK  status: ('A' for Active; 'I' for Inactive)
REMARK    1  A    between atoms: N_2  and  S_1 
REMARK    2  A    between atoms: C_3  and  S_1 
REMARK    3  A    between atoms: C_10  and  C_9 
ROOT
ATOM      1  C   UNL d   1      58.114   0.101  29.858  0.00  0.00     0.104 A 
ATOM      2  C   UNL d   1      57.300  -0.241  31.257  0.00  0.00     0.000 A 
ATOM      3  C   UNL d   1      57.788  -0.646  29.974  0.00  0.00     0.013 A 
ATOM      4  C   UNL d   1      58.035   0.682  30.442  0.00  0.00     0.013 A 
ATOM      5  C   UNL d   1      57.627   0.510  31.143  0.00  0.00     0.001 A 
ATOM      6  C   UNL d   1      57.380  -0.817  30.675  0.00  0.00     0.001 A 
ENDROOT
BRANCH   1   7
ATOM      7  S   UNL d   1      58.518   0.264  29.158  0.00  0.00     0.271 S 
ATOM      8  O   UNL d   1      57.875   0.678  28.874  0.00  0.00    -0.200 OA
ATOM      9  O   UNL d   1      58.927   0.422  28.464  0.00  0.00    -0.200 OA
BRANCH   7  10
ATOM     10  N   UNL d   1      59.173  -0.153  29.438  0.00  0.00    -0.226 N 
ATOM     11  C   UNL d   1      59.218  -0.972  29.305  0.00  0.00     0.111 A 
ATOM     12  C   UNL d   1      59.873  -1.390  29.585  0.00  0.00     0.100 A 
ATOM     13  N   UNL d   1      60.467  -0.993  29.988  0.00  0.00    -0.299 N 
ATOM     14  C   UNL d   1      60.425  -0.186  30.120  0.00  0.00     0.100 A 
ATOM     15  C   UNL d   1      61.125  -1.422  30.267  0.00  0.00     0.100 C 
ATOM     16  C   UNL d   1      59.773   0.235  29.843  0.00  0.00     0.111 A 
ENDBRANCH   7  10
ENDBRANCH   1   7
BRANCH   2  17
ATOM     17  C   UNL d   1      56.895  -0.418  31.949  0.00  0.00     0.000 A 
ATOM     18  C   UNL d   1      56.912   0.099  32.589  0.00  0.00     0.001 A 
ATOM     19  C   UNL d   1      56.502  -0.086  33.280  0.00  0.00     0.011 A 
ATOM     20  C   UNL d   1      56.075  -0.788  33.333  0.00  0.00     0.058 A 
ATOM     21  C   UNL d   1      56.060  -1.311  32.682  0.00  0.00     0.011 A 
ATOM     22 CL   UNL d   1      55.670  -0.971  34.017  0.00  0.00    -0.082 Cl
ATOM     23  C   UNL d   1      56.468  -1.121  32.000  0.00  0.00     0.001 A 
ENDBRANCH   2  17
TORSDOF 3
ENDMDL
