MODEL 1
REMARK VINA RESULT:       5.6      0.000      0.000
REMARK  8 active torsions:
REMARK  status: ('A' for Active; 'I' for Inactive)
REMARK    1  A    between atoms: C_9  and  N_1 
REMARK    2  A    between atoms: C_7  and  C_2 
REMARK    3  A    between atoms: C_6  and  C_4 
REMARK    4  A    between atoms: C_8  and  C_12 
REMARK       I    between atoms: N_25  and  C_8 
REMARK    5  A    between atoms: N_11  and  C_26 
REMARK    6  A    between atoms: C_30  and  N_25 
REMARK    7  A    between atoms: C_26  and  C_27 
REMARK    8  A    between atoms: C_27  and  C_30 
ROOT
ATOM      1  C   UNL d   1     -41.836-122.476 -50.204  0.00  0.00     0.083 A 
ATOM      2  C   UNL d   1     -41.573-122.025 -51.769  0.00  0.00     0.058 A 
ATOM      3  C   UNL d   1     -42.280-121.865 -50.531  0.00  0.00     0.019 A 
ATOM      4  C   UNL d   1     -41.262-122.864 -50.652  0.00  0.00     0.019 A 
ATOM      5  C   UNL d   1     -41.129-122.643 -51.430  0.00  0.00     0.006 A 
ATOM      6  C   UNL d   1     -42.150-121.641 -51.306  0.00  0.00     0.006 A 
ENDROOT
BRANCH   1   7
ATOM      7  N   UNL d   1     -41.963-122.707 -49.418  0.00  0.00    -0.229 N 
ATOM      8  C   UNL d   1     -42.629-123.090 -49.123  0.00  0.00     0.090 A 
ATOM      9  C   UNL d   1     -42.518-123.211 -48.315  0.00  0.00     0.044 A 
ATOM     10  C   UNL d   1     -41.778-122.899 -48.118  0.00  0.00     0.174 A 
ATOM     11  N   UNL d   1     -41.446-122.592 -48.802  0.00  0.00    -0.161 NA
BRANCH   8  12
ATOM     12  C   UNL d   1     -43.326-123.347 -49.481  0.00  0.00     0.047 A 
ATOM     13  S   UNL d   1     -43.641-123.789 -50.114  0.00  0.00    -0.085 SA
ATOM     14  C   UNL d   1     -44.469-123.762 -50.061  0.00  0.00     0.035 A 
ATOM     15  C   UNL d   1     -44.660-123.309 -49.404  0.00  0.00     0.007 A 
ATOM     16  C   UNL d   1     -43.974-123.053 -49.047  0.00  0.00     0.009 A 
ENDBRANCH   8  12
BRANCH  10  17
ATOM     17  C   UNL d   1     -41.435-122.898 -47.364  0.00  0.00     0.437 C 
ATOM     18  F   UNL d   1     -41.224-122.227 -46.859  0.00  0.00    -0.164 F 
ATOM     19  F   UNL d   1     -41.192-123.566 -46.869  0.00  0.00    -0.164 F 
ATOM     20  F   UNL d   1     -41.123-122.896 -46.676  0.00  0.00    -0.164 F 
ENDBRANCH  10  17
ENDBRANCH   1   7
BRANCH   2  21
ATOM     21  C   UNL d   1     -41.442-121.800 -52.553  0.00  0.00     0.279 C 
ATOM     22  O   UNL d   1     -41.496-121.008 -52.765  0.00  0.00    -0.265 OA
ATOM     23  N   UNL d   1     -41.257-122.372 -53.117  0.00  0.00    -0.206 NA
BRANCH  23  24
ATOM     24  C   UNL d   1     -41.126-122.146 -53.897  0.00  0.00     0.104 C 
BRANCH  24  25
ATOM     25  C   UNL d   1     -41.237-122.691 -54.512  0.00  0.00     0.040 C 
BRANCH  25  26
ATOM     26  C   UNL d   1     -41.229-122.445 -55.293  0.00  0.00     0.082 C 
BRANCH  26  27
ATOM     27  N   UNL d   1     -41.935-122.334 -55.709  0.00  0.00    -0.299 N 
ATOM     28  C   UNL d   1     -42.082-121.612 -56.084  0.00  0.00     0.107 A 
ATOM     29  C   UNL d   1     -42.788-121.512 -56.496  0.00  0.00     0.142 A 
ATOM     30  O   UNL d   1     -43.339-122.120 -56.534  0.00  0.00    -0.300 OA
ATOM     31  C   UNL d   1     -43.187-122.836 -56.159  0.00  0.00     0.142 A 
ATOM     32  C   UNL d   1     -42.478-122.949 -55.740  0.00  0.00     0.107 A 
ENDBRANCH  26  27
ENDBRANCH  25  26
ENDBRANCH  24  25
ENDBRANCH  23  24
ENDBRANCH   2  21
TORSDOF 8
ENDMDL
