MODEL 1
REMARK VINA RESULT:       0.6      0.000      0.000
REMARK  7 active torsions:
REMARK  status: ('A' for Active; 'I' for Inactive)
REMARK    1  A    between atoms: N_10  and  C_4 
REMARK    2  A    between atoms: C_16  and  N_5 
REMARK    3  A    between atoms: C_18  and  N_11 
REMARK    4  A    between atoms: C_22  and  C_16 
REMARK    5  A    between atoms: C_21  and  C_18 
REMARK    6  A    between atoms: C_24  and  C_22 
REMARK    7  A    between atoms: C_23  and  C_24 
ROOT
ATOM      1  C   UNL d   1      32.660  22.539 -22.901  0.00  0.00     0.191 A 
ATOM      2  C   UNL d   1      32.884  21.746 -22.876  0.00  0.00     0.174 A 
ATOM      3  N   UNL d   1      32.643  22.830 -22.128  0.00  0.00    -0.042 NA
ATOM      4  C   UNL d   1      32.860  22.201 -21.635  0.00  0.00     0.722 A 
ATOM      5  N   UNL d   1      33.009  21.532 -22.088  0.00  0.00    -0.132 N 
ATOM      6  N   UNL d   1      32.496  22.908 -23.626  0.00  0.00    -0.239 N 
ATOM      7  C   UNL d   1      32.560  22.466 -24.344  0.00  0.00     0.358 A 
ATOM      8  N   UNL d   1      32.783  21.674 -24.320  0.00  0.00    -0.152 NA
ATOM      9  C   UNL d   1      32.947  21.309 -23.577  0.00  0.00     0.303 A 
ATOM     10  O   UNL d   1      32.394  22.834 -25.091  0.00  0.00    -0.244 OA
ATOM     11  O   UNL d   1      33.173  20.509 -23.553  0.00  0.00    -0.263 OA
ATOM     12  C   UNL d   1      32.272  23.700 -23.651  0.00  0.00     0.105 C 
ENDROOT
BRANCH   4  13
ATOM     13  N   UNL d   1      32.917  22.243 -20.810  0.00  0.00    -0.136 N 
ATOM     14  C   UNL d   1      32.847  22.972 -20.427  0.00  0.00     0.117 A 
ATOM     15  C   UNL d   1      32.904  23.013 -19.606  0.00  0.00     0.100 A 
ATOM     16  N   UNL d   1      33.030  22.329 -19.167  0.00  0.00    -0.300 N 
ATOM     17  C   UNL d   1      33.102  21.592 -19.541  0.00  0.00     0.100 A 
ATOM     18  C   UNL d   1      33.045  21.550 -20.370  0.00  0.00     0.117 A 
BRANCH  16  19
ATOM     19  C   UNL d   1      33.136  21.957 -18.441  0.00  0.00     0.080 C 
BRANCH  19  20
ATOM     20  C   UNL d   1      33.115  22.395 -17.747  0.00  0.00     0.018 A 
ATOM     21  C   UNL d   1      33.110  22.012 -17.026  0.00  0.00     0.002 A 
ATOM     22  C   UNL d   1      33.089  22.447 -16.329  0.00  0.00     0.000 A 
ATOM     23  C   UNL d   1      33.073  23.269 -16.359  0.00  0.00     0.000 A 
ATOM     24  C   UNL d   1      33.078  23.653 -17.090  0.00  0.00     0.000 A 
ATOM     25  C   UNL d   1      33.100  23.213 -17.780  0.00  0.00     0.002 A 
ENDBRANCH  19  20
ENDBRANCH  16  19
ENDBRANCH   4  13
BRANCH   5  26
ATOM     26  C   UNL d   1      33.241  20.774 -21.854  0.00  0.00     0.098 C 
BRANCH  26  27
ATOM     27  C   UNL d   1      32.951  20.112 -22.258  0.00  0.00     0.020 C 
BRANCH  27  28
ATOM     28  C   UNL d   1      32.927  19.378 -21.878  0.00  0.00     0.002 C 
BRANCH  28  29
ATOM     29  C   UNL d   1      32.747  18.698 -22.313  0.00  0.00     0.000 A 
ATOM     30  C   UNL d   1      33.179  18.015 -22.186  0.00  0.00     0.000 A 
ATOM     31  C   UNL d   1      33.004  17.330 -22.618  0.00  0.00     0.000 A 
ATOM     32  C   UNL d   1      32.391  17.342 -23.177  0.00  0.00     0.000 A 
ATOM     33  C   UNL d   1      31.957  18.035 -23.302  0.00  0.00     0.000 A 
ATOM     34  C   UNL d   1      32.137  18.716 -22.867  0.00  0.00     0.000 A 
ENDBRANCH  28  29
ENDBRANCH  27  28
ENDBRANCH  26  27
ENDBRANCH   5  26
TORSDOF 7
ENDMDL
