MODEL 1
REMARK VINA RESULT:      22.1      0.000      0.000
REMARK  3 active torsions:
REMARK  status: ('A' for Active; 'I' for Inactive)
REMARK    1  A    between atoms: S_9  and  C_3 
REMARK    2  A    between atoms: C_15  and  S_9 
REMARK    3  A    between atoms: C_11  and  C_15 
ROOT
ATOM      1  N   UNL d   1      46.306 -17.571  43.375  0.00  0.00    -0.263 N 
ATOM      2  C   UNL d   1      46.486 -17.778  42.588  0.00  0.00     0.202 A 
ATOM      3  C   UNL d   1      46.176 -16.749  43.385  0.00  0.00     0.202 A 
ATOM      4  N   UNL d   1      46.469 -17.099  42.124  0.00  0.00    -0.121 NA
ATOM      5  S   UNL d   1      46.618 -18.607  42.574  0.00  0.00    -0.047 SA
ATOM      6  N   UNL d   1      46.275 -16.459  42.622  0.00  0.00    -0.121 NA
ATOM      7  C   UNL d   1      46.325 -18.257  43.835  0.00  0.00     0.074 A 
ATOM      8  C   UNL d   1      46.516 -18.895  43.348  0.00  0.00     0.049 A 
ATOM      9  C   UNL d   1      46.191 -18.376  44.639  0.00  0.00     0.018 A 
ATOM     10  C   UNL d   1      46.572 -19.641  43.664  0.00  0.00     0.008 A 
ATOM     11  C   UNL d   1      46.249 -19.136  44.954  0.00  0.00     0.002 A 
ATOM     12  C   UNL d   1      46.441 -19.769  44.460  0.00  0.00     0.001 A 
ENDROOT
BRANCH   3  13
ATOM     13  S   UNL d   1      45.982 -16.309  44.046  0.00  0.00    -0.047 SA
BRANCH  13  14
ATOM     14  C   UNL d   1      46.167 -15.509  44.077  0.00  0.00     0.045 C 
BRANCH  14  15
ATOM     15  C   UNL d   1      45.634 -14.975  44.415  0.00  0.00     0.036 A 
ATOM     16  S   UNL d   1      44.859 -15.147  44.647  0.00  0.00    -0.086 SA
ATOM     17  C   UNL d   1      44.534 -14.457  44.953  0.00  0.00     0.035 A 
ATOM     18  C   UNL d   1      45.098 -13.858  44.914  0.00  0.00     0.007 A 
ATOM     19  C   UNL d   1      45.779 -14.186  44.579  0.00  0.00     0.007 A 
ENDBRANCH  14  15
ENDBRANCH  13  14
ENDBRANCH   3  13
TORSDOF 3
ENDMDL
