MODEL 1
REMARK VINA RESULT:      -8.8      0.000      0.000
REMARK  3 active torsions:
REMARK  status: ('A' for Active; 'I' for Inactive)
REMARK    1  A    between atoms: C_6  and  N_1 
REMARK    2  A    between atoms: C_7  and  O_10 
REMARK    3  A    between atoms: O_10  and  C_13 
ROOT
ATOM      1  C   UNL d   1      53.046  33.821  53.767  0.00  0.00     0.070 A 
ATOM      2  C   UNL d   1      52.432  33.256  53.747  0.00  0.00     0.020 A 
ATOM      3  C   UNL d   1      52.983  34.515  53.323  0.00  0.00     0.020 A 
ATOM      4  C   UNL d   1      51.705  34.103  52.833  0.00  0.00     0.105 A 
ATOM      5  C   UNL d   1      52.320  34.661  52.858  0.00  0.00     0.026 A 
ATOM      6  C   UNL d   1      51.767  33.403  53.280  0.00  0.00     0.026 A 
ENDROOT
BRANCH   1   7
ATOM      7  N   UNL d   1      53.706  33.676  54.230  0.00  0.00    -0.242 N 
ATOM      8  C   UNL d   1      54.348  33.152  54.066  0.00  0.00     0.267 A 
ATOM      9  C   UNL d   1      54.863  33.199  54.684  0.00  0.00     0.066 A 
ATOM     10  O   UNL d   1      54.447  32.676  53.402  0.00  0.00    -0.267 OA
ATOM     11  C   UNL d   1      54.590  33.720  55.236  0.00  0.00     0.066 A 
ATOM     12  C   UNL d   1      53.856  34.017  54.939  0.00  0.00     0.267 A 
ATOM     13  O   UNL d   1      53.364  34.569  55.309  0.00  0.00    -0.267 OA
ENDBRANCH   1   7
BRANCH   4  14
ATOM     14  O   UNL d   1      51.060  34.245  52.380  0.00  0.00    -0.260 OA
BRANCH  14  15
ATOM     15  C   UNL d   1      50.329  34.335  52.728  0.00  0.00     0.391 C 
ATOM     16  F   UNL d   1      49.820  33.711  52.768  0.00  0.00    -0.145 F 
ATOM     17  F   UNL d   1      50.111  35.056  53.037  0.00  0.00    -0.145 F 
ENDBRANCH  14  15
ENDBRANCH   4  14
TORSDOF 3
ENDMDL
MODEL 2
REMARK VINA RESULT:      -8.7      2.179      2.916
REMARK  3 active torsions:
REMARK  status: ('A' for Active; 'I' for Inactive)
REMARK    1  A    between atoms: C_6  and  N_1 
REMARK    2  A    between atoms: C_7  and  O_10 
REMARK    3  A    between atoms: O_10  and  C_13 
ROOT
ATOM      1  C   UNL d   1      52.975  33.218  53.564  0.00  0.00     0.070 A 
ATOM      2  C   UNL d   1      52.230  32.858  53.448  0.00  0.00     0.020 A 
ATOM      3  C   UNL d   1      53.664  32.816  53.353  0.00  0.00     0.020 A 
ATOM      4  C   UNL d   1      52.895  31.696  52.909  0.00  0.00     0.105 A 
ATOM      5  C   UNL d   1      53.632  32.061  53.028  0.00  0.00     0.026 A 
ATOM      6  C   UNL d   1      52.197  32.100  53.122  0.00  0.00     0.026 A 
ENDROOT
BRANCH   1   7
ATOM      7  N   UNL d   1      53.007  33.970  53.888  0.00  0.00    -0.242 N 
ATOM      8  C   UNL d   1      52.804  34.701  53.518  0.00  0.00     0.267 A 
ATOM      9  C   UNL d   1      52.927  35.288  54.057  0.00  0.00     0.066 A 
ATOM     10  O   UNL d   1      52.529  34.814  52.751  0.00  0.00    -0.267 OA
ATOM     11  C   UNL d   1      53.197  34.977  54.751  0.00  0.00     0.066 A 
ATOM     12  C   UNL d   1      53.244  34.141  54.633  0.00  0.00     0.267 A 
ATOM     13  O   UNL d   1      53.493  33.580  55.189  0.00  0.00    -0.267 OA
ENDBRANCH   1   7
BRANCH   4  14
ATOM     14  O   UNL d   1      52.863  30.962  52.593  0.00  0.00    -0.260 OA
BRANCH  14  15
ATOM     15  C   UNL d   1      52.877  30.307  53.078  0.00  0.00     0.391 C 
ATOM     16  F   UNL d   1      52.187  29.977  53.332  0.00  0.00    -0.145 F 
ATOM     17  F   UNL d   1      53.589  29.986  53.309  0.00  0.00    -0.145 F 
ENDBRANCH  14  15
ENDBRANCH   4  14
TORSDOF 3
ENDMDL
MODEL 3
REMARK VINA RESULT:      -8.6      2.306      3.735
REMARK  3 active torsions:
REMARK  status: ('A' for Active; 'I' for Inactive)
REMARK    1  A    between atoms: C_6  and  N_1 
REMARK    2  A    between atoms: C_7  and  O_10 
REMARK    3  A    between atoms: O_10  and  C_13 
ROOT
ATOM      1  C   UNL d   1      52.581  33.576  53.649  0.00  0.00     0.070 A 
ATOM      2  C   UNL d   1      52.734  34.009  54.346  0.00  0.00     0.020 A 
ATOM      3  C   UNL d   1      53.076  32.952  53.433  0.00  0.00     0.020 A 
ATOM      4  C   UNL d   1      53.884  33.171  54.592  0.00  0.00     0.105 A 
ATOM      5  C   UNL d   1      53.724  32.746  53.896  0.00  0.00     0.026 A 
ATOM      6  C   UNL d   1      53.385  33.802  54.812  0.00  0.00     0.026 A 
ENDROOT
BRANCH   1   7
ATOM      7  N   UNL d   1      51.936  33.781  53.187  0.00  0.00    -0.242 N 
ATOM      8  C   UNL d   1      51.167  33.432  53.189  0.00  0.00     0.267 A 
ATOM      9  C   UNL d   1      50.723  33.821  52.641  0.00  0.00     0.066 A 
ATOM     10  O   UNL d   1      50.902  32.809  53.656  0.00  0.00    -0.267 OA
ATOM     11  C   UNL d   1      51.160  34.400  52.287  0.00  0.00     0.066 A 
ATOM     12  C   UNL d   1      51.927  34.366  52.641  0.00  0.00     0.267 A 
ATOM     13  O   UNL d   1      52.572  34.852  52.461  0.00  0.00    -0.267 OA
ENDBRANCH   1   7
BRANCH   4  14
ATOM     14  O   UNL d   1      54.514  32.971  55.043  0.00  0.00    -0.260 OA
BRANCH  14  15
ATOM     15  C   UNL d   1      55.156  33.469  55.091  0.00  0.00     0.391 C 
ATOM     16  F   UNL d   1      55.282  33.903  55.759  0.00  0.00    -0.145 F 
ATOM     17  F   UNL d   1      55.672  33.531  54.465  0.00  0.00    -0.145 F 
ENDBRANCH  14  15
ENDBRANCH   4  14
TORSDOF 3
ENDMDL
