MODEL 1
REMARK VINA RESULT:      44.8      0.000      0.000
REMARK  8 active torsions:
REMARK  status: ('A' for Active; 'I' for Inactive)
REMARK    1  A    between atoms: C_5  and  C_1 
REMARK    2  A    between atoms: N_6  and  C_2 
REMARK    3  A    between atoms: C_7  and  C_5 
REMARK    4  A    between atoms: C_8  and  C_5 
REMARK    5  A    between atoms: O_12  and  C_7 
REMARK    6  A    between atoms: C_14  and  O_12 
REMARK    7  A    between atoms: C_19  and  C_14 
REMARK    8  A    between atoms: C_20  and  C_19 
ROOT
ATOM      1  C   UNL d   1      45.888 -17.687  43.118  0.00  0.00     0.122 A 
ATOM      2  C   UNL d   1      45.970 -17.932  43.899  0.00  0.00     0.166 A 
ATOM      3  N   UNL d   1      45.949 -17.370  44.507  0.00  0.00    -0.225 NA
ATOM      4  N   UNL d   1      45.785 -16.887  42.939  0.00  0.00    -0.241 NA
ATOM      5  C   UNL d   1      45.846 -16.574  44.330  0.00  0.00     0.101 A 
ATOM      6  C   UNL d   1      45.763 -16.332  43.545  0.00  0.00     0.099 A 
ATOM      7  C   UNL d   1      45.825 -16.020  44.936  0.00  0.00     0.021 A 
ATOM      8  C   UNL d   1      45.661 -15.537  43.369  0.00  0.00     0.021 A 
ATOM      9  C   UNL d   1      45.638 -14.972  43.969  0.00  0.00     0.002 A 
ATOM     10  C   UNL d   1      45.721 -15.219  44.757  0.00  0.00     0.002 A 
ENDROOT
BRANCH   1  11
ATOM     11  C   UNL d   1      45.909 -18.248  42.502  0.00  0.00     0.105 C 
BRANCH  11  12
ATOM     12  C   UNL d   1      45.336 -18.236  41.912  0.00  0.00     0.303 C 
ATOM     13  O   UNL d   1      44.607 -18.597  42.034  0.00  0.00    -0.259 OA
BRANCH  12  14
ATOM     14  O   UNL d   1      45.496 -17.858  41.192  0.00  0.00    -0.271 OA
BRANCH  14  15
ATOM     15  C   UNL d   1      45.225 -17.501  40.506  0.00  0.00     0.126 C 
BRANCH  15  16
ATOM     16  C   UNL d   1      45.532 -17.727  39.783  0.00  0.00     0.025 C 
ATOM     17  C   UNL d   1      46.318 -17.946  39.729  0.00  0.00     0.002 C 
BRANCH  16  18
ATOM     18  C   UNL d   1      45.049 -17.732  39.115  0.00  0.00     0.002 C 
ATOM     19  C   UNL d   1      44.329 -17.328  39.121  0.00  0.00     0.000 C 
ENDBRANCH  16  18
ENDBRANCH  15  16
ENDBRANCH  14  15
ENDBRANCH  12  14
ENDBRANCH  11  12
BRANCH  11  20
ATOM     20  C   UNL d   1      46.512 -18.822  42.483  0.00  0.00     0.129 C 
ATOM     21  N   UNL d   1      46.568 -19.484  41.797  0.00  0.00    -0.146 N 
ENDBRANCH  11  20
ENDBRANCH   1  11
BRANCH   2  22
ATOM     22  N   UNL d   1      46.074 -18.733  44.081  0.00  0.00    -0.288 N 
ATOM     23  C   UNL d   1      45.722 -19.305  43.605  0.00  0.00     0.082 A 
ATOM     24  C   UNL d   1      45.828 -20.108  43.791  0.00  0.00     0.019 A 
ATOM     25  C   UNL d   1      46.283 -20.328  44.449  0.00  0.00     0.003 A 
ATOM     26  C   UNL d   1      46.633 -19.747  44.921  0.00  0.00     0.019 A 
ATOM     27  C   UNL d   1      46.530 -18.954  44.739  0.00  0.00     0.082 A 
ENDBRANCH   2  22
TORSDOF 8
ENDMDL
MODEL 2
REMARK VINA RESULT:      47.1      3.748      6.632
REMARK  8 active torsions:
REMARK  status: ('A' for Active; 'I' for Inactive)
REMARK    1  A    between atoms: C_5  and  C_1 
REMARK    2  A    between atoms: N_6  and  C_2 
REMARK    3  A    between atoms: C_7  and  C_5 
REMARK    4  A    between atoms: C_8  and  C_5 
REMARK    5  A    between atoms: O_12  and  C_7 
REMARK    6  A    between atoms: C_14  and  O_12 
REMARK    7  A    between atoms: C_19  and  C_14 
REMARK    8  A    between atoms: C_20  and  C_19 
ROOT
ATOM      1  C   UNL d   1      44.590 -15.877  37.353  0.00  0.00     0.122 A 
ATOM      2  C   UNL d   1      44.050 -15.384  36.976  0.00  0.00     0.166 A 
ATOM      3  N   UNL d   1      44.298 -14.641  36.704  0.00  0.00    -0.225 NA
ATOM      4  N   UNL d   1      45.373 -15.635  37.460  0.00  0.00    -0.241 NA
ATOM      5  C   UNL d   1      45.076 -14.401  36.811  0.00  0.00     0.101 A 
ATOM      6  C   UNL d   1      45.615 -14.899  37.190  0.00  0.00     0.099 A 
ATOM      7  C   UNL d   1      45.317 -13.664  36.540  0.00  0.00     0.021 A 
ATOM      8  C   UNL d   1      46.392 -14.658  37.296  0.00  0.00     0.021 A 
ATOM      9  C   UNL d   1      46.645 -13.920  37.028  0.00  0.00     0.002 A 
ATOM     10  C   UNL d   1      46.100 -13.423  36.648  0.00  0.00     0.002 A 
ENDROOT
BRANCH   1  11
ATOM     11  C   UNL d   1      44.347 -16.625  37.629  0.00  0.00     0.105 C 
BRANCH  11  12
ATOM     12  C   UNL d   1      44.355 -16.792  38.433  0.00  0.00     0.303 C 
ATOM     13  O   UNL d   1      43.742 -16.531  38.917  0.00  0.00    -0.259 OA
BRANCH  12  14
ATOM     14  O   UNL d   1      44.983 -17.224  38.757  0.00  0.00    -0.271 OA
BRANCH  14  15
ATOM     15  C   UNL d   1      45.252 -17.883  39.162  0.00  0.00     0.126 C 
BRANCH  15  16
ATOM     16  C   UNL d   1      45.723 -17.790  39.824  0.00  0.00     0.025 C 
ATOM     17  C   UNL d   1      46.508 -17.578  39.733  0.00  0.00     0.002 C 
BRANCH  16  18
ATOM     18  C   UNL d   1      45.405 -17.908  40.575  0.00  0.00     0.002 C 
ATOM     19  C   UNL d   1      45.636 -18.561  41.025  0.00  0.00     0.000 C 
ENDBRANCH  16  18
ENDBRANCH  15  16
ENDBRANCH  14  15
ENDBRANCH  12  14
ENDBRANCH  11  12
BRANCH  11  20
ATOM     20  C   UNL d   1      44.097 -17.206  37.086  0.00  0.00     0.129 C 
ATOM     21  N   UNL d   1      44.537 -18.049  36.999  0.00  0.00    -0.146 N 
ENDBRANCH  11  20
ENDBRANCH   1  11
BRANCH   2  22
ATOM     22  N   UNL d   1      43.265 -15.622  36.866  0.00  0.00    -0.288 N 
ATOM     23  C   UNL d   1      43.107 -16.313  36.445  0.00  0.00     0.082 A 
ATOM     24  C   UNL d   1      42.319 -16.549  36.337  0.00  0.00     0.019 A 
ATOM     25  C   UNL d   1      41.699 -16.095  36.650  0.00  0.00     0.003 A 
ATOM     26  C   UNL d   1      41.867 -15.404  37.071  0.00  0.00     0.019 A 
ATOM     27  C   UNL d   1      42.645 -15.168  37.179  0.00  0.00     0.082 A 
ENDBRANCH   2  22
TORSDOF 8
ENDMDL
