MODEL 1
REMARK VINA RESULT:      44.3      0.000      0.000
REMARK  5 active torsions:
REMARK  status: ('A' for Active; 'I' for Inactive)
REMARK    1  A    between atoms: C_3  and  C_1 
REMARK    2  A    between atoms: C_7  and  C_3 
REMARK    3  A    between atoms: N_9  and  C_3 
REMARK    4  A    between atoms: C_17  and  C_8 
REMARK    5  A    between atoms: C_10  and  N_9 
ROOT
ATOM      1  C   UNL d   1      14.140  13.346  -1.467  0.00  0.00     0.111 C 
ENDROOT
BRANCH   1   2
ATOM      2  C   UNL d   1      14.388  14.139  -1.552  0.00  0.00     0.160 A 
ATOM      3  C   UNL d   1      14.558  14.600  -0.891  0.00  0.00     0.258 A 
ATOM      4  C   UNL d   1      14.803  15.387  -0.998  0.00  0.00     0.238 A 
ATOM      5  O   UNL d   1      14.488  14.293  -0.109  0.00  0.00    -0.281 OA
ATOM      6  O   UNL d   1      14.976  15.854  -0.327  0.00  0.00    -0.283 OA
ATOM      7  C   UNL d   1      14.881  15.715  -1.751  0.00  0.00     0.073 A 
ATOM      8  C   UNL d   1      14.711  15.254  -2.412  0.00  0.00     0.146 A 
ATOM      9  O   UNL d   1      14.467  14.472  -2.310  0.00  0.00    -0.299 OA
BRANCH   8  10
ATOM     10  C   UNL d   1      14.797  15.608  -3.167  0.00  0.00     0.259 C 
ATOM     11  O   UNL d   1      15.039  16.391  -3.234  0.00  0.00    -0.281 OA
ENDBRANCH   8  10
ENDBRANCH   1   2
BRANCH   1  12
ATOM     12  C   UNL d   1      14.609  12.822  -1.010  0.00  0.00     0.047 A 
ATOM     13  C   UNL d   1      14.251  12.309  -0.472  0.00  0.00     0.142 A 
ATOM     14  F   UNL d   1      13.749  12.287  -0.395  0.00  0.00    -0.204 F 
ATOM     15  C   UNL d   1      14.701  11.789  -0.017  0.00  0.00     0.030 A 
ATOM     16  C   UNL d   1      15.521  11.782  -0.100  0.00  0.00     0.002 A 
ATOM     17  C   UNL d   1      15.878  12.294  -0.637  0.00  0.00     0.000 A 
ATOM     18  C   UNL d   1      15.429  12.815  -1.093  0.00  0.00     0.004 A 
ENDBRANCH   1  12
BRANCH   1  19
ATOM     19  N   UNL d   1      13.449  13.083  -1.823  0.00  0.00    -0.225 NA
BRANCH  19  20
ATOM     20  C   UNL d   1      13.477  12.667  -2.551  0.00  0.00     0.163 A 
ATOM     21  N   UNL d   1      14.110  12.184  -2.728  0.00  0.00    -0.225 NA
ATOM     22  C   UNL d   1      14.137  11.780  -3.435  0.00  0.00     0.101 A 
ATOM     23  C   UNL d   1      13.508  11.858  -3.991  0.00  0.00     0.021 A 
ATOM     24  C   UNL d   1      12.875  12.341  -3.813  0.00  0.00     0.005 A 
ATOM     25  C   UNL d   1      12.845  12.756  -3.089  0.00  0.00     0.039 A 
ENDBRANCH  19  20
ENDBRANCH   1  19
TORSDOF 5
ENDMDL
MODEL 2
REMARK VINA RESULT:      45.7      1.403      2.944
REMARK  5 active torsions:
REMARK  status: ('A' for Active; 'I' for Inactive)
REMARK    1  A    between atoms: C_3  and  C_1 
REMARK    2  A    between atoms: C_7  and  C_3 
REMARK    3  A    between atoms: N_9  and  C_3 
REMARK    4  A    between atoms: C_17  and  C_8 
REMARK    5  A    between atoms: C_10  and  N_9 
ROOT
ATOM      1  C   UNL d   1      14.237  13.407  -1.452  0.00  0.00     0.111 C 
ENDROOT
BRANCH   1   2
ATOM      2  C   UNL d   1      13.947  13.286  -2.226  0.00  0.00     0.160 A 
ATOM      3  C   UNL d   1      13.555  12.588  -2.423  0.00  0.00     0.258 A 
ATOM      4  C   UNL d   1      13.274  12.487  -3.199  0.00  0.00     0.238 A 
ATOM      5  O   UNL d   1      13.431  11.975  -1.857  0.00  0.00    -0.281 OA
ATOM      6  O   UNL d   1      12.876  11.780  -3.399  0.00  0.00    -0.283 OA
ATOM      7  C   UNL d   1      13.380  13.069  -3.775  0.00  0.00     0.073 A 
ATOM      8  C   UNL d   1      13.773  13.766  -3.577  0.00  0.00     0.146 A 
ATOM      9  O   UNL d   1      14.053  13.871  -2.808  0.00  0.00    -0.299 OA
BRANCH   8  10
ATOM     10  C   UNL d   1      13.868  14.343  -4.178  0.00  0.00     0.259 C 
ATOM     11  O   UNL d   1      13.688  14.164  -4.959  0.00  0.00    -0.281 OA
ENDBRANCH   8  10
ENDBRANCH   1   2
BRANCH   1  12
ATOM     12  C   UNL d   1      14.788  12.859  -1.136  0.00  0.00     0.047 A 
ATOM     13  C   UNL d   1      14.744  12.641  -0.342  0.00  0.00     0.142 A 
ATOM     14  F   UNL d   1      14.395  12.821  -0.019  0.00  0.00    -0.204 F 
ATOM     15  C   UNL d   1      15.279  12.104  -0.018  0.00  0.00     0.030 A 
ATOM     16  C   UNL d   1      15.868  11.780  -0.495  0.00  0.00     0.002 A 
ATOM     17  C   UNL d   1      15.912  11.998  -1.289  0.00  0.00     0.000 A 
ATOM     18  C   UNL d   1      15.377  12.535  -1.613  0.00  0.00     0.004 A 
ENDBRANCH   1  12
BRANCH   1  19
ATOM     19  N   UNL d   1      13.988  14.050  -1.009  0.00  0.00    -0.225 NA
BRANCH  19  20
ATOM     20  C   UNL d   1      14.498  14.705  -0.883  0.00  0.00     0.163 A 
ATOM     21  N   UNL d   1      14.949  14.754  -0.205  0.00  0.00    -0.225 NA
ATOM     22  C   UNL d   1      15.445  15.390  -0.083  0.00  0.00     0.101 A 
ATOM     23  C   UNL d   1      15.495  16.003  -0.659  0.00  0.00     0.021 A 
ATOM     24  C   UNL d   1      15.043  15.953  -1.337  0.00  0.00     0.005 A 
ATOM     25  C   UNL d   1      14.535  15.303  -1.464  0.00  0.00     0.039 A 
ENDBRANCH  19  20
ENDBRANCH   1  19
TORSDOF 5
ENDMDL
MODEL 3
REMARK VINA RESULT:      47.2      1.577      2.907
REMARK  5 active torsions:
REMARK  status: ('A' for Active; 'I' for Inactive)
REMARK    1  A    between atoms: C_3  and  C_1 
REMARK    2  A    between atoms: C_7  and  C_3 
REMARK    3  A    between atoms: N_9  and  C_3 
REMARK    4  A    between atoms: C_17  and  C_8 
REMARK    5  A    between atoms: C_10  and  N_9 
ROOT
ATOM      1  C   UNL d   1      13.868  13.518  -2.290  0.00  0.00     0.111 C 
ENDROOT
BRANCH   1   2
ATOM      2  C   UNL d   1      14.174  12.942  -1.769  0.00  0.00     0.160 A 
ATOM      3  C   UNL d   1      13.715  12.649  -1.150  0.00  0.00     0.258 A 
ATOM      4  C   UNL d   1      14.039  12.076  -0.642  0.00  0.00     0.238 A 
ATOM      5  O   UNL d   1      12.926  12.917  -1.019  0.00  0.00    -0.281 OA
ATOM      6  O   UNL d   1      13.573  11.779  -0.014  0.00  0.00    -0.283 OA
ATOM      7  C   UNL d   1      14.807  11.794  -0.745  0.00  0.00     0.073 A 
ATOM      8  C   UNL d   1      15.266  12.087  -1.363  0.00  0.00     0.146 A 
ATOM      9  O   UNL d   1      14.949  12.657  -1.870  0.00  0.00    -0.299 OA
BRANCH   8  10
ATOM     10  C   UNL d   1      16.044  11.786  -1.448  0.00  0.00     0.259 C 
ATOM     11  O   UNL d   1      16.683  12.299  -1.512  0.00  0.00    -0.281 OA
ENDBRANCH   8  10
ENDBRANCH   1   2
BRANCH   1  12
ATOM     12  C   UNL d   1      14.252  14.262  -2.340  0.00  0.00     0.047 A 
ATOM     13  C   UNL d   1      14.246  14.683  -3.050  0.00  0.00     0.142 A 
ATOM     14  F   UNL d   1      14.018  14.518  -3.473  0.00  0.00    -0.204 F 
ATOM     15  C   UNL d   1      14.619  15.416  -3.113  0.00  0.00     0.030 A 
ATOM     16  C   UNL d   1      15.004  15.733  -2.457  0.00  0.00     0.002 A 
ATOM     17  C   UNL d   1      15.010  15.312  -1.748  0.00  0.00     0.000 A 
ATOM     18  C   UNL d   1      14.637  14.579  -1.684  0.00  0.00     0.004 A 
ENDBRANCH   1  12
BRANCH   1  19
ATOM     19  N   UNL d   1      13.205  13.360  -2.745  0.00  0.00    -0.225 NA
BRANCH  19  20
ATOM     20  C   UNL d   1      13.262  12.875  -3.427  0.00  0.00     0.163 A 
ATOM     21  N   UNL d   1      13.791  12.254  -3.451  0.00  0.00    -0.225 NA
ATOM     22  C   UNL d   1      13.846  11.782  -4.113  0.00  0.00     0.101 A 
ATOM     23  C   UNL d   1      13.356  11.934  -4.781  0.00  0.00     0.021 A 
ATOM     24  C   UNL d   1      12.827  12.555  -4.758  0.00  0.00     0.005 A 
ATOM     25  C   UNL d   1      12.769  13.039  -4.081  0.00  0.00     0.039 A 
ENDBRANCH  19  20
ENDBRANCH   1  19
TORSDOF 5
ENDMDL
