MODEL 1
REMARK VINA RESULT:      74.2      0.000      0.000
REMARK  6 active torsions:
REMARK  status: ('A' for Active; 'I' for Inactive)
REMARK    1  A    between atoms: S_13  and  C_3 
REMARK    2  A    between atoms: C_21  and  C_4 
REMARK       I    between atoms: N_7  and  C_10 
REMARK    3  A    between atoms: C_10  and  C_20 
REMARK    4  A    between atoms: C_20  and  S_13 
REMARK    5  A    between atoms: O_24  and  C_16 
REMARK    6  A    between atoms: O_25  and  C_17 
ROOT
ATOM      1  N   UNL d   1      14.508  16.142  -4.375  0.00  0.00    -0.272 N 
ATOM      2  C   UNL d   1      14.601  15.525  -3.797  0.00  0.00     0.271 C 
ATOM      3  C   UNL d   1      14.531  17.520  -4.716  0.00  0.00     0.020 A 
ATOM      4  C   UNL d   1      14.621  16.930  -4.157  0.00  0.00     0.083 A 
ATOM      5  C   UNL d   1      14.333  17.336  -5.476  0.00  0.00     0.005 A 
ATOM      6  C   UNL d   1      14.644  18.317  -4.501  0.00  0.00     0.028 A 
ATOM      7  C   UNL d   1      14.554  18.916  -5.061  0.00  0.00     0.116 A 
ATOM      8  C   UNL d   1      14.356  18.731  -5.822  0.00  0.00     0.116 A 
ATOM      9  C   UNL d   1      14.241  17.941  -6.047  0.00  0.00     0.026 A 
ATOM     10  C   UNL d   1      14.310  15.957  -5.135  0.00  0.00     0.083 A 
ATOM     11  O   UNL d   1      14.804  15.723  -3.020  0.00  0.00    -0.266 OA
ATOM     12  C   UNL d   1      14.218  16.554  -5.704  0.00  0.00     0.019 A 
ENDROOT
BRANCH   2  13
ATOM     13  C   UNL d   1      14.488  14.738  -4.015  0.00  0.00     0.099 C 
BRANCH  13  14
ATOM     14  S   UNL d   1      14.163  14.212  -3.477  0.00  0.00    -0.043 SA
BRANCH  14  15
ATOM     15  C   UNL d   1      13.639  13.615  -3.741  0.00  0.00     0.202 A 
ATOM     16  N   UNL d   1      13.486  12.928  -3.348  0.00  0.00    -0.263 N 
ATOM     17  C   UNL d   1      12.946  12.509  -3.799  0.00  0.00     0.202 A 
ATOM     18  C   UNL d   1      13.656  12.479  -2.677  0.00  0.00     0.074 A 
ATOM     19  N   UNL d   1      12.769  12.941  -4.466  0.00  0.00    -0.121 NA
ATOM     20  S   UNL d   1      12.777  11.797  -3.409  0.00  0.00    -0.046 SA
ATOM     21  N   UNL d   1      13.204  13.630  -4.425  0.00  0.00    -0.121 NA
ATOM     22  C   UNL d   1      13.219  11.779  -2.711  0.00  0.00     0.056 A 
BRANCH  18  23
ATOM     23  C   UNL d   1      14.172  12.697  -2.080  0.00  0.00     0.017 A 
ATOM     24  C   UNL d   1      14.852  12.234  -1.936  0.00  0.00     0.002 A 
ATOM     25  C   UNL d   1      15.358  12.455  -1.344  0.00  0.00     0.000 A 
ATOM     26  C   UNL d   1      15.224  13.120  -0.883  0.00  0.00     0.000 A 
ATOM     27  C   UNL d   1      14.540  13.575  -1.038  0.00  0.00     0.000 A 
ATOM     28  C   UNL d   1      14.031  13.357  -1.628  0.00  0.00     0.002 A 
ENDBRANCH  18  23
ENDBRANCH  14  15
ENDBRANCH  13  14
ENDBRANCH   2  13
BRANCH   7  29
ATOM     29  O   UNL d   1      14.671  19.699  -4.830  0.00  0.00    -0.326 OA
ATOM     30  C   UNL d   1      14.958  20.260  -5.391  0.00  0.00     0.181 C 
ENDBRANCH   7  29
BRANCH   8  31
ATOM     31  O   UNL d   1      14.264  19.320  -6.389  0.00  0.00    -0.326 OA
ATOM     32  C   UNL d   1      13.561  19.774  -6.389  0.00  0.00     0.181 C 
ENDBRANCH   8  31
TORSDOF 6
ENDMDL
MODEL 2
REMARK VINA RESULT:      74.8      1.343      2.104
REMARK  6 active torsions:
REMARK  status: ('A' for Active; 'I' for Inactive)
REMARK    1  A    between atoms: S_13  and  C_3 
REMARK    2  A    between atoms: C_21  and  C_4 
REMARK       I    between atoms: N_7  and  C_10 
REMARK    3  A    between atoms: C_10  and  C_20 
REMARK    4  A    between atoms: C_20  and  S_13 
REMARK    5  A    between atoms: O_24  and  C_16 
REMARK    6  A    between atoms: O_25  and  C_17 
ROOT
ATOM      1  N   UNL d   1      14.369  15.247  -3.934  0.00  0.00    -0.272 N 
ATOM      2  C   UNL d   1      14.083  14.498  -3.652  0.00  0.00     0.271 C 
ATOM      3  C   UNL d   1      14.210  16.391  -4.760  0.00  0.00     0.020 A 
ATOM      4  C   UNL d   1      13.932  15.671  -4.491  0.00  0.00     0.083 A 
ATOM      5  C   UNL d   1      14.908  16.687  -4.485  0.00  0.00     0.005 A 
ATOM      6  C   UNL d   1      13.771  16.822  -5.322  0.00  0.00     0.028 A 
ATOM      7  C   UNL d   1      14.048  17.550  -5.596  0.00  0.00     0.116 A 
ATOM      8  C   UNL d   1      14.747  17.846  -5.321  0.00  0.00     0.116 A 
ATOM      9  C   UNL d   1      15.192  17.425  -4.761  0.00  0.00     0.026 A 
ATOM     10  C   UNL d   1      15.068  15.543  -3.659  0.00  0.00     0.083 A 
ATOM     11  O   UNL d   1      13.367  14.201  -3.939  0.00  0.00    -0.266 OA
ATOM     12  C   UNL d   1      15.353  16.273  -3.930  0.00  0.00     0.019 A 
ENDROOT
BRANCH   2  13
ATOM     13  C   UNL d   1      14.522  14.074  -3.095  0.00  0.00     0.099 C 
BRANCH  13  14
ATOM     14  S   UNL d   1      14.190  13.902  -2.366  0.00  0.00    -0.043 SA
BRANCH  14  15
ATOM     15  C   UNL d   1      14.160  13.110  -2.097  0.00  0.00     0.202 A 
ATOM     16  N   UNL d   1      14.388  12.862  -1.365  0.00  0.00    -0.263 N 
ATOM     17  C   UNL d   1      14.266  12.052  -1.337  0.00  0.00     0.202 A 
ATOM     18  C   UNL d   1      14.693  13.096  -0.634  0.00  0.00     0.074 A 
ATOM     19  N   UNL d   1      13.964  11.808  -2.053  0.00  0.00    -0.121 NA
ATOM     20  S   UNL d   1      14.495  11.779  -0.589  0.00  0.00    -0.046 SA
ATOM     21  N   UNL d   1      13.900  12.471  -2.523  0.00  0.00    -0.121 NA
ATOM     22  C   UNL d   1      14.761  12.429  -0.152  0.00  0.00     0.056 A 
BRANCH  18  23
ATOM     23  C   UNL d   1      14.893  13.862  -0.429  0.00  0.00     0.017 A 
ATOM     24  C   UNL d   1      15.695  14.057  -0.301  0.00  0.00     0.002 A 
ATOM     25  C   UNL d   1      15.885  14.817  -0.098  0.00  0.00     0.000 A 
ATOM     26  C   UNL d   1      15.316  15.401  -0.014  0.00  0.00     0.000 A 
ATOM     27  C   UNL d   1      14.517  15.193  -0.145  0.00  0.00     0.000 A 
ATOM     28  C   UNL d   1      14.321  14.434  -0.348  0.00  0.00     0.002 A 
ENDBRANCH  18  23
ENDBRANCH  14  15
ENDBRANCH  13  14
ENDBRANCH   2  13
BRANCH   7  29
ATOM     29  O   UNL d   1      13.601  17.962  -6.152  0.00  0.00    -0.326 OA
ATOM     30  C   UNL d   1      12.850  17.659  -6.389  0.00  0.00     0.181 C 
ENDBRANCH   7  29
BRANCH   8  31
ATOM     31  O   UNL d   1      15.033  18.570  -5.587  0.00  0.00    -0.326 OA
ATOM     32  C   UNL d   1      14.528  19.237  -5.564  0.00  0.00     0.181 C 
ENDBRANCH   8  31
TORSDOF 6
ENDMDL
