MODEL 1
REMARK VINA RESULT:      -3.1      0.000      0.000
REMARK  2 active torsions:
REMARK  status: ('A' for Active; 'I' for Inactive)
REMARK       I    between atoms: C_2  and  N_4 
REMARK       I    between atoms: N_7  and  C_2 
REMARK    1  A    between atoms: N_4  and  C_8 
REMARK    2  A    between atoms: C_12  and  N_7 
ROOT
ATOM      1  C   UNL d   1      32.805  20.495 -21.819  0.00  0.00     0.369 C 
ATOM      2  N   UNL d   1      32.801  19.724 -22.097  0.00  0.00    -0.190 NA
ATOM      3  N   UNL d   1      32.607  20.657 -21.038  0.00  0.00    -0.191 NA
ATOM      4  O   UNL d   1      33.011  21.109 -22.330  0.00  0.00    -0.242 OA
ENDROOT
BRANCH   2   5
ATOM      5  C   UNL d   1      32.997  19.560 -22.873  0.00  0.00     0.098 A 
ATOM      6  C   UNL d   1      32.860  18.759 -22.710  0.00  0.00     0.118 A 
ATOM      7  S   UNL d   1      33.002  18.329 -23.401  0.00  0.00     0.213 S 
ATOM      8  O   UNL d   1      32.771  17.879 -22.755  0.00  0.00    -0.217 OA
ATOM      9  O   UNL d   1      33.162  17.972 -24.125  0.00  0.00    -0.217 OA
ATOM     10  C   UNL d   1      33.227  18.858 -23.992  0.00  0.00     0.100 A 
ATOM     11  C   UNL d   1      33.226  19.622 -23.668  0.00  0.00     0.032 A 
ENDBRANCH   2   5
BRANCH   3  12
ATOM     12  C   UNL d   1      32.613  21.432 -20.764  0.00  0.00     0.086 A 
ATOM     13  C   UNL d   1      33.233  21.694 -20.287  0.00  0.00     0.019 A 
ATOM     14  C   UNL d   1      33.240  22.460 -20.014  0.00  0.00     0.002 A 
ATOM     15  C   UNL d   1      32.630  22.978 -20.212  0.00  0.00     0.000 A 
ATOM     16  C   UNL d   1      32.010  22.718 -20.689  0.00  0.00     0.002 A 
ATOM     17  C   UNL d   1      32.005  21.943 -20.964  0.00  0.00     0.019 A 
ENDBRANCH   3  12
TORSDOF 2
ENDMDL
MODEL 2
REMARK VINA RESULT:      -2.8      3.709      5.060
REMARK  2 active torsions:
REMARK  status: ('A' for Active; 'I' for Inactive)
REMARK       I    between atoms: C_2  and  N_4 
REMARK       I    between atoms: N_7  and  C_2 
REMARK    1  A    between atoms: N_4  and  C_8 
REMARK    2  A    between atoms: C_12  and  N_7 
ROOT
ATOM      1  C   UNL d   1      30.971  17.163 -23.999  0.00  0.00     0.369 C 
ATOM      2  N   UNL d   1      30.471  16.585 -23.702  0.00  0.00    -0.190 NA
ATOM      3  N   UNL d   1      31.750  17.211 -23.742  0.00  0.00    -0.191 NA
ATOM      4  O   UNL d   1      30.685  17.698 -24.557  0.00  0.00    -0.242 OA
ENDROOT
BRANCH   2   5
ATOM      5  C   UNL d   1      29.696  16.535 -23.955  0.00  0.00     0.098 A 
ATOM      6  C   UNL d   1      29.553  16.012 -23.329  0.00  0.00     0.118 A 
ATOM      7  S   UNL d   1      28.759  15.786 -23.359  0.00  0.00     0.213 S 
ATOM      8  O   UNL d   1      29.191  15.453 -22.745  0.00  0.00    -0.217 OA
ATOM      9  O   UNL d   1      27.961  15.609 -23.455  0.00  0.00    -0.217 OA
ATOM     10  C   UNL d   1      28.408  16.166 -24.001  0.00  0.00     0.100 A 
ATOM     11  C   UNL d   1      28.985  16.631 -24.373  0.00  0.00     0.032 A 
ENDBRANCH   2   5
BRANCH   3  12
ATOM     12  C   UNL d   1      32.248  17.793 -24.042  0.00  0.00     0.086 A 
ATOM     13  C   UNL d   1      32.415  18.462 -23.591  0.00  0.00     0.019 A 
ATOM     14  C   UNL d   1      32.907  19.038 -23.885  0.00  0.00     0.002 A 
ATOM     15  C   UNL d   1      33.241  18.957 -24.635  0.00  0.00     0.000 A 
ATOM     16  C   UNL d   1      33.074  18.288 -25.088  0.00  0.00     0.002 A 
ATOM     17  C   UNL d   1      32.576  17.707 -24.788  0.00  0.00     0.019 A 
ENDBRANCH   3  12
TORSDOF 2
ENDMDL
MODEL 3
REMARK VINA RESULT:      -2.7      1.660      4.360
REMARK  2 active torsions:
REMARK  status: ('A' for Active; 'I' for Inactive)
REMARK       I    between atoms: C_2  and  N_4 
REMARK       I    between atoms: N_7  and  C_2 
REMARK    1  A    between atoms: N_4  and  C_8 
REMARK    2  A    between atoms: C_12  and  N_7 
ROOT
ATOM      1  C   UNL d   1      32.816  19.157 -22.911  0.00  0.00     0.369 C 
ATOM      2  N   UNL d   1      32.897  19.599 -22.225  0.00  0.00    -0.190 NA
ATOM      3  N   UNL d   1      32.657  18.352 -22.872  0.00  0.00    -0.191 NA
ATOM      4  O   UNL d   1      32.897  19.528 -23.643  0.00  0.00    -0.242 OA
ENDROOT
BRANCH   2   5
ATOM      5  C   UNL d   1      33.055  20.399 -22.261  0.00  0.00     0.098 A 
ATOM      6  C   UNL d   1      32.938  20.432 -21.442  0.00  0.00     0.118 A 
ATOM      7  S   UNL d   1      33.051  21.213 -21.198  0.00  0.00     0.213 S 
ATOM      8  O   UNL d   1      32.860  20.688 -20.597  0.00  0.00    -0.217 OA
ATOM      9  O   UNL d   1      33.178  22.010 -21.033  0.00  0.00    -0.217 OA
ATOM     10  C   UNL d   1      33.237  21.666 -21.862  0.00  0.00     0.100 A 
ATOM     11  C   UNL d   1      33.240  21.165 -22.522  0.00  0.00     0.032 A 
ENDBRANCH   2   5
BRANCH   3  12
ATOM     12  C   UNL d   1      32.577  17.913 -23.562  0.00  0.00     0.086 A 
ATOM     13  C   UNL d   1      31.861  17.917 -23.970  0.00  0.00     0.019 A 
ATOM     14  C   UNL d   1      31.780  17.483 -24.654  0.00  0.00     0.002 A 
ATOM     15  C   UNL d   1      32.412  17.039 -24.941  0.00  0.00     0.000 A 
ATOM     16  C   UNL d   1      33.129  17.034 -24.534  0.00  0.00     0.002 A 
ATOM     17  C   UNL d   1      33.208  17.473 -23.844  0.00  0.00     0.019 A 
ENDBRANCH   3  12
TORSDOF 2
ENDMDL
MODEL 4
REMARK VINA RESULT:      -2.5      2.527      3.653
REMARK  2 active torsions:
REMARK  status: ('A' for Active; 'I' for Inactive)
REMARK       I    between atoms: C_2  and  N_4 
REMARK       I    between atoms: N_7  and  C_2 
REMARK    1  A    between atoms: N_4  and  C_8 
REMARK    2  A    between atoms: C_12  and  N_7 
ROOT
ATOM      1  C   UNL d   1      32.784  23.005 -19.796  0.00  0.00     0.369 C 
ATOM      2  N   UNL d   1      32.915  23.070 -20.603  0.00  0.00    -0.190 NA
ATOM      3  N   UNL d   1      32.740  23.678 -19.326  0.00  0.00    -0.191 NA
ATOM      4  O   UNL d   1      32.697  22.258 -19.458  0.00  0.00    -0.242 OA
ENDROOT
BRANCH   2   5
ATOM      5  C   UNL d   1      32.959  22.403 -21.072  0.00  0.00     0.098 A 
ATOM      6  C   UNL d   1      33.032  22.902 -21.729  0.00  0.00     0.118 A 
ATOM      7  S   UNL d   1      33.099  22.430 -22.403  0.00  0.00     0.213 S 
ATOM      8  O   UNL d   1      33.121  23.239 -22.543  0.00  0.00    -0.217 OA
ATOM      9  O   UNL d   1      33.161  21.896 -23.026  0.00  0.00    -0.217 OA
ATOM     10  C   UNL d   1      33.069  21.640 -22.169  0.00  0.00     0.100 A 
ATOM     11  C   UNL d   1      32.982  21.619 -21.345  0.00  0.00     0.032 A 
ENDBRANCH   2   5
BRANCH   3  12
ATOM     12  C   UNL d   1      32.609  23.608 -18.518  0.00  0.00     0.086 A 
ATOM     13  C   UNL d   1      31.846  23.696 -18.217  0.00  0.00     0.019 A 
ATOM     14  C   UNL d   1      31.714  23.627 -17.418  0.00  0.00     0.002 A 
ATOM     15  C   UNL d   1      32.340  23.471 -16.904  0.00  0.00     0.000 A 
ATOM     16  C   UNL d   1      33.104  23.384 -17.204  0.00  0.00     0.002 A 
ATOM     17  C   UNL d   1      33.234  23.453 -18.012  0.00  0.00     0.019 A 
ENDBRANCH   3  12
TORSDOF 2
ENDMDL
MODEL 5
REMARK VINA RESULT:      -2.2      3.768      5.615
REMARK  2 active torsions:
REMARK  status: ('A' for Active; 'I' for Inactive)
REMARK       I    between atoms: C_2  and  N_4 
REMARK       I    between atoms: N_7  and  C_2 
REMARK    1  A    between atoms: N_4  and  C_8 
REMARK    2  A    between atoms: C_12  and  N_7 
ROOT
ATOM      1  C   UNL d   1      30.529  16.792 -23.938  0.00  0.00     0.369 C 
ATOM      2  N   UNL d   1      31.320  16.975 -23.827  0.00  0.00    -0.190 NA
ATOM      3  N   UNL d   1      30.218  16.092 -23.639  0.00  0.00    -0.191 NA
ATOM      4  O   UNL d   1      30.045  17.315 -24.353  0.00  0.00    -0.242 OA
ENDROOT
BRANCH   2   5
ATOM      5  C   UNL d   1      31.631  17.670 -24.124  0.00  0.00     0.098 A 
ATOM      6  C   UNL d   1      32.265  17.579 -23.597  0.00  0.00     0.118 A 
ATOM      7  S   UNL d   1      32.779  18.216 -23.703  0.00  0.00     0.213 S 
ATOM      8  O   UNL d   1      33.011  17.676 -23.130  0.00  0.00    -0.217 OA
ATOM      9  O   UNL d   1      33.241  18.878 -23.866  0.00  0.00    -0.217 OA
ATOM     10  C   UNL d   1      32.469  18.702 -24.292  0.00  0.00     0.100 A 
ATOM     11  C   UNL d   1      31.758  18.367 -24.555  0.00  0.00     0.032 A 
ENDBRANCH   2   5
BRANCH   3  12
ATOM     12  C   UNL d   1      29.423  15.912 -23.752  0.00  0.00     0.086 A 
ATOM     13  C   UNL d   1      28.888  16.013 -23.133  0.00  0.00     0.019 A 
ATOM     14  C   UNL d   1      28.102  15.835 -23.243  0.00  0.00     0.002 A 
ATOM     15  C   UNL d   1      27.837  15.554 -23.972  0.00  0.00     0.000 A 
ATOM     16  C   UNL d   1      28.372  15.453 -24.591  0.00  0.00     0.002 A 
ATOM     17  C   UNL d   1      29.166  15.633 -24.477  0.00  0.00     0.019 A 
ENDBRANCH   3  12
TORSDOF 2
ENDMDL
MODEL 6
REMARK VINA RESULT:      -2.0      4.163      5.521
REMARK  2 active torsions:
REMARK  status: ('A' for Active; 'I' for Inactive)
REMARK       I    between atoms: C_2  and  N_4 
REMARK       I    between atoms: N_7  and  C_2 
REMARK    1  A    between atoms: N_4  and  C_8 
REMARK    2  A    between atoms: C_12  and  N_7 
ROOT
ATOM      1  C   UNL d   1      32.746  22.890 -18.974  0.00  0.00     0.369 C 
ATOM      2  N   UNL d   1      32.895  22.574 -18.232  0.00  0.00    -0.190 NA
ATOM      3  N   UNL d   1      32.735  22.406 -19.638  0.00  0.00    -0.191 NA
ATOM      4  O   UNL d   1      32.608  23.700 -19.049  0.00  0.00    -0.242 OA
ENDROOT
BRANCH   2   5
ATOM      5  C   UNL d   1      32.907  23.053 -17.571  0.00  0.00     0.098 A 
ATOM      6  C   UNL d   1      33.065  22.377 -17.118  0.00  0.00     0.118 A 
ATOM      7  S   UNL d   1      33.131  22.608 -16.328  0.00  0.00     0.213 S 
ATOM      8  O   UNL d   1      33.234  21.805 -16.463  0.00  0.00    -0.217 OA
ATOM      9  O   UNL d   1      33.181  22.915 -15.565  0.00  0.00    -0.217 OA
ATOM     10  C   UNL d   1      33.013  23.423 -16.287  0.00  0.00     0.100 A 
ATOM     11  C   UNL d   1      32.874  23.702 -17.055  0.00  0.00     0.032 A 
ENDBRANCH   2   5
BRANCH   3  12
ATOM     12  C   UNL d   1      32.585  22.727 -20.380  0.00  0.00     0.086 A 
ATOM     13  C   UNL d   1      33.189  22.762 -20.941  0.00  0.00     0.019 A 
ATOM     14  C   UNL d   1      33.043  23.079 -21.675  0.00  0.00     0.002 A 
ATOM     15  C   UNL d   1      32.293  23.368 -21.863  0.00  0.00     0.000 A 
ATOM     16  C   UNL d   1      31.689  23.334 -21.302  0.00  0.00     0.002 A 
ATOM     17  C   UNL d   1      31.839  23.013 -20.561  0.00  0.00     0.019 A 
ENDBRANCH   3  12
TORSDOF 2
ENDMDL
