MODEL 1
REMARK VINA RESULT:      42.4      0.000      0.000
REMARK  4 active torsions:
REMARK  status: ('A' for Active; 'I' for Inactive)
REMARK    1  A    between atoms: S_10  and  C_3 
REMARK    2  A    between atoms: C_11  and  C_7 
REMARK    3  A    between atoms: C_13  and  S_10 
REMARK    4  A    between atoms: C_15  and  C_13 
ROOT
ATOM      1  N   UNL d   1     -57.452 -98.760 -44.617  0.00  0.00    -0.186 N 
ATOM      2  N   UNL d   1     -57.737 -98.759 -43.850  0.00  0.00    -0.162 NA
ATOM      3  C   UNL d   1     -56.680 -98.759 -44.921  0.00  0.00     0.217 A 
ATOM      4  C   UNL d   1     -57.971 -98.762 -45.261  0.00  0.00     0.187 A 
ATOM      5  N   UNL d   1     -56.734 -98.761 -45.739  0.00  0.00    -0.120 NA
ATOM      6  N   UNL d   1     -57.533 -98.763 -45.952  0.00  0.00    -0.127 NA
ATOM      7  C   UNL d   1     -58.556 -98.760 -43.719  0.00  0.00     0.102 A 
ATOM      8  C   UNL d   1     -58.792 -98.764 -45.127  0.00  0.00     0.042 A 
ATOM      9  C   UNL d   1     -59.080 -98.763 -44.361  0.00  0.00     0.024 A 
ENDROOT
BRANCH   3  10
ATOM     10  S   UNL d   1     -55.971 -98.757 -44.494  0.00  0.00    -0.046 SA
BRANCH  10  11
ATOM     11  C   UNL d   1     -55.799 -99.361 -43.974  0.00  0.00     0.038 C 
BRANCH  11  12
ATOM     12  C   UNL d   1     -55.592-100.100 -44.256  0.00  0.00     0.007 A 
ATOM     13  C   UNL d   1     -56.017-100.777 -44.037  0.00  0.00     0.003 A 
ATOM     14  C   UNL d   1     -55.799-101.525 -44.329  0.00  0.00     0.030 A 
ATOM     15  C   UNL d   1     -55.159-101.587 -44.837  0.00  0.00     0.140 A 
ATOM     16  C   UNL d   1     -54.724-100.928 -45.066  0.00  0.00     0.030 A 
ATOM     17  F   UNL d   1     -54.946-102.332 -45.125  0.00  0.00    -0.204 F 
ATOM     18  C   UNL d   1     -54.942-100.181 -44.775  0.00  0.00     0.003 A 
ENDBRANCH  11  12
ENDBRANCH  10  11
ENDBRANCH   3  10
BRANCH   7  19
ATOM     19  C   UNL d   1     -58.850 -98.759 -42.946  0.00  0.00     0.022 A 
ATOM     20  C   UNL d   1     -58.332 -98.756 -42.315  0.00  0.00     0.022 A 
ATOM     21  C   UNL d   1     -58.606 -98.755 -41.539  0.00  0.00     0.099 A 
ATOM     22  N   UNL d   1     -59.443 -98.757 -41.409  0.00  0.00    -0.242 NA
ATOM     23  C   UNL d   1     -59.960 -98.760 -42.045  0.00  0.00     0.099 A 
ATOM     24  C   UNL d   1     -59.664 -98.761 -42.813  0.00  0.00     0.022 A 
ENDBRANCH   7  19
TORSDOF 4
ENDMDL
