MODEL 1
REMARK VINA RESULT:      63.2      0.000      0.000
REMARK  3 active torsions:
REMARK  status: ('A' for Active; 'I' for Inactive)
REMARK    1  A    between atoms: C_6  and  N_1 
REMARK    2  A    between atoms: C_5  and  C_6 
REMARK       I    between atoms: N_10  and  C_5 
REMARK    3  A    between atoms: C_16  and  N_10 
ROOT
ATOM      1  C   UNL d   1      60.707  48.999  50.563  0.00  0.00     0.297 C 
ATOM      2  N   UNL d   1      60.316  48.285  50.462  0.00  0.00    -0.207 NA
ATOM      3  O   UNL d   1      61.533  49.006  50.628  0.00  0.00    -0.264 OA
ENDROOT
BRANCH   1   4
ATOM      4  C   UNL d   1      60.284  49.703  50.601  0.00  0.00     0.148 C 
BRANCH   4   5
ATOM      5  N   UNL d   1      59.517  49.705  50.897  0.00  0.00    -0.235 N 
ATOM      6  C   UNL d   1      58.876  49.706  50.385  0.00  0.00     0.273 A 
ATOM      7  C   UNL d   1      58.106  49.707  50.685  0.00  0.00     0.086 A 
ATOM      8  O   UNL d   1      58.996  49.705  49.565  0.00  0.00    -0.266 OA
ATOM      9  C   UNL d   1      57.447  49.708  50.186  0.00  0.00     0.012 C 
ATOM     10  S   UNL d   1      57.995  49.708  51.500  0.00  0.00    -0.077 SA
ATOM     11  C   UNL d   1      58.631  49.707  52.015  0.00  0.00     0.097 A 
ATOM     12  C   UNL d   1      59.398  49.706  51.719  0.00  0.00     0.274 A 
ATOM     13  O   UNL d   1      60.044  49.705  52.238  0.00  0.00    -0.266 OA
ENDBRANCH   4   5
ENDBRANCH   1   4
BRANCH   2  14
ATOM     14  C   UNL d   1      60.735  47.582  50.424  0.00  0.00     0.087 A 
ATOM     15  C   UNL d   1      61.296  47.491  49.827  0.00  0.00     0.045 A 
ATOM     16  C   UNL d   1      61.728  46.797  49.768  0.00  0.00     0.121 A 
ATOM     17  O   UNL d   1      62.312  46.548  49.245  0.00  0.00    -0.299 OA
ATOM     18  C   UNL d   1      61.598  46.187  50.311  0.00  0.00     0.119 A 
ATOM     19  C   UNL d   1      62.543  45.786  49.465  0.00  0.00     0.304 A 
ATOM     20  O   UNL d   1      62.105  45.573  50.114  0.00  0.00    -0.300 OA
ATOM     21  C   UNL d   1      61.038  46.273  50.911  0.00  0.00     0.028 A 
ATOM     22  C   UNL d   1      60.600  46.974  50.972  0.00  0.00     0.021 A 
ENDBRANCH   2  14
TORSDOF 3
ENDMDL
