MODEL 1
REMARK VINA RESULT:      -1.4      0.000      0.000
REMARK  5 active torsions:
REMARK  status: ('A' for Active; 'I' for Inactive)
REMARK    1  A    between atoms: C_10  and  C_4 
REMARK    2  A    between atoms: C_19  and  N_5 
REMARK       I    between atoms: N_11  and  C_10 
REMARK    3  A    between atoms: C_22  and  C_19 
REMARK    4  A    between atoms: C_26  and  C_22 
REMARK    5  A    between atoms: O_23  and  C_26 
ROOT
ATOM      1  C   UNL d   1      33.072  21.816 -21.727  0.00  0.00     0.154 A 
ATOM      2  C   UNL d   1      32.965  21.218 -21.170  0.00  0.00     0.093 A 
ATOM      3  N   UNL d   1      33.115  22.588 -21.493  0.00  0.00    -0.210 NA
ATOM      4  C   UNL d   1      33.089  20.880 -22.729  0.00  0.00     0.122 A 
ATOM      5  N   UNL d   1      33.133  21.646 -22.500  0.00  0.00    -0.286 N 
ATOM      6  C   UNL d   1      32.903  21.385 -20.383  0.00  0.00     0.269 A 
ATOM      7  N   UNL d   1      32.948  22.163 -20.159  0.00  0.00    -0.258 N 
ATOM      8  C   UNL d   1      33.054  22.761 -20.716  0.00  0.00     0.152 A 
ATOM      9  C   UNL d   1      32.984  20.291 -22.180  0.00  0.00     0.030 A 
ATOM     10  C   UNL d   1      32.884  22.323 -19.372  0.00  0.00     0.084 A 
ATOM     11  O   UNL d   1      32.796  20.787 -19.825  0.00  0.00    -0.266 OA
ATOM     12  C   UNL d   1      33.097  23.521 -20.488  0.00  0.00     0.038 A 
ATOM     13  C   UNL d   1      32.930  23.098 -19.158  0.00  0.00     0.019 A 
ATOM     14  C   UNL d   1      33.037  23.697 -19.716  0.00  0.00     0.005 A 
ENDROOT
BRANCH   4  15
ATOM     15  C   UNL d   1      33.152  20.707 -23.522  0.00  0.00     0.281 C 
ATOM     16  N   UNL d   1      33.144  19.907 -23.763  0.00  0.00    -0.267 N 
ATOM     17  C   UNL d   1      33.208  19.727 -24.578  0.00  0.00     0.110 A 
ATOM     18  C   UNL d   1      33.072  19.298 -23.194  0.00  0.00     0.110 A 
ATOM     19  C   UNL d   1      33.201  18.927 -24.826  0.00  0.00     0.142 A 
ATOM     20  O   UNL d   1      33.129  18.310 -24.262  0.00  0.00    -0.300 OA
ATOM     21  C   UNL d   1      33.065  18.498 -23.448  0.00  0.00     0.142 A 
ATOM     22  O   UNL d   1      33.222  21.314 -24.071  0.00  0.00    -0.265 OA
ENDBRANCH   4  15
BRANCH   5  23
ATOM     23  C   UNL d   1      33.240  22.257 -23.056  0.00  0.00     0.084 C 
BRANCH  23  24
ATOM     24  C   UNL d   1      32.616  22.778 -23.232  0.00  0.00     0.045 C 
BRANCH  24  25
ATOM     25  C   UNL d   1      32.664  23.266 -23.905  0.00  0.00     0.118 C 
BRANCH  25  26
ATOM     26  O   UNL d   1      31.998  23.701 -24.145  0.00  0.00    -0.326 OA
ATOM     27  C   UNL d   1      31.722  23.644 -24.934  0.00  0.00     0.181 C 
ENDBRANCH  25  26
ENDBRANCH  24  25
ENDBRANCH  23  24
ENDBRANCH   5  23
TORSDOF 5
ENDMDL
MODEL 2
REMARK VINA RESULT:      -0.6      1.470      4.462
REMARK  5 active torsions:
REMARK  status: ('A' for Active; 'I' for Inactive)
REMARK    1  A    between atoms: C_10  and  C_4 
REMARK    2  A    between atoms: C_19  and  N_5 
REMARK       I    between atoms: N_11  and  C_10 
REMARK    3  A    between atoms: C_22  and  C_19 
REMARK    4  A    between atoms: C_26  and  C_22 
REMARK    5  A    between atoms: O_23  and  C_26 
ROOT
ATOM      1  C   UNL d   1      33.211  19.541 -23.191  0.00  0.00     0.154 A 
ATOM      2  C   UNL d   1      33.194  19.382 -24.001  0.00  0.00     0.093 A 
ATOM      3  N   UNL d   1      33.219  18.935 -22.657  0.00  0.00    -0.210 NA
ATOM      4  C   UNL d   1      33.212  20.886 -23.456  0.00  0.00     0.122 A 
ATOM      5  N   UNL d   1      33.220  20.288 -22.924  0.00  0.00    -0.286 N 
ATOM      6  C   UNL d   1      33.184  18.624 -24.277  0.00  0.00     0.269 A 
ATOM      7  N   UNL d   1      33.193  18.024 -23.733  0.00  0.00    -0.258 N 
ATOM      8  C   UNL d   1      33.210  18.183 -22.924  0.00  0.00     0.152 A 
ATOM      9  C   UNL d   1      33.195  20.729 -24.253  0.00  0.00     0.030 A 
ATOM     10  C   UNL d   1      33.183  17.270 -24.016  0.00  0.00     0.084 A 
ATOM     11  O   UNL d   1      33.167  18.464 -25.087  0.00  0.00    -0.266 OA
ATOM     12  C   UNL d   1      33.218  17.589 -22.397  0.00  0.00     0.038 A 
ATOM     13  C   UNL d   1      33.192  16.679 -23.468  0.00  0.00     0.019 A 
ATOM     14  C   UNL d   1      33.209  16.839 -22.659  0.00  0.00     0.005 A 
ENDROOT
BRANCH   4  15
ATOM     15  C   UNL d   1      33.222  21.652 -23.180  0.00  0.00     0.281 C 
ATOM     16  N   UNL d   1      33.215  22.280 -23.731  0.00  0.00    -0.267 N 
ATOM     17  C   UNL d   1      33.224  23.068 -23.450  0.00  0.00     0.110 A 
ATOM     18  C   UNL d   1      33.198  22.119 -24.552  0.00  0.00     0.110 A 
ATOM     19  C   UNL d   1      33.218  23.702 -23.998  0.00  0.00     0.142 A 
ATOM     20  O   UNL d   1      33.201  23.549 -24.822  0.00  0.00    -0.300 OA
ATOM     21  C   UNL d   1      33.192  22.757 -25.097  0.00  0.00     0.142 A 
ATOM     22  O   UNL d   1      33.238  21.798 -22.372  0.00  0.00    -0.265 OA
ENDBRANCH   4  15
BRANCH   5  23
ATOM     23  C   UNL d   1      33.238  20.440 -22.105  0.00  0.00     0.084 C 
BRANCH  23  24
ATOM     24  C   UNL d   1      32.551  20.345 -21.646  0.00  0.00     0.045 C 
BRANCH  24  25
ATOM     25  C   UNL d   1      32.539  20.620 -20.860  0.00  0.00     0.118 C 
BRANCH  25  26
ATOM     26  O   UNL d   1      31.867  21.017 -20.575  0.00  0.00    -0.326 OA
ATOM     27  C   UNL d   1      31.917  21.471 -19.872  0.00  0.00     0.181 C 
ENDBRANCH  25  26
ENDBRANCH  24  25
ENDBRANCH  23  24
ENDBRANCH   5  23
TORSDOF 5
ENDMDL
