MODEL 1
REMARK VINA RESULT:      38.5      0.000      0.000
REMARK  3 active torsions:
REMARK  status: ('A' for Active; 'I' for Inactive)
REMARK    1  A    between atoms: N_12  and  C_6 
REMARK    2  A    between atoms: C_18  and  N_12 
REMARK    3  A    between atoms: C_19  and  C_18 
ROOT
ATOM      1  N   UNL d   1      14.523  14.340  -2.029  0.00  0.00    -0.175 N 
ATOM      2  C   UNL d   1      14.708  14.138  -1.282  0.00  0.00     0.167 A 
ATOM      3  N   UNL d   1      14.250  13.762  -2.551  0.00  0.00    -0.142 NA
ATOM      4  C   UNL d   1      14.598  15.090  -2.278  0.00  0.00     0.283 A 
ATOM      5  N   UNL d   1      14.972  14.682  -0.767  0.00  0.00    -0.227 NA
ATOM      6  C   UNL d   1      14.166  12.978  -2.308  0.00  0.00     0.182 A 
ATOM      7  C   UNL d   1      14.872  15.668  -1.756  0.00  0.00     0.076 A 
ATOM      8  C   UNL d   1      14.624  13.354  -1.040  0.00  0.00     0.039 A 
ATOM      9  C   UNL d   1      15.056  15.466  -1.009  0.00  0.00     0.088 A 
ATOM     10  C   UNL d   1      14.351  12.777  -1.562  0.00  0.00     0.041 A 
ATOM     11  O   UNL d   1      14.405  15.301  -3.059  0.00  0.00    -0.265 OA
ATOM     12  C   UNL d   1      14.956  16.452  -1.998  0.00  0.00     0.006 A 
ATOM     13  C   UNL d   1      14.817  13.143  -0.260  0.00  0.00     0.003 A 
ATOM     14  C   UNL d   1      14.267  11.992  -1.319  0.00  0.00     0.003 A 
ATOM     15  C   UNL d   1      15.330  16.044  -0.487  0.00  0.00     0.019 A 
ATOM     16  C   UNL d   1      15.234  17.023  -1.454  0.00  0.00     0.000 A 
ATOM     17  C   UNL d   1      14.733  12.359  -0.017  0.00  0.00     0.000 A 
ATOM     18  C   UNL d   1      14.460  11.781  -0.539  0.00  0.00     0.000 A 
ATOM     19  C   UNL d   1      15.408  16.834  -0.752  0.00  0.00     0.002 A 
ENDROOT
BRANCH   6  20
ATOM     20  N   UNL d   1      13.891  12.359  -2.809  0.00  0.00    -0.220 NA
BRANCH  20  21
ATOM     21  C   UNL d   1      13.558  12.534  -3.546  0.00  0.00     0.146 C 
BRANCH  21  22
ATOM     22  C   UNL d   1      13.144  11.977  -3.966  0.00  0.00     0.255 C 
ATOM     23  O   UNL d   1      13.402  11.780  -4.739  0.00  0.00    -0.281 OA
ENDBRANCH  21  22
ENDBRANCH  20  21
ENDBRANCH   6  20
TORSDOF 3
ENDMDL
