MODEL 1
REMARK VINA RESULT:      27.9      0.000      0.000
REMARK  7 active torsions:
REMARK  status: ('A' for Active; 'I' for Inactive)
REMARK    1  A    between atoms: C_7  and  C_3 
REMARK    2  A    between atoms: C_8  and  C_7 
REMARK       I    between atoms: N_12  and  C_8 
REMARK    3  A    between atoms: C_15  and  N_12 
REMARK    4  A    between atoms: C_13  and  C_15 
REMARK    5  A    between atoms: C_16  and  C_13 
REMARK    6  A    between atoms: O_14  and  C_16 
REMARK    7  A    between atoms: C_17  and  O_14 
ROOT
ATOM      1  C   UNL d   1     -50.596  26.509  33.306  0.00  0.00     0.082 C 
ENDROOT
BRANCH   1   2
ATOM      2  C   UNL d   1     -51.032  25.804  33.315  0.00  0.00     0.096 A 
ATOM      3  C   UNL d   1     -50.640  25.076  33.312  0.00  0.00     0.082 A 
ATOM      4  C   UNL d   1     -51.066  24.362  33.321  0.00  0.00     0.285 A 
ATOM      5  N   UNL d   1     -51.893  24.401  33.332  0.00  0.00    -0.152 NA
ATOM      6  O   UNL d   1     -50.678  23.642  33.318  0.00  0.00    -0.265 OA
ATOM      7  C   UNL d   1     -52.285  25.129  33.335  0.00  0.00     0.371 A 
ATOM      8  N   UNL d   1     -51.854  25.826  33.326  0.00  0.00    -0.191 NA
ATOM      9  O   UNL d   1     -53.114  25.153  33.347  0.00  0.00    -0.242 OA
ENDBRANCH   1   2
BRANCH   1  10
ATOM     10  C   UNL d   1     -49.917  26.579  33.769  0.00  0.00     0.281 C 
ATOM     11  O   UNL d   1     -49.491  25.904  33.985  0.00  0.00    -0.265 OA
ATOM     12  N   UNL d   1     -49.663  27.325  34.015  0.00  0.00    -0.206 NA
BRANCH  12  13
ATOM     13  C   UNL d   1     -48.983  27.395  34.478  0.00  0.00     0.104 C 
BRANCH  13  14
ATOM     14  C   UNL d   1     -48.873  28.066  34.945  0.00  0.00     0.048 C 
BRANCH  14  15
ATOM     15  C   UNL d   1     -48.180  28.508  34.870  0.00  0.00     0.124 C 
BRANCH  15  16
ATOM     16  O   UNL d   1     -47.926  28.975  35.507  0.00  0.00    -0.303 OA
BRANCH  16  17
ATOM     17  C   UNL d   1     -47.628  29.731  35.360  0.00  0.00     0.123 C 
ATOM     18  C   UNL d   1     -47.296  30.168  35.977  0.00  0.00     0.029 C 
ENDBRANCH  16  17
ENDBRANCH  15  16
ENDBRANCH  14  15
ENDBRANCH  13  14
ENDBRANCH  12  13
ENDBRANCH   1  10
TORSDOF 7
ENDMDL
MODEL 2
REMARK VINA RESULT:      28.9      0.872      1.427
REMARK  7 active torsions:
REMARK  status: ('A' for Active; 'I' for Inactive)
REMARK    1  A    between atoms: C_7  and  C_3 
REMARK    2  A    between atoms: C_8  and  C_7 
REMARK       I    between atoms: N_12  and  C_8 
REMARK    3  A    between atoms: C_15  and  N_12 
REMARK    4  A    between atoms: C_13  and  C_15 
REMARK    5  A    between atoms: C_16  and  C_13 
REMARK    6  A    between atoms: O_14  and  C_16 
REMARK    7  A    between atoms: C_17  and  O_14 
ROOT
ATOM      1  C   UNL d   1     -49.804  26.560  33.343  0.00  0.00     0.082 C 
ENDROOT
BRANCH   1   2
ATOM      2  C   UNL d   1     -50.515  26.134  33.339  0.00  0.00     0.096 A 
ATOM      3  C   UNL d   1     -51.237  26.537  33.324  0.00  0.00     0.082 A 
ATOM      4  C   UNL d   1     -51.957  26.120  33.321  0.00  0.00     0.285 A 
ATOM      5  N   UNL d   1     -51.930  25.293  33.333  0.00  0.00    -0.152 NA
ATOM      6  O   UNL d   1     -52.671  26.519  33.306  0.00  0.00    -0.265 OA
ATOM      7  C   UNL d   1     -51.208  24.890  33.348  0.00  0.00     0.371 A 
ATOM      8  N   UNL d   1     -50.505  25.312  33.351  0.00  0.00    -0.191 NA
ATOM      9  O   UNL d   1     -51.196  24.062  33.359  0.00  0.00    -0.242 OA
ENDBRANCH   1   2
BRANCH   1  10
ATOM     10  C   UNL d   1     -49.728  27.231  33.818  0.00  0.00     0.281 C 
ATOM     11  O   UNL d   1     -50.362  27.754  33.901  0.00  0.00    -0.265 OA
ATOM     12  N   UNL d   1     -49.016  27.378  34.209  0.00  0.00    -0.206 NA
BRANCH  12  13
ATOM     13  C   UNL d   1     -48.940  28.049  34.683  0.00  0.00     0.104 C 
BRANCH  13  14
ATOM     14  C   UNL d   1     -48.194  28.280  34.949  0.00  0.00     0.048 C 
BRANCH  14  15
ATOM     15  C   UNL d   1     -48.125  28.900  35.490  0.00  0.00     0.124 C 
BRANCH  15  16
ATOM     16  O   UNL d   1     -47.673  29.566  35.289  0.00  0.00    -0.303 OA
BRANCH  16  17
ATOM     17  C   UNL d   1     -47.348  30.029  35.890  0.00  0.00     0.123 C 
ATOM     18  C   UNL d   1     -47.027  30.768  35.709  0.00  0.00     0.029 C 
ENDBRANCH  16  17
ENDBRANCH  15  16
ENDBRANCH  14  15
ENDBRANCH  13  14
ENDBRANCH  12  13
ENDBRANCH   1  10
TORSDOF 7
ENDMDL
