MODEL 1
REMARK VINA RESULT:      78.2      0.000      0.000
REMARK  6 active torsions:
REMARK  status: ('A' for Active; 'I' for Inactive)
REMARK       I    between atoms: C_2  and  N_1 
REMARK    1  A    between atoms: C_4  and  N_1 
REMARK    2  A    between atoms: C_11  and  N_1 
REMARK    3  A    between atoms: C_3  and  C_2 
REMARK    4  A    between atoms: C_5  and  C_4 
REMARK       I    between atoms: N_10  and  C_5 
REMARK    5  A    between atoms: C_21  and  N_10 
REMARK    6  A    between atoms: C_13  and  C_11 
ROOT
ATOM      1  N   UNL d   1      14.628  15.788  -3.682  0.00  0.00    -0.281 N 
ATOM      2  C   UNL d   1      14.139  15.129  -3.777  0.00  0.00     0.263 C 
ATOM      3  O   UNL d   1      13.553  15.123  -4.338  0.00  0.00    -0.267 OA
ENDROOT
BRANCH   1   4
ATOM      4  C   UNL d   1      14.608  17.008  -4.397  0.00  0.00     0.181 A 
ATOM      5  C   UNL d   1      14.792  17.539  -4.823  0.00  0.00     0.007 A 
ATOM      6  C   UNL d   1      15.500  17.489  -5.213  0.00  0.00    -0.002 A 
ATOM      7  C   UNL d   1      15.982  16.839  -5.112  0.00  0.00    -0.001 A 
ATOM      8  C   UNL d   1      15.744  16.234  -4.610  0.00  0.00    -0.002 A 
ATOM      9  C   UNL d   1      15.036  16.283  -4.220  0.00  0.00     0.007 A 
BRANCH   4  10
ATOM     10  C   UNL d   1      14.413  18.267  -5.032  0.00  0.00     0.282 C 
ATOM     11  N   UNL d   1      14.418  18.549  -5.808  0.00  0.00    -0.210 NA
ATOM     12  O   UNL d   1      14.268  18.773  -4.400  0.00  0.00    -0.268 OA
BRANCH  11  13
ATOM     13  C   UNL d   1      14.275  19.348  -5.954  0.00  0.00     0.084 A 
ATOM     14  C   UNL d   1      13.635  19.652  -6.362  0.00  0.00     0.019 A 
ATOM     15  C   UNL d   1      13.708  20.458  -6.379  0.00  0.00     0.002 A 
ATOM     16  C   UNL d   1      14.398  20.659  -5.978  0.00  0.00     0.002 A 
ATOM     17  C   UNL d   1      14.739  19.973  -5.721  0.00  0.00     0.019 A 
ENDBRANCH  11  13
ENDBRANCH   4  10
ENDBRANCH   1   4
BRANCH   1  18
ATOM     18  C   UNL d   1      15.232  15.727  -3.066  0.00  0.00     0.104 C 
BRANCH  18  19
ATOM     19  C   UNL d   1      15.070  16.049  -2.268  0.00  0.00     0.117 A 
ATOM     20  O   UNL d   1      14.777  16.742  -2.110  0.00  0.00    -0.304 OA
ATOM     21  C   UNL d   1      14.713  16.824  -1.240  0.00  0.00     0.123 A 
ATOM     22  C   UNL d   1      14.968  16.179  -0.872  0.00  0.00     0.029 A 
ATOM     23  C   UNL d   1      15.215  15.639  -1.514  0.00  0.00     0.028 A 
ENDBRANCH  18  19
ENDBRANCH   1  18
BRANCH   2  24
ATOM     24  C   UNL d   1      13.843  14.222  -3.545  0.00  0.00     0.076 A 
ATOM     25  C   UNL d   1      13.596  14.115  -4.397  0.00  0.00     0.107 A 
ATOM     26  N   UNL d   1      13.243  13.374  -4.665  0.00  0.00    -0.206 NA
ATOM     27  C   UNL d   1      13.132  12.745  -4.112  0.00  0.00     0.279 A 
ATOM     28  C   UNL d   1      13.365  12.825  -3.273  0.00  0.00     0.063 A 
ATOM     29  O   UNL d   1      12.775  12.001  -4.391  0.00  0.00    -0.265 OA
ATOM     30  C   UNL d   1      13.721  13.568  -2.997  0.00  0.00     0.011 A 
ENDBRANCH   2  24
TORSDOF 6
ENDMDL
MODEL 2
REMARK VINA RESULT:      79.0      1.840      3.266
REMARK  6 active torsions:
REMARK  status: ('A' for Active; 'I' for Inactive)
REMARK       I    between atoms: C_2  and  N_1 
REMARK    1  A    between atoms: C_4  and  N_1 
REMARK    2  A    between atoms: C_11  and  N_1 
REMARK    3  A    between atoms: C_3  and  C_2 
REMARK    4  A    between atoms: C_5  and  C_4 
REMARK       I    between atoms: N_10  and  C_5 
REMARK    5  A    between atoms: C_21  and  N_10 
REMARK    6  A    between atoms: C_13  and  C_11 
ROOT
ATOM      1  N   UNL d   1      13.685  14.015  -3.197  0.00  0.00    -0.281 N 
ATOM      2  C   UNL d   1      14.048  13.650  -2.551  0.00  0.00     0.263 C 
ATOM      3  O   UNL d   1      14.683  13.995  -2.182  0.00  0.00    -0.267 OA
ENDROOT
BRANCH   1   4
ATOM      4  C   UNL d   1      14.017  15.243  -3.815  0.00  0.00     0.181 A 
ATOM      5  C   UNL d   1      14.247  15.901  -3.918  0.00  0.00     0.007 A 
ATOM      6  C   UNL d   1      14.552  16.304  -3.285  0.00  0.00    -0.002 A 
ATOM      7  C   UNL d   1      14.588  15.952  -2.550  0.00  0.00    -0.001 A 
ATOM      8  C   UNL d   1      14.311  15.183  -2.457  0.00  0.00    -0.002 A 
ATOM      9  C   UNL d   1      14.007  14.781  -3.090  0.00  0.00     0.007 A 
BRANCH   4  10
ATOM     10  C   UNL d   1      14.280  16.399  -4.603  0.00  0.00     0.282 C 
ATOM     11  N   UNL d   1      13.827  16.977  -4.980  0.00  0.00    -0.210 NA
ATOM     12  O   UNL d   1      15.101  16.416  -4.638  0.00  0.00    -0.268 OA
BRANCH  11  13
ATOM     13  C   UNL d   1      14.202  17.582  -5.398  0.00  0.00     0.084 A 
ATOM     14  C   UNL d   1      14.143  17.712  -6.204  0.00  0.00     0.019 A 
ATOM     15  C   UNL d   1      14.595  18.358  -6.386  0.00  0.00     0.002 A 
ATOM     16  C   UNL d   1      14.939  18.633  -5.691  0.00  0.00     0.002 A 
ATOM     17  C   UNL d   1      14.692  18.151  -5.091  0.00  0.00     0.019 A 
ENDBRANCH  11  13
ENDBRANCH   4  10
ENDBRANCH   1   4
BRANCH   1  18
ATOM     18  C   UNL d   1      13.014  13.593  -3.543  0.00  0.00     0.104 C 
BRANCH  18  19
ATOM     19  C   UNL d   1      13.152  13.002  -4.173  0.00  0.00     0.117 A 
ATOM     20  O   UNL d   1      13.376  13.151  -4.893  0.00  0.00    -0.304 OA
ATOM     21  C   UNL d   1      13.444  12.392  -5.326  0.00  0.00     0.123 A 
ATOM     22  C   UNL d   1      13.259  11.782  -4.865  0.00  0.00     0.029 A 
ATOM     23  C   UNL d   1      13.060  12.139  -4.093  0.00  0.00     0.028 A 
ENDBRANCH  18  19
ENDBRANCH   1  18
BRANCH   2  24
ATOM     24  C   UNL d   1      14.140  12.923  -1.897  0.00  0.00     0.076 A 
ATOM     25  C   UNL d   1      14.957  13.234  -1.709  0.00  0.00     0.107 A 
ATOM     26  N   UNL d   1      15.451  12.845  -1.117  0.00  0.00    -0.206 NA
ATOM     27  C   UNL d   1      15.154  12.165  -0.713  0.00  0.00     0.279 A 
ATOM     28  C   UNL d   1      14.359  11.842  -0.879  0.00  0.00     0.063 A 
ATOM     29  O   UNL d   1      15.660  11.780  -0.117  0.00  0.00    -0.265 OA
ATOM     30  C   UNL d   1      13.857  12.228  -1.474  0.00  0.00     0.011 A 
ENDBRANCH   2  24
TORSDOF 6
ENDMDL
