MODEL 1
REMARK VINA RESULT:      -9.4      0.000      0.000
REMARK  2 active torsions:
REMARK  status: ('A' for Active; 'I' for Inactive)
REMARK    1  A    between atoms: S_2  and  N_1 
REMARK    2  A    between atoms: N_6  and  S_2 
ROOT
ATOM      1  N   UNL d   1      53.412  32.304  53.482  0.00  0.00    -0.199 N 
ATOM      2  C   UNL d   1      53.275  31.495  53.482  0.00  0.00     0.095 A 
ATOM      3  C   UNL d   1      52.940  32.641  52.876  0.00  0.00     0.194 A 
ATOM      4  N   UNL d   1      52.522  32.024  52.516  0.00  0.00    -0.223 NA
ATOM      5  C   UNL d   1      52.728  31.321  52.888  0.00  0.00     0.100 A 
ATOM      6  C   UNL d   1      53.585  30.895  53.952  0.00  0.00     0.020 A 
ATOM      7  C   UNL d   1      52.493  30.540  52.769  0.00  0.00     0.021 A 
ATOM      8  C   UNL d   1      53.350  30.114  53.834  0.00  0.00     0.002 A 
ATOM      9  C   UNL d   1      52.801  29.934  53.239  0.00  0.00     0.002 A 
ATOM     10  C   UNL d   1      53.661  29.511  54.306  0.00  0.00     0.000 C 
ATOM     11  C   UNL d   1      52.564  29.151  53.119  0.00  0.00     0.000 C 
ENDROOT
BRANCH   1  12
ATOM     12  S   UNL d   1      53.914  32.711  53.979  0.00  0.00     0.339 S 
ATOM     13  O   UNL d   1      54.547  32.565  53.473  0.00  0.00    -0.181 OA
ATOM     14  O   UNL d   1      53.285  32.860  54.486  0.00  0.00    -0.181 OA
BRANCH  12  15
ATOM     15  N   UNL d   1      54.411  33.124  54.488  0.00  0.00    -0.212 N 
ATOM     16  C   UNL d   1      55.111  33.454  54.202  0.00  0.00     0.120 A 
ATOM     17  C   UNL d   1      55.606  33.865  54.708  0.00  0.00     0.142 A 
ATOM     18  O   UNL d   1      55.414  33.952  55.496  0.00  0.00    -0.300 OA
ATOM     19  C   UNL d   1      54.717  33.626  55.790  0.00  0.00     0.142 A 
ATOM     20  C   UNL d   1      54.212  33.208  55.279  0.00  0.00     0.120 A 
ENDBRANCH  12  15
ENDBRANCH   1  12
TORSDOF 2
ENDMDL
MODEL 2
REMARK VINA RESULT:      -9.1      2.055      3.863
REMARK  2 active torsions:
REMARK  status: ('A' for Active; 'I' for Inactive)
REMARK    1  A    between atoms: S_2  and  N_1 
REMARK    2  A    between atoms: N_6  and  S_2 
ROOT
ATOM      1  N   UNL d   1      52.553  32.842  53.260  0.00  0.00    -0.199 N 
ATOM      2  C   UNL d   1      53.112  33.113  53.795  0.00  0.00     0.095 A 
ATOM      3  C   UNL d   1      52.760  32.056  53.055  0.00  0.00     0.194 A 
ATOM      4  N   UNL d   1      53.447  31.862  53.473  0.00  0.00    -0.223 NA
ATOM      5  C   UNL d   1      53.663  32.512  53.927  0.00  0.00     0.100 A 
ATOM      6  C   UNL d   1      53.186  33.837  54.179  0.00  0.00     0.020 A 
ATOM      7  C   UNL d   1      54.289  32.643  54.447  0.00  0.00     0.021 A 
ATOM      8  C   UNL d   1      53.812  33.968  54.699  0.00  0.00     0.002 A 
ATOM      9  C   UNL d   1      54.367  33.368  54.835  0.00  0.00     0.002 A 
ATOM     10  C   UNL d   1      53.887  34.696  55.085  0.00  0.00     0.000 C 
ATOM     11  C   UNL d   1      54.996  33.497  55.356  0.00  0.00     0.000 C 
ENDROOT
BRANCH   1  12
ATOM     12  S   UNL d   1      51.911  33.258  52.976  0.00  0.00     0.339 S 
ATOM     13  O   UNL d   1      51.463  33.025  53.626  0.00  0.00    -0.181 OA
ATOM     14  O   UNL d   1      52.356  33.492  52.326  0.00  0.00    -0.181 OA
BRANCH  12  15
ATOM     15  N   UNL d   1      51.270  33.681  52.681  0.00  0.00    -0.212 N 
ATOM     16  C   UNL d   1      51.289  33.968  51.908  0.00  0.00     0.120 A 
ATOM     17  C   UNL d   1      50.651  34.389  51.614  0.00  0.00     0.142 A 
ATOM     18  O   UNL d   1      49.995  34.527  52.078  0.00  0.00    -0.300 OA
ATOM     19  C   UNL d   1      49.969  34.244  52.852  0.00  0.00     0.142 A 
ATOM     20  C   UNL d   1      50.614  33.816  53.154  0.00  0.00     0.120 A 
ENDBRANCH  12  15
ENDBRANCH   1  12
TORSDOF 2
ENDMDL
MODEL 3
REMARK VINA RESULT:      -9.0      1.632      3.638
REMARK  2 active torsions:
REMARK  status: ('A' for Active; 'I' for Inactive)
REMARK    1  A    between atoms: S_2  and  N_1 
REMARK    2  A    between atoms: N_6  and  S_2 
ROOT
ATOM      1  N   UNL d   1      53.520  32.250  53.464  0.00  0.00    -0.199 N 
ATOM      2  C   UNL d   1      52.969  32.856  53.412  0.00  0.00     0.095 A 
ATOM      3  C   UNL d   1      54.281  32.601  53.489  0.00  0.00     0.194 A 
ATOM      4  N   UNL d   1      54.178  33.421  53.450  0.00  0.00    -0.223 NA
ATOM      5  C   UNL d   1      53.372  33.577  53.403  0.00  0.00     0.100 A 
ATOM      6  C   UNL d   1      52.148  32.837  53.371  0.00  0.00     0.020 A 
ATOM      7  C   UNL d   1      52.944  34.280  53.353  0.00  0.00     0.021 A 
ATOM      8  C   UNL d   1      51.720  33.540  53.321  0.00  0.00     0.002 A 
ATOM      9  C   UNL d   1      52.119  34.266  53.312  0.00  0.00     0.002 A 
ATOM     10  C   UNL d   1      50.894  33.521  53.279  0.00  0.00     0.000 C 
ATOM     11  C   UNL d   1      51.692  34.972  53.261  0.00  0.00     0.000 C 
ENDROOT
BRANCH   1  12
ATOM     12  S   UNL d   1      53.361  31.451  53.489  0.00  0.00     0.339 S 
ATOM     13  O   UNL d   1      53.277  31.434  52.670  0.00  0.00    -0.181 OA
ATOM     14  O   UNL d   1      53.443  31.463  54.306  0.00  0.00    -0.181 OA
BRANCH  12  15
ATOM     15  N   UNL d   1      53.201  30.644  53.525  0.00  0.00    -0.212 N 
ATOM     16  C   UNL d   1      53.430  30.210  54.187  0.00  0.00     0.120 A 
ATOM     17  C   UNL d   1      53.272  29.407  54.224  0.00  0.00     0.142 A 
ATOM     18  O   UNL d   1      52.888  29.031  53.610  0.00  0.00    -0.300 OA
ATOM     19  C   UNL d   1      52.656  29.458  52.944  0.00  0.00     0.142 A 
ATOM     20  C   UNL d   1      52.815  30.273  52.904  0.00  0.00     0.120 A 
ENDBRANCH  12  15
ENDBRANCH   1  12
TORSDOF 2
ENDMDL
MODEL 4
REMARK VINA RESULT:      -8.9      1.870      3.037
REMARK  2 active torsions:
REMARK  status: ('A' for Active; 'I' for Inactive)
REMARK    1  A    between atoms: S_2  and  N_1 
REMARK    2  A    between atoms: N_6  and  S_2 
ROOT
ATOM      1  N   UNL d   1      52.864  33.011  53.327  0.00  0.00    -0.199 N 
ATOM      2  C   UNL d   1      53.012  32.204  53.356  0.00  0.00     0.095 A 
ATOM      3  C   UNL d   1      53.535  33.402  53.641  0.00  0.00     0.194 A 
ATOM      4  N   UNL d   1      54.083  32.821  53.858  0.00  0.00    -0.223 NA
ATOM      5  C   UNL d   1      53.761  32.086  53.683  0.00  0.00     0.100 A 
ATOM      6  C   UNL d   1      52.552  31.562  53.124  0.00  0.00     0.020 A 
ATOM      7  C   UNL d   1      54.046  31.318  53.775  0.00  0.00     0.021 A 
ATOM      8  C   UNL d   1      52.837  30.794  53.216  0.00  0.00     0.002 A 
ATOM      9  C   UNL d   1      53.588  30.670  53.543  0.00  0.00     0.002 A 
ATOM     10  C   UNL d   1      52.376  30.149  52.983  0.00  0.00     0.000 C 
ATOM     11  C   UNL d   1      53.877  29.901  53.636  0.00  0.00     0.000 C 
ENDROOT
BRANCH   1  12
ATOM     12  S   UNL d   1      52.189  33.370  53.044  0.00  0.00     0.339 S 
ATOM     13  O   UNL d   1      52.475  33.320  52.274  0.00  0.00    -0.181 OA
ATOM     14  O   UNL d   1      51.900  33.423  53.812  0.00  0.00    -0.181 OA
BRANCH  12  15
ATOM     15  N   UNL d   1      51.504  33.734  52.770  0.00  0.00    -0.212 N 
ATOM     16  C   UNL d   1      51.454  33.977  51.983  0.00  0.00     0.120 A 
ATOM     17  C   UNL d   1      50.772  34.339  51.711  0.00  0.00     0.142 A 
ATOM     18  O   UNL d   1      50.139  34.463  52.210  0.00  0.00    -0.300 OA
ATOM     19  C   UNL d   1      50.181  34.223  52.998  0.00  0.00     0.142 A 
ATOM     20  C   UNL d   1      50.871  33.856  53.278  0.00  0.00     0.120 A 
ENDBRANCH  12  15
ENDBRANCH   1  12
TORSDOF 2
ENDMDL
MODEL 5
REMARK VINA RESULT:      -8.2      1.296      2.532
REMARK  2 active torsions:
REMARK  status: ('A' for Active; 'I' for Inactive)
REMARK    1  A    between atoms: S_2  and  N_1 
REMARK    2  A    between atoms: N_6  and  S_2 
ROOT
ATOM      1  N   UNL d   1      53.185  32.721  53.525  0.00  0.00    -0.199 N 
ATOM      2  C   UNL d   1      52.521  33.138  53.282  0.00  0.00     0.095 A 
ATOM      3  C   UNL d   1      53.144  31.957  53.181  0.00  0.00     0.194 A 
ATOM      4  N   UNL d   1      52.450  31.924  52.731  0.00  0.00    -0.223 NA
ATOM      5  C   UNL d   1      52.068  32.649  52.793  0.00  0.00     0.100 A 
ATOM      6  C   UNL d   1      52.276  33.905  53.447  0.00  0.00     0.020 A 
ATOM      7  C   UNL d   1      51.365  32.937  52.472  0.00  0.00     0.021 A 
ATOM      8  C   UNL d   1      51.573  34.193  53.126  0.00  0.00     0.002 A 
ATOM      9  C   UNL d   1      51.115  33.707  52.635  0.00  0.00     0.002 A 
ATOM     10  C   UNL d   1      51.326  34.964  53.292  0.00  0.00     0.000 C 
ATOM     11  C   UNL d   1      50.410  33.994  52.312  0.00  0.00     0.000 C 
ENDROOT
BRANCH   1  12
ATOM     12  S   UNL d   1      53.778  32.994  54.012  0.00  0.00     0.339 S 
ATOM     13  O   UNL d   1      54.188  33.288  53.361  0.00  0.00    -0.181 OA
ATOM     14  O   UNL d   1      53.372  32.702  54.664  0.00  0.00    -0.181 OA
BRANCH  12  15
ATOM     15  N   UNL d   1      54.372  33.267  54.513  0.00  0.00    -0.212 N 
ATOM     16  C   UNL d   1      55.073  33.564  54.197  0.00  0.00     0.120 A 
ATOM     17  C   UNL d   1      55.663  33.835  54.695  0.00  0.00     0.142 A 
ATOM     18  O   UNL d   1      55.565  33.813  55.505  0.00  0.00    -0.300 OA
ATOM     19  C   UNL d   1      54.867  33.518  55.829  0.00  0.00     0.142 A 
ATOM     20  C   UNL d   1      54.266  33.242  55.326  0.00  0.00     0.120 A 
ENDBRANCH  12  15
ENDBRANCH   1  12
TORSDOF 2
ENDMDL
