MODEL 1
REMARK VINA RESULT:      31.2      0.000      0.000
REMARK  6 active torsions:
REMARK  status: ('A' for Active; 'I' for Inactive)
REMARK    1  A    between atoms: C_6  and  C_1 
REMARK    2  A    between atoms: C_8  and  C_4 
REMARK       I    between atoms: N_22  and  C_6 
REMARK    3  A    between atoms: N_9  and  C_23 
REMARK    4  A    between atoms: C_25  and  N_22 
REMARK    5  A    between atoms: C_23  and  C_24 
REMARK    6  A    between atoms: C_24  and  C_25 
ROOT
ATOM      1  C   UNL d   1     -55.214-101.955 -39.923  0.00  0.00     0.168 A 
ATOM      2  N   UNL d   1     -55.673-102.615 -39.789  0.00  0.00    -0.121 NA
ATOM      3  C   UNL d   1     -54.923-101.695 -39.188  0.00  0.00     0.053 A 
ATOM      4  C   UNL d   1     -55.210-102.203 -38.615  0.00  0.00     0.127 A 
ATOM      5  O   UNL d   1     -55.673-102.771 -38.991  0.00  0.00    -0.211 OA
ENDROOT
BRANCH   1   6
ATOM      6  C   UNL d   1     -54.884-101.225 -41.327  0.00  0.00     0.299 C 
ATOM      7  O   UNL d   1     -54.713-100.425 -41.385  0.00  0.00    -0.263 OA
ATOM      8  N   UNL d   1     -54.887-101.695 -42.045  0.00  0.00    -0.205 NA
BRANCH   8   9
ATOM      9  C   UNL d   1     -54.712-101.321 -42.810  0.00  0.00     0.104 C 
BRANCH   9  10
ATOM     10  C   UNL d   1     -55.219-101.480 -43.484  0.00  0.00     0.040 C 
BRANCH  10  11
ATOM     11  C   UNL d   1     -55.012-101.189 -44.264  0.00  0.00     0.083 C 
BRANCH  11  12
ATOM     12  N   UNL d   1     -55.273-100.414 -44.523  0.00  0.00    -0.285 N 
ATOM     13  C   UNL d   1     -54.773 -99.783 -44.815  0.00  0.00     0.183 A 
ATOM     14  N   UNL d   1     -55.293 -99.111 -45.006  0.00  0.00    -0.222 NA
ATOM     15  C   UNL d   1     -56.082 -99.326 -44.835  0.00  0.00     0.120 A 
ATOM     16  C   UNL d   1     -56.089-100.136 -44.533  0.00  0.00     0.102 A 
ENDBRANCH  11  12
ENDBRANCH  10  11
ENDBRANCH   9  10
ENDBRANCH   8   9
ENDBRANCH   1   6
BRANCH   4  17
ATOM     17  C   UNL d   1     -55.083-102.183 -37.820  0.00  0.00     0.027 A 
ATOM     18  C   UNL d   1     -55.065-101.465 -37.424  0.00  0.00     0.028 A 
ATOM     19  C   UNL d   1     -54.937-101.452 -36.626  0.00  0.00     0.119 A 
ATOM     20  O   UNL d   1     -54.891-100.833 -36.096  0.00  0.00    -0.300 OA
ATOM     21  C   UNL d   1     -54.826-102.137 -36.201  0.00  0.00     0.119 A 
ATOM     22  C   UNL d   1     -54.753-101.136 -35.357  0.00  0.00     0.304 A 
ATOM     23  O   UNL d   1     -54.712-101.945 -35.419  0.00  0.00    -0.300 OA
ATOM     24  C   UNL d   1     -54.843-102.863 -36.592  0.00  0.00     0.026 A 
ATOM     25  C   UNL d   1     -54.969-102.880 -37.386  0.00  0.00     0.004 A 
ENDBRANCH   4  17
TORSDOF 6
ENDMDL
