MODEL 1
REMARK VINA RESULT:      -3.8      0.000      0.000
REMARK  5 active torsions:
REMARK  status: ('A' for Active; 'I' for Inactive)
REMARK    1  A    between atoms: N_2  and  S_1 
REMARK    2  A    between atoms: C_6  and  S_1 
REMARK       I    between atoms: C_3  and  N_4 
REMARK    3  A    between atoms: C_5  and  C_3 
REMARK    4  A    between atoms: C_11  and  O_13 
REMARK    5  A    between atoms: O_13  and  C_23 
ROOT
ATOM      1  S   UNL d   1      33.036  20.013 -22.119  0.00  0.00     0.271 S 
ATOM      2  O   UNL d   1      32.889  20.776 -22.411  0.00  0.00    -0.200 OA
ATOM      3  O   UNL d   1      33.232  19.907 -21.325  0.00  0.00    -0.200 OA
ENDROOT
BRANCH   1   4
ATOM      4  N   UNL d   1      33.034  20.775 -21.789  0.00  0.00    -0.226 N 
ATOM      5  C   UNL d   1      32.826  20.882 -20.997  0.00  0.00     0.111 A 
ATOM      6  C   UNL d   1      32.826  21.642 -20.673  0.00  0.00     0.103 A 
ATOM      7  N   UNL d   1      33.031  22.284 -21.135  0.00  0.00    -0.267 N 
ATOM      8  C   UNL d   1      33.030  23.045 -20.808  0.00  0.00     0.288 C 
ATOM      9  C   UNL d   1      33.240  22.185 -21.930  0.00  0.00     0.103 A 
ATOM     10  O   UNL d   1      33.238  23.702 -21.276  0.00  0.00    -0.264 OA
ATOM     11  C   UNL d   1      33.241  21.423 -22.256  0.00  0.00     0.111 A 
BRANCH   8  12
ATOM     12  C   UNL d   1      32.822  23.157 -20.013  0.00  0.00     0.156 A 
ATOM     13  O   UNL d   1      33.224  22.852 -19.352  0.00  0.00    -0.300 OA
ATOM     14  C   UNL d   1      32.824  23.102 -18.672  0.00  0.00     0.123 A 
ATOM     15  C   UNL d   1      32.171  23.565 -18.906  0.00  0.00     0.029 A 
ATOM     16  C   UNL d   1      32.176  23.594 -19.742  0.00  0.00     0.032 A 
ENDBRANCH   8  12
ENDBRANCH   1   4
BRANCH   1  17
ATOM     17  C   UNL d   1      32.985  19.362 -22.628  0.00  0.00     0.104 A 
ATOM     18  C   UNL d   1      33.049  18.601 -22.329  0.00  0.00     0.015 A 
ATOM     19  C   UNL d   1      32.998  17.954 -22.837  0.00  0.00     0.025 A 
ATOM     20  C   UNL d   1      32.882  18.072 -23.642  0.00  0.00     0.100 A 
ATOM     21  C   UNL d   1      32.818  18.838 -23.941  0.00  0.00     0.025 A 
ATOM     22  C   UNL d   1      32.869  19.481 -23.433  0.00  0.00     0.015 A 
BRANCH  20  23
ATOM     23  O   UNL d   1      32.829  17.423 -24.163  0.00  0.00    -0.307 OA
BRANCH  23  24
ATOM     24  C   UNL d   1      32.172  16.927 -24.129  0.00  0.00     0.100 A 
ATOM     25  C   UNL d   1      32.262  16.118 -24.233  0.00  0.00     0.023 A 
ATOM     26  C   UNL d   1      33.010  15.806 -24.372  0.00  0.00     0.002 C 
ATOM     27  C   UNL d   1      31.605  15.614 -24.200  0.00  0.00     0.002 A 
ATOM     28  C   UNL d   1      30.853  15.925 -24.060  0.00  0.00     0.000 A 
ATOM     29  C   UNL d   1      30.766  16.741 -23.955  0.00  0.00     0.002 A 
ATOM     30  C   UNL d   1      31.423  17.236 -23.990  0.00  0.00     0.025 A 
ENDBRANCH  23  24
ENDBRANCH  20  23
ENDBRANCH   1  17
TORSDOF 5
ENDMDL
MODEL 2
REMARK VINA RESULT:      -1.5      1.393      6.250
REMARK  5 active torsions:
REMARK  status: ('A' for Active; 'I' for Inactive)
REMARK    1  A    between atoms: N_2  and  S_1 
REMARK    2  A    between atoms: C_6  and  S_1 
REMARK       I    between atoms: C_3  and  N_4 
REMARK    3  A    between atoms: C_5  and  C_3 
REMARK    4  A    between atoms: C_11  and  O_13 
REMARK    5  A    between atoms: O_13  and  C_23 
ROOT
ATOM      1  S   UNL d   1      32.709  19.571 -23.255  0.00  0.00     0.271 S 
ATOM      2  O   UNL d   1      32.774  18.898 -22.774  0.00  0.00    -0.200 OA
ATOM      3  O   UNL d   1      32.512  19.489 -24.052  0.00  0.00    -0.200 OA
ENDROOT
BRANCH   1   4
ATOM      4  N   UNL d   1      32.619  18.754 -23.377  0.00  0.00    -0.226 N 
ATOM      5  C   UNL d   1      31.921  18.458 -23.703  0.00  0.00     0.111 A 
ATOM      6  C   UNL d   1      31.837  17.645 -23.822  0.00  0.00     0.103 A 
ATOM      7  N   UNL d   1      32.443  17.137 -23.617  0.00  0.00    -0.267 N 
ATOM      8  C   UNL d   1      32.357  16.322 -23.736  0.00  0.00     0.288 C 
ATOM      9  C   UNL d   1      33.146  17.426 -23.288  0.00  0.00     0.103 A 
ATOM     10  O   UNL d   1      32.972  15.800 -23.528  0.00  0.00    -0.264 OA
ATOM     11  C   UNL d   1      33.232  18.241 -23.169  0.00  0.00     0.111 A 
BRANCH   8  12
ATOM     12  C   UNL d   1      31.657  16.021 -24.064  0.00  0.00     0.156 A 
ATOM     13  O   UNL d   1      31.478  15.966 -24.875  0.00  0.00    -0.300 OA
ATOM     14  C   UNL d   1      30.723  15.631 -24.947  0.00  0.00     0.123 A 
ATOM     15  C   UNL d   1      30.430  15.477 -24.182  0.00  0.00     0.029 A 
ATOM     16  C   UNL d   1      31.016  15.721 -23.638  0.00  0.00     0.032 A 
ENDBRANCH   8  12
ENDBRANCH   1   4
BRANCH   1  17
ATOM     17  C   UNL d   1      32.841  20.321 -22.933  0.00  0.00     0.104 A 
ATOM     18  C   UNL d   1      32.857  20.423 -22.119  0.00  0.00     0.015 A 
ATOM     19  C   UNL d   1      32.989  21.171 -21.800  0.00  0.00     0.025 A 
ATOM     20  C   UNL d   1      33.105  21.815 -22.298  0.00  0.00     0.100 A 
ATOM     21  C   UNL d   1      33.090  21.711 -23.115  0.00  0.00     0.025 A 
ATOM     22  C   UNL d   1      32.958  20.965 -23.431  0.00  0.00     0.015 A 
BRANCH  20  23
ATOM     23  O   UNL d   1      33.240  22.575 -21.983  0.00  0.00    -0.307 OA
BRANCH  23  24
ATOM     24  C   UNL d   1      32.942  22.766 -21.238  0.00  0.00     0.100 A 
ATOM     25  C   UNL d   1      32.350  23.329 -21.165  0.00  0.00     0.023 A 
ATOM     26  C   UNL d   1      32.056  23.702 -21.836  0.00  0.00     0.002 C 
ATOM     27  C   UNL d   1      32.046  23.526 -20.419  0.00  0.00     0.002 A 
ATOM     28  C   UNL d   1      32.339  23.153 -19.743  0.00  0.00     0.000 A 
ATOM     29  C   UNL d   1      32.936  22.585 -19.821  0.00  0.00     0.002 A 
ATOM     30  C   UNL d   1      33.233  22.395 -20.565  0.00  0.00     0.025 A 
ENDBRANCH  23  24
ENDBRANCH  20  23
ENDBRANCH   1  17
TORSDOF 5
ENDMDL
