MODEL 1
REMARK VINA RESULT:      18.9      0.000      0.000
REMARK  3 active torsions:
REMARK  status: ('A' for Active; 'I' for Inactive)
REMARK    1  A    between atoms: N_3  and  C_1 
REMARK       I    between atoms: C_2  and  N_3 
REMARK       I    between atoms: N_14  and  C_2 
REMARK    2  A    between atoms: C_16  and  N_14 
REMARK    3  A    between atoms: C_17  and  C_16 
ROOT
ATOM      1  C   UNL d   1      58.054  49.702  50.580  0.00  0.00     0.127 A 
ATOM      2  C   UNL d   1      57.323  49.692  49.723  0.00  0.00    -0.006 A 
ATOM      3  C   UNL d   1      56.945  49.686  51.375  0.00  0.00     0.046 A 
ATOM      4  C   UNL d   1      56.827  49.685  50.039  0.00  0.00    -0.006 A 
ATOM      5  C   UNL d   1      57.580  49.695  49.931  0.00  0.00    -0.001 A 
ATOM      6  C   UNL d   1      58.480  49.708  50.016  0.00  0.00    -0.001 A 
ATOM      7  C   UNL d   1      57.750  49.697  51.196  0.00  0.00     0.040 A 
ATOM      8  C   UNL d   1      56.951  49.686  50.655  0.00  0.00    -0.022 A 
ATOM      9  C   UNL d   1      56.514  49.680  50.749  0.00  0.00    -0.022 A 
ATOM     10  C   UNL d   1      56.159  49.676  48.840  0.00  0.00    -0.001 A 
ENDROOT
BRANCH   1  11
ATOM     11  N   UNL d   1      58.503  49.708  51.394  0.00  0.00    -0.213 NA
ATOM     12  C   UNL d   1      59.408  49.697  51.400  0.00  0.00     0.365 C 
ATOM     13  O   UNL d   1      59.846  49.702  52.191  0.00  0.00    -0.243 OA
ATOM     14  N   UNL d   1      59.914  49.679  50.577  0.00  0.00    -0.186 NA
BRANCH  14  15
ATOM     15  C   UNL d   1      60.829  49.669  50.610  0.00  0.00     0.149 C 
BRANCH  15  16
ATOM     16  C   UNL d   1      61.300  49.054  50.126  0.00  0.00     0.255 C 
ATOM     17  O   UNL d   1      61.311  48.142  50.360  0.00  0.00    -0.281 OA
ENDBRANCH  15  16
ENDBRANCH  14  15
ENDBRANCH   1  11
TORSDOF 3
ENDMDL
MODEL 2
REMARK VINA RESULT:      19.6      0.898      1.649
REMARK  3 active torsions:
REMARK  status: ('A' for Active; 'I' for Inactive)
REMARK    1  A    between atoms: N_3  and  C_1 
REMARK       I    between atoms: C_2  and  N_3 
REMARK       I    between atoms: N_14  and  C_2 
REMARK    2  A    between atoms: C_16  and  N_14 
REMARK    3  A    between atoms: C_17  and  C_16 
ROOT
ATOM      1  C   UNL d   1      58.288  49.701  50.600  0.00  0.00     0.127 A 
ATOM      2  C   UNL d   1      57.375  49.691  51.260  0.00  0.00    -0.006 A 
ATOM      3  C   UNL d   1      57.398  49.683  49.565  0.00  0.00     0.046 A 
ATOM      4  C   UNL d   1      56.968  49.683  50.835  0.00  0.00    -0.006 A 
ATOM      5  C   UNL d   1      57.674  49.694  51.119  0.00  0.00    -0.001 A 
ATOM      6  C   UNL d   1      58.569  49.708  51.248  0.00  0.00    -0.001 A 
ATOM      7  C   UNL d   1      58.138  49.695  49.929  0.00  0.00     0.040 A 
ATOM      8  C   UNL d   1      57.234  49.684  50.267  0.00  0.00    -0.022 A 
ATOM      9  C   UNL d   1      56.832  49.677  50.072  0.00  0.00    -0.022 A 
ATOM     10  C   UNL d   1      56.036  49.674  51.843  0.00  0.00    -0.001 A 
ENDROOT
BRANCH   1  11
ATOM     11  N   UNL d   1      58.916  49.706  49.915  0.00  0.00    -0.213 NA
ATOM     12  C   UNL d   1      59.797  49.670  50.123  0.00  0.00     0.365 C 
ATOM     13  O   UNL d   1      60.410  49.676  49.457  0.00  0.00    -0.243 OA
ATOM     14  N   UNL d   1      60.093  49.626  51.041  0.00  0.00    -0.186 NA
BRANCH  14  15
ATOM     15  C   UNL d   1      60.990  49.591  51.224  0.00  0.00     0.149 C 
BRANCH  15  16
ATOM     16  C   UNL d   1      61.281  49.333  52.051  0.00  0.00     0.255 C 
ATOM     17  O   UNL d   1      60.927  49.707  52.839  0.00  0.00    -0.281 OA
ENDBRANCH  15  16
ENDBRANCH  14  15
ENDBRANCH   1  11
TORSDOF 3
ENDMDL
MODEL 3
REMARK VINA RESULT:      21.9      1.614      3.377
REMARK  3 active torsions:
REMARK  status: ('A' for Active; 'I' for Inactive)
REMARK    1  A    between atoms: N_3  and  C_1 
REMARK       I    between atoms: C_2  and  N_3 
REMARK       I    between atoms: N_14  and  C_2 
REMARK    2  A    between atoms: C_16  and  N_14 
REMARK    3  A    between atoms: C_17  and  C_16 
ROOT
ATOM      1  C   UNL d   1      59.260  49.678  50.767  0.00  0.00     0.127 A 
ATOM      2  C   UNL d   1      60.291  49.678  50.314  0.00  0.00    -0.006 A 
ATOM      3  C   UNL d   1      59.912  49.673  51.966  0.00  0.00     0.046 A 
ATOM      4  C   UNL d   1      60.600  49.675  50.815  0.00  0.00    -0.006 A 
ATOM      5  C   UNL d   1      59.969  49.678  50.389  0.00  0.00    -0.001 A 
ATOM      6  C   UNL d   1      59.122  49.680  50.074  0.00  0.00    -0.001 A 
ATOM      7  C   UNL d   1      59.265  49.675  51.454  0.00  0.00     0.040 A 
ATOM      8  C   UNL d   1      60.220  49.674  51.315  0.00  0.00    -0.022 A 
ATOM      9  C   UNL d   1      60.572  49.673  51.590  0.00  0.00    -0.022 A 
ATOM     10  C   UNL d   1      61.724  49.676  50.026  0.00  0.00    -0.001 A 
ENDROOT
BRANCH   1  11
ATOM     11  N   UNL d   1      58.501  49.677  51.305  0.00  0.00    -0.213 NA
ATOM     12  C   UNL d   1      57.684  49.685  50.915  0.00  0.00     0.365 C 
ATOM     13  O   UNL d   1      56.945  49.685  51.437  0.00  0.00    -0.243 OA
ATOM     14  N   UNL d   1      57.588  49.695  49.954  0.00  0.00    -0.186 NA
BRANCH  14  15
ATOM     15  C   UNL d   1      56.749  49.703  49.585  0.00  0.00     0.149 C 
BRANCH  15  16
ATOM     16  C   UNL d   1      56.233  48.950  49.601  0.00  0.00     0.255 C 
ATOM     17  O   UNL d   1      56.214  48.346  48.879  0.00  0.00    -0.281 OA
ENDBRANCH  15  16
ENDBRANCH  14  15
ENDBRANCH   1  11
TORSDOF 3
ENDMDL
