MODEL 1
REMARK VINA RESULT:      -8.8      0.000      0.000
REMARK  4 active torsions:
REMARK  status: ('A' for Active; 'I' for Inactive)
REMARK    1  A    between atoms: C_5  and  N_1 
REMARK    2  A    between atoms: C_7  and  C_5 
REMARK    3  A    between atoms: O_14  and  C_10 
REMARK    4  A    between atoms: C_17  and  O_14 
ROOT
ATOM      1  N   UNL d   1     -48.780  12.266  23.505  0.00  0.00    -0.251 N 
ATOM      2  C   UNL d   1     -48.952  11.462  23.606  0.00  0.00     0.378 A 
ATOM      3  C   UNL d   1     -47.960  12.348  23.435  0.00  0.00     0.092 A 
ATOM      4  O   UNL d   1     -48.236  11.048  23.599  0.00  0.00    -0.258 OA
ATOM      5  C   UNL d   1     -47.625  11.595  23.493  0.00  0.00     0.121 A 
ATOM      6  O   UNL d   1     -49.699  11.131  23.698  0.00  0.00    -0.237 OA
ATOM      7  C   UNL d   1     -47.487  13.010  23.327  0.00  0.00     0.020 A 
ATOM      8  C   UNL d   1     -46.802  11.514  23.441  0.00  0.00     0.026 A 
ATOM      9  C   UNL d   1     -46.672  12.926  23.276  0.00  0.00     0.002 A 
ATOM     10  C   UNL d   1     -46.329  12.177  23.333  0.00  0.00     0.002 A 
ATOM     11  C   UNL d   1     -46.196  13.589  23.168  0.00  0.00     0.000 C 
ENDROOT
BRANCH   1  12
ATOM     12  C   UNL d   1     -49.304  12.903  23.474  0.00  0.00     0.087 C 
BRANCH  12  13
ATOM     13  C   UNL d   1     -49.746  13.047  22.791  0.00  0.00     0.041 A 
ATOM     14  C   UNL d   1     -50.142  13.750  22.700  0.00  0.00     0.102 A 
ATOM     15  C   UNL d   1     -50.580  13.890  22.023  0.00  0.00     0.025 A 
ATOM     16  C   UNL d   1     -50.620  13.320  21.432  0.00  0.00     0.002 A 
ATOM     17  C   UNL d   1     -50.217  12.605  21.525  0.00  0.00     0.000 A 
ATOM     18  C   UNL d   1     -49.778  12.470  22.209  0.00  0.00     0.004 A 
BRANCH  14  19
ATOM     19  O   UNL d   1     -50.106  14.328  23.291  0.00  0.00    -0.305 OA
BRANCH  19  20
ATOM     20  C   UNL d   1     -50.434  15.075  23.161  0.00  0.00     0.123 C 
ATOM     21  C   UNL d   1     -50.287  15.691  23.692  0.00  0.00     0.029 C 
ENDBRANCH  19  20
ENDBRANCH  14  19
ENDBRANCH  12  13
ENDBRANCH   1  12
TORSDOF 4
ENDMDL
MODEL 2
REMARK VINA RESULT:      -7.9      1.327      3.897
REMARK  4 active torsions:
REMARK  status: ('A' for Active; 'I' for Inactive)
REMARK    1  A    between atoms: C_5  and  N_1 
REMARK    2  A    between atoms: C_7  and  C_5 
REMARK    3  A    between atoms: O_14  and  C_10 
REMARK    4  A    between atoms: C_17  and  O_14 
ROOT
ATOM      1  N   UNL d   1     -48.810  12.936  22.113  0.00  0.00    -0.251 N 
ATOM      2  C   UNL d   1     -48.740  12.854  21.291  0.00  0.00     0.378 A 
ATOM      3  C   UNL d   1     -49.553  13.262  22.277  0.00  0.00     0.092 A 
ATOM      4  O   UNL d   1     -49.440  13.130  20.948  0.00  0.00    -0.258 OA
ATOM      5  C   UNL d   1     -49.941  13.382  21.557  0.00  0.00     0.121 A 
ATOM      6  O   UNL d   1     -48.091  12.552  20.885  0.00  0.00    -0.237 OA
ATOM      7  C   UNL d   1     -49.914  13.461  22.986  0.00  0.00     0.020 A 
ATOM      8  C   UNL d   1     -50.703  13.706  21.559  0.00  0.00     0.026 A 
ATOM      9  C   UNL d   1     -50.669  13.782  22.983  0.00  0.00     0.002 A 
ATOM     10  C   UNL d   1     -51.064  13.905  22.269  0.00  0.00     0.002 A 
ATOM     11  C   UNL d   1     -51.034  13.982  23.694  0.00  0.00     0.000 C 
ENDROOT
BRANCH   1  12
ATOM     12  C   UNL d   1     -48.262  12.740  22.697  0.00  0.00     0.087 C 
BRANCH  12  13
ATOM     13  C   UNL d   1     -47.565  13.177  22.779  0.00  0.00     0.041 A 
ATOM     14  C   UNL d   1     -46.884  12.817  23.038  0.00  0.00     0.102 A 
ATOM     15  C   UNL d   1     -46.195  13.250  23.118  0.00  0.00     0.025 A 
ATOM     16  C   UNL d   1     -46.189  14.052  22.937  0.00  0.00     0.002 A 
ATOM     17  C   UNL d   1     -46.881  14.418  22.673  0.00  0.00     0.000 A 
ATOM     18  C   UNL d   1     -47.572  13.975  22.594  0.00  0.00     0.004 A 
BRANCH  14  19
ATOM     19  O   UNL d   1     -46.884  12.010  23.222  0.00  0.00    -0.305 OA
BRANCH  19  20
ATOM     20  C   UNL d   1     -46.221  11.665  23.573  0.00  0.00     0.123 C 
ATOM     21  C   UNL d   1     -46.194  10.848  23.698  0.00  0.00     0.029 C 
ENDBRANCH  19  20
ENDBRANCH  14  19
ENDBRANCH  12  13
ENDBRANCH   1  12
TORSDOF 4
ENDMDL
MODEL 3
REMARK VINA RESULT:      -6.0      9.726     11.286
REMARK  4 active torsions:
REMARK  status: ('A' for Active; 'I' for Inactive)
REMARK    1  A    between atoms: C_5  and  N_1 
REMARK    2  A    between atoms: C_7  and  C_5 
REMARK    3  A    between atoms: O_14  and  C_10 
REMARK    4  A    between atoms: C_17  and  O_14 
ROOT
ATOM      1  N   UNL d   1     -40.138  14.533  18.118  0.00  0.00    -0.251 N 
ATOM      2  C   UNL d   1     -40.766  14.935  17.757  0.00  0.00     0.378 A 
ATOM      3  C   UNL d   1     -40.012  14.871  18.863  0.00  0.00     0.092 A 
ATOM      4  O   UNL d   1     -41.027  15.521  18.279  0.00  0.00    -0.258 OA
ATOM      5  C   UNL d   1     -40.560  15.480  18.962  0.00  0.00     0.121 A 
ATOM      6  O   UNL d   1     -41.078  14.781  17.010  0.00  0.00    -0.237 OA
ATOM      7  C   UNL d   1     -39.469  14.696  19.454  0.00  0.00     0.020 A 
ATOM      8  C   UNL d   1     -40.558  15.916  19.666  0.00  0.00     0.026 A 
ATOM      9  C   UNL d   1     -39.469  15.130  20.150  0.00  0.00     0.002 A 
ATOM     10  C   UNL d   1     -40.015  15.742  20.256  0.00  0.00     0.002 A 
ATOM     11  C   UNL d   1     -38.925  14.957  20.744  0.00  0.00     0.000 C 
ENDROOT
BRANCH   1  12
ATOM     12  C   UNL d   1     -39.693  13.905  17.824  0.00  0.00     0.087 C 
BRANCH  12  13
ATOM     13  C   UNL d   1     -39.123  14.035  17.239  0.00  0.00     0.041 A 
ATOM     14  C   UNL d   1     -38.577  13.460  17.065  0.00  0.00     0.102 A 
ATOM     15  C   UNL d   1     -38.013  13.590  16.486  0.00  0.00     0.025 A 
ATOM     16  C   UNL d   1     -37.997  14.304  16.079  0.00  0.00     0.002 A 
ATOM     17  C   UNL d   1     -38.552  14.889  16.257  0.00  0.00     0.000 A 
ATOM     18  C   UNL d   1     -39.118  14.751  16.841  0.00  0.00     0.004 A 
BRANCH  14  19
ATOM     19  O   UNL d   1     -38.587  12.738  17.471  0.00  0.00    -0.305 OA
BRANCH  19  20
ATOM     20  C   UNL d   1     -37.945  12.223  17.416  0.00  0.00     0.123 C 
ATOM     21  C   UNL d   1     -37.940  11.518  17.848  0.00  0.00     0.029 C 
ENDBRANCH  19  20
ENDBRANCH  14  19
ENDBRANCH  12  13
ENDBRANCH   1  12
TORSDOF 4
ENDMDL
MODEL 4
REMARK VINA RESULT:      -6.0      9.330     11.210
REMARK  4 active torsions:
REMARK  status: ('A' for Active; 'I' for Inactive)
REMARK    1  A    between atoms: C_5  and  N_1 
REMARK    2  A    between atoms: C_7  and  C_5 
REMARK    3  A    between atoms: O_14  and  C_10 
REMARK    4  A    between atoms: C_17  and  O_14 
ROOT
ATOM      1  N   UNL d   1     -39.875  14.651  18.550  0.00  0.00    -0.251 N 
ATOM      2  C   UNL d   1     -40.612  14.271  18.548  0.00  0.00     0.378 A 
ATOM      3  C   UNL d   1     -39.723  14.915  19.319  0.00  0.00     0.092 A 
ATOM      4  O   UNL d   1     -40.915  14.302  19.317  0.00  0.00    -0.258 OA
ATOM      5  C   UNL d   1     -40.366  14.699  19.792  0.00  0.00     0.121 A 
ATOM      6  O   UNL d   1     -40.980  13.925  17.899  0.00  0.00    -0.237 OA
ATOM      7  C   UNL d   1     -39.086  15.320  19.639  0.00  0.00     0.020 A 
ATOM      8  C   UNL d   1     -40.359  14.897  20.597  0.00  0.00     0.026 A 
ATOM      9  C   UNL d   1     -39.083  15.514  20.436  0.00  0.00     0.002 A 
ATOM     10  C   UNL d   1     -39.721  15.303  20.916  0.00  0.00     0.002 A 
ATOM     11  C   UNL d   1     -38.443  15.921  20.758  0.00  0.00     0.000 C 
ENDROOT
BRANCH   1  12
ATOM     12  C   UNL d   1     -39.355  14.765  17.920  0.00  0.00     0.087 C 
BRANCH  12  13
ATOM     13  C   UNL d   1     -38.927  14.129  17.611  0.00  0.00     0.041 A 
ATOM     14  C   UNL d   1     -38.495  14.219  16.930  0.00  0.00     0.102 A 
ATOM     15  C   UNL d   1     -38.071  13.589  16.625  0.00  0.00     0.025 A 
ATOM     16  C   UNL d   1     -38.082  12.861  17.008  0.00  0.00     0.002 A 
ATOM     17  C   UNL d   1     -38.522  12.770  17.701  0.00  0.00     0.000 A 
ATOM     18  C   UNL d   1     -38.946  13.409  18.002  0.00  0.00     0.004 A 
BRANCH  14  19
ATOM     19  O   UNL d   1     -38.479  14.950  16.540  0.00  0.00    -0.305 OA
BRANCH  19  20
ATOM     20  C   UNL d   1     -37.975  15.064  15.896  0.00  0.00     0.123 C 
ATOM     21  C   UNL d   1     -37.965  15.791  15.501  0.00  0.00     0.029 C 
ENDBRANCH  19  20
ENDBRANCH  14  19
ENDBRANCH  12  13
ENDBRANCH   1  12
TORSDOF 4
ENDMDL
