MODEL 1
REMARK VINA RESULT:      -0.6      0.000      0.000
REMARK  8 active torsions:
REMARK  status: ('A' for Active; 'I' for Inactive)
REMARK    1  A    between atoms: S_3  and  C_1 
REMARK    2  A    between atoms: C_7  and  C_2 
REMARK    3  A    between atoms: N_9  and  S_3 
REMARK    4  A    between atoms: C_8  and  C_6 
REMARK    5  A    between atoms: O_21  and  C_7 
REMARK    6  A    between atoms: O_22  and  C_8 
REMARK    7  A    between atoms: C_14  and  N_9 
REMARK    8  A    between atoms: C_10  and  C_14 
ROOT
ATOM      1  C   UNL d   1      31.188  17.574 -24.002  0.00  0.00     0.140 A 
ATOM      2  C   UNL d   1      31.873  17.251 -24.313  0.00  0.00     0.082 A 
ATOM      3  C   UNL d   1      32.470  17.825 -24.279  0.00  0.00     0.018 A 
ATOM      4  S   UNL d   1      31.368  18.343 -23.780  0.00  0.00    -0.069 SA
ATOM      5  C   UNL d   1      32.149  18.478 -23.954  0.00  0.00     0.093 A 
ATOM      6  C   UNL d   1      33.240  17.762 -24.521  0.00  0.00     0.001 C 
ENDROOT
BRANCH   1   7
ATOM      7  S   UNL d   1      30.517  17.120 -23.972  0.00  0.00     0.291 S 
ATOM      8  O   UNL d   1      30.837  16.688 -23.328  0.00  0.00    -0.198 OA
ATOM      9  O   UNL d   1      30.195  17.522 -24.588  0.00  0.00    -0.198 OA
BRANCH   7  10
ATOM     10  N   UNL d   1      29.839  16.651 -23.931  0.00  0.00    -0.156 NA
BRANCH  10  11
ATOM     11  C   UNL d   1      29.087  16.982 -24.030  0.00  0.00     0.119 C 
BRANCH  11  12
ATOM     12  C   UNL d   1      28.423  16.587 -23.742  0.00  0.00     0.049 A 
ATOM     13  S   UNL d   1      28.174  15.814 -23.911  0.00  0.00    -0.085 SA
ATOM     14  C   UNL d   1      27.487  15.662 -23.498  0.00  0.00     0.035 A 
ATOM     15  C   UNL d   1      27.295  16.338 -23.065  0.00  0.00     0.007 A 
ATOM     16  C   UNL d   1      27.878  16.908 -23.219  0.00  0.00     0.009 A 
ENDBRANCH  11  12
ENDBRANCH  10  11
ENDBRANCH   7  10
ENDBRANCH   1   7
BRANCH   2  17
ATOM     17  C   UNL d   1      31.974  16.482 -24.615  0.00  0.00     0.297 C 
ATOM     18  O   UNL d   1      31.390  16.145 -25.084  0.00  0.00    -0.259 OA
BRANCH  17  19
ATOM     19  O   UNL d   1      32.667  16.063 -24.438  0.00  0.00    -0.296 OA
ATOM     20  C   UNL d   1      32.933  15.478 -24.943  0.00  0.00     0.185 C 
ENDBRANCH  17  19
ENDBRANCH   2  17
BRANCH   5  21
ATOM     21  C   UNL d   1      32.573  19.202 -23.818  0.00  0.00     0.302 C 
ATOM     22  O   UNL d   1      32.643  19.728 -24.433  0.00  0.00    -0.259 OA
BRANCH  21  23
ATOM     23  O   UNL d   1      32.905  19.360 -23.074  0.00  0.00    -0.295 OA
ATOM     24  C   UNL d   1      32.985  20.135 -22.804  0.00  0.00     0.185 C 
ENDBRANCH  21  23
ENDBRANCH   5  21
TORSDOF 8
ENDMDL
MODEL 2
REMARK VINA RESULT:       1.9      2.973      4.562
REMARK  8 active torsions:
REMARK  status: ('A' for Active; 'I' for Inactive)
REMARK    1  A    between atoms: S_3  and  C_1 
REMARK    2  A    between atoms: C_7  and  C_2 
REMARK    3  A    between atoms: N_9  and  S_3 
REMARK    4  A    between atoms: C_8  and  C_6 
REMARK    5  A    between atoms: O_21  and  C_7 
REMARK    6  A    between atoms: O_22  and  C_8 
REMARK    7  A    between atoms: C_14  and  N_9 
REMARK    8  A    between atoms: C_10  and  C_14 
ROOT
ATOM      1  C   UNL d   1      32.565  20.369 -22.081  0.00  0.00     0.140 A 
ATOM      2  C   UNL d   1      32.773  21.063 -22.462  0.00  0.00     0.082 A 
ATOM      3  C   UNL d   1      32.794  21.672 -21.901  0.00  0.00     0.018 A 
ATOM      4  S   UNL d   1      32.460  20.557 -21.289  0.00  0.00    -0.069 SA
ATOM      5  C   UNL d   1      32.603  21.350 -21.197  0.00  0.00     0.093 A 
ATOM      6  C   UNL d   1      32.972  22.453 -22.016  0.00  0.00     0.001 C 
ENDROOT
BRANCH   1   7
ATOM      7  S   UNL d   1      32.505  19.685 -22.511  0.00  0.00     0.291 S 
ATOM      8  O   UNL d   1      31.743  19.918 -22.775  0.00  0.00    -0.198 OA
ATOM      9  O   UNL d   1      33.232  19.447 -22.269  0.00  0.00    -0.198 OA
BRANCH   7  10
ATOM     10  N   UNL d   1      32.431  18.993 -22.954  0.00  0.00    -0.156 NA
BRANCH  10  11
ATOM     11  C   UNL d   1      32.959  18.364 -22.850  0.00  0.00     0.119 C 
BRANCH  11  12
ATOM     12  C   UNL d   1      32.745  17.604 -23.089  0.00  0.00     0.049 A 
ATOM     13  S   UNL d   1      33.234  17.006 -23.394  0.00  0.00    -0.085 SA
ATOM     14  C   UNL d   1      32.778  16.349 -23.552  0.00  0.00     0.035 A 
ATOM     15  C   UNL d   1      31.998  16.524 -23.349  0.00  0.00     0.007 A 
ATOM     16  C   UNL d   1      31.982  17.302 -23.063  0.00  0.00     0.009 A 
ENDBRANCH  11  12
ENDBRANCH  10  11
ENDBRANCH   7  10
ENDBRANCH   1   7
BRANCH   2  17
ATOM     17  C   UNL d   1      32.938  21.160 -23.272  0.00  0.00     0.297 C 
ATOM     18  O   UNL d   1      33.025  20.502 -23.756  0.00  0.00    -0.259 OA
BRANCH  17  19
ATOM     19  O   UNL d   1      33.014  21.925 -23.582  0.00  0.00    -0.296 OA
ATOM     20  C   UNL d   1      33.241  22.032 -24.360  0.00  0.00     0.185 C 
ENDBRANCH  17  19
ENDBRANCH   2  17
BRANCH   5  21
ATOM     21  C   UNL d   1      32.560  21.785 -20.469  0.00  0.00     0.302 C 
ATOM     22  O   UNL d   1      31.881  22.202 -20.310  0.00  0.00    -0.259 OA
BRANCH  21  23
ATOM     23  O   UNL d   1      33.197  21.781 -19.938  0.00  0.00    -0.295 OA
ATOM     24  C   UNL d   1      33.090  21.994 -19.149  0.00  0.00     0.185 C 
ENDBRANCH  21  23
ENDBRANCH   5  21
TORSDOF 8
ENDMDL
