MODEL 1
REMARK VINA RESULT:      -2.7      0.000      0.000
REMARK  6 active torsions:
REMARK  status: ('A' for Active; 'I' for Inactive)
REMARK    1  A    between atoms: N_13  and  C_2 
REMARK    2  A    between atoms: C_22  and  C_5 
REMARK    3  A    between atoms: C_23  and  C_6 
REMARK    4  A    between atoms: C_7  and  S_17 
REMARK       I    between atoms: C_16  and  N_13 
REMARK    5  A    between atoms: C_25  and  C_16 
REMARK    6  A    between atoms: S_17  and  C_25 
ROOT
ATOM      1  C   UNL d   1      32.944  20.745 -21.543  0.00  0.00     0.092 A 
ATOM      2  C   UNL d   1      32.911  21.998 -22.220  0.00  0.00     0.057 A 
ATOM      3  C   UNL d   1      32.834  21.563 -21.529  0.00  0.00     0.016 A 
ATOM      4  C   UNL d   1      33.131  20.370 -22.249  0.00  0.00     0.120 A 
ATOM      5  N   UNL d   1      33.209  20.803 -22.946  0.00  0.00    -0.239 NA
ATOM      6  C   UNL d   1      33.098  21.622 -22.932  0.00  0.00     0.081 A 
ATOM      7  C   UNL d   1      32.800  22.812 -22.199  0.00  0.00     0.193 A 
ATOM      8  C   UNL d   1      32.866  20.311 -20.846  0.00  0.00     0.103 C 
ATOM      9  N   UNL d   1      32.791  19.867 -20.155  0.00  0.00    -0.191 NA
ATOM     10  C   UNL d   1      33.065  22.877 -23.613  0.00  0.00     0.042 A 
ATOM     11  C   UNL d   1      32.877  23.262 -22.901  0.00  0.00     0.019 A 
ATOM     12  C   UNL d   1      33.177  22.054 -23.629  0.00  0.00    -0.003 A 
ATOM     13  O   UNL d   1      32.612  23.194 -21.489  0.00  0.00    -0.287 OA
ATOM     14  C   UNL d   1      33.239  22.717 -24.402  0.00  0.00     0.009 C 
ATOM     15  C   UNL d   1      32.953  23.701 -23.591  0.00  0.00     0.009 C 
ENDROOT
BRANCH   4  16
ATOM     16  S   UNL d   1      33.241  19.552 -22.263  0.00  0.00    -0.062 SA
BRANCH  16  17
ATOM     17  C   UNL d   1      33.220  19.141 -22.982  0.00  0.00     0.100 C 
BRANCH  17  18
ATOM     18  C   UNL d   1      32.786  18.442 -23.040  0.00  0.00     0.302 C 
ATOM     19  N   UNL d   1      32.414  18.243 -23.742  0.00  0.00    -0.018 NA
ATOM     20  O   UNL d   1      32.726  17.941 -22.393  0.00  0.00    -0.264 OA
BRANCH  19  21
ATOM     21  C   UNL d   1      31.974  17.532 -23.800  0.00  0.00     0.760 A 
ATOM     22  N   UNL d   1      31.154  17.467 -23.779  0.00  0.00    -0.051 NA
ATOM     23  C   UNL d   1      30.966  16.674 -23.855  0.00  0.00     0.147 A 
ATOM     24  S   UNL d   1      31.663  16.254 -23.922  0.00  0.00     0.052 SA
ATOM     25  N   UNL d   1      32.287  16.787 -23.888  0.00  0.00    -0.019 NA
BRANCH  23  26
ATOM     26  C   UNL d   1      30.219  16.322 -23.866  0.00  0.00     0.026 A 
ATOM     27  C   UNL d   1      29.755  16.362 -24.547  0.00  0.00     0.002 A 
ATOM     28  C   UNL d   1      29.006  16.008 -24.556  0.00  0.00     0.000 A 
ATOM     29  C   UNL d   1      28.721  15.617 -23.896  0.00  0.00     0.000 A 
ATOM     30  C   UNL d   1      29.184  15.577 -23.217  0.00  0.00     0.000 A 
ATOM     31  C   UNL d   1      29.939  15.931 -23.200  0.00  0.00     0.002 A 
ENDBRANCH  23  26
ENDBRANCH  19  21
ENDBRANCH  17  18
ENDBRANCH  16  17
ENDBRANCH   4  16
BRANCH   3  32
ATOM     32  C   UNL d   1      32.648  21.937 -20.823  0.00  0.00     0.001 A 
ATOM     33  C   UNL d   1      33.241  22.075 -20.263  0.00  0.00     0.000 A 
ATOM     34  C   UNL d   1      33.055  22.449 -19.557  0.00  0.00     0.000 A 
ATOM     35  C   UNL d   1      32.283  22.689 -19.399  0.00  0.00     0.000 A 
ATOM     36  C   UNL d   1      31.691  22.552 -19.958  0.00  0.00     0.000 A 
ATOM     37  C   UNL d   1      31.874  22.175 -20.672  0.00  0.00     0.000 A 
ENDBRANCH   3  32
TORSDOF 6
ENDMDL
