MODEL 1
REMARK VINA RESULT:      -7.6      0.000      0.000
REMARK  5 active torsions:
REMARK  status: ('A' for Active; 'I' for Inactive)
REMARK    1  A    between atoms: N_2  and  S_1 
REMARK    2  A    between atoms: C_5  and  S_1 
REMARK    3  A    between atoms: S_8  and  C_3 
REMARK    4  A    between atoms: C_13  and  S_8 
REMARK    5  A    between atoms: C_15  and  C_13 
ROOT
ATOM      1  N   UNL d   1     -49.272  14.090  22.481  0.00  0.00    -0.208 N 
ATOM      2  C   UNL d   1     -48.526  14.279  22.795  0.00  0.00     0.189 A 
ATOM      3  N   UNL d   1     -48.636  14.812  23.419  0.00  0.00    -0.219 NA
ATOM      4  C   UNL d   1     -49.845  14.510  22.914  0.00  0.00     0.114 A 
ATOM      5  C   UNL d   1     -49.450  14.952  23.489  0.00  0.00     0.121 A 
ENDROOT
BRANCH   1   6
ATOM      6  S   UNL d   1     -49.415  13.574  21.848  0.00  0.00     0.273 S 
ATOM      7  O   UNL d   1     -49.429  13.239  21.091  0.00  0.00    -0.200 OA
ATOM      8  O   UNL d   1     -49.009  14.103  21.372  0.00  0.00    -0.200 OA
BRANCH   6   9
ATOM      9  C   UNL d   1     -49.828  13.029  22.312  0.00  0.00     0.104 A 
ATOM     10  C   UNL d   1     -49.470  12.321  22.515  0.00  0.00     0.015 A 
ATOM     11  C   UNL d   1     -49.883  11.779  22.977  0.00  0.00     0.030 A 
ATOM     12  C   UNL d   1     -50.650  11.952  23.231  0.00  0.00     0.140 A 
ATOM     13  C   UNL d   1     -51.007  12.663  23.026  0.00  0.00     0.030 A 
ATOM     14  F   UNL d   1     -51.064  11.407  23.695  0.00  0.00    -0.204 F 
ATOM     15  C   UNL d   1     -50.591  13.207  22.561  0.00  0.00     0.015 A 
ENDBRANCH   6   9
ENDBRANCH   1   6
BRANCH   2  16
ATOM     16  S   UNL d   1     -47.795  13.982  22.528  0.00  0.00    -0.049 SA
BRANCH  16  17
ATOM     17  C   UNL d   1     -47.130  14.030  23.016  0.00  0.00     0.038 C 
BRANCH  17  18
ATOM     18  C   UNL d   1     -46.420  13.666  22.782  0.00  0.00     0.007 A 
ATOM     19  C   UNL d   1     -46.205  12.926  23.092  0.00  0.00     0.001 A 
ATOM     20  C   UNL d   1     -45.506  12.562  22.864  0.00  0.00     0.000 A 
ATOM     21  C   UNL d   1     -45.012  12.937  22.320  0.00  0.00     0.000 A 
ATOM     22  C   UNL d   1     -45.225  13.676  22.008  0.00  0.00     0.000 A 
ATOM     23  C   UNL d   1     -44.309  12.579  22.086  0.00  0.00     0.000 C 
ATOM     24  C   UNL d   1     -45.927  14.037  22.240  0.00  0.00     0.001 A 
ENDBRANCH  17  18
ENDBRANCH  16  17
ENDBRANCH   2  16
TORSDOF 5
ENDMDL
MODEL 2
REMARK VINA RESULT:      -7.4      1.228      1.903
REMARK  5 active torsions:
REMARK  status: ('A' for Active; 'I' for Inactive)
REMARK    1  A    between atoms: N_2  and  S_1 
REMARK    2  A    between atoms: C_5  and  S_1 
REMARK    3  A    between atoms: S_8  and  C_3 
REMARK    4  A    between atoms: C_13  and  S_8 
REMARK    5  A    between atoms: C_15  and  C_13 
ROOT
ATOM      1  N   UNL d   1     -49.288  12.778  22.588  0.00  0.00    -0.208 N 
ATOM      2  C   UNL d   1     -48.563  12.593  22.952  0.00  0.00     0.189 A 
ATOM      3  N   UNL d   1     -48.724  12.159  23.639  0.00  0.00    -0.219 NA
ATOM      4  C   UNL d   1     -49.897  12.456  23.054  0.00  0.00     0.114 A 
ATOM      5  C   UNL d   1     -49.546  12.077  23.698  0.00  0.00     0.121 A 
ENDROOT
BRANCH   1   6
ATOM      6  S   UNL d   1     -49.381  13.208  21.885  0.00  0.00     0.273 S 
ATOM      7  O   UNL d   1     -49.343  13.440  21.092  0.00  0.00    -0.200 OA
ATOM      8  O   UNL d   1     -48.964  12.612  21.508  0.00  0.00    -0.200 OA
BRANCH   6   9
ATOM      9  C   UNL d   1     -49.803  13.819  22.249  0.00  0.00     0.104 A 
ATOM     10  C   UNL d   1     -49.406  14.496  22.485  0.00  0.00     0.015 A 
ATOM     11  C   UNL d   1     -49.828  15.103  22.846  0.00  0.00     0.030 A 
ATOM     12  C   UNL d   1     -50.642  15.027  22.967  0.00  0.00     0.140 A 
ATOM     13  C   UNL d   1     -51.037  14.346  22.729  0.00  0.00     0.030 A 
ATOM     14  F   UNL d   1     -51.064  15.637  23.331  0.00  0.00    -0.204 F 
ATOM     15  C   UNL d   1     -50.611  13.736  22.366  0.00  0.00     0.015 A 
ENDBRANCH   6   9
ENDBRANCH   1   6
BRANCH   2  16
ATOM     16  S   UNL d   1     -47.808  12.807  22.674  0.00  0.00    -0.049 SA
BRANCH  16  17
ATOM     17  C   UNL d   1     -47.148  12.706  23.160  0.00  0.00     0.038 C 
BRANCH  17  18
ATOM     18  C   UNL d   1     -46.385  12.762  22.834  0.00  0.00     0.007 A 
ATOM     19  C   UNL d   1     -46.120  13.475  22.502  0.00  0.00     0.001 A 
ATOM     20  C   UNL d   1     -45.368  13.535  22.179  0.00  0.00     0.000 A 
ATOM     21  C   UNL d   1     -44.871  12.878  22.186  0.00  0.00     0.000 A 
ATOM     22  C   UNL d   1     -45.132  12.164  22.517  0.00  0.00     0.000 A 
ATOM     23  C   UNL d   1     -44.115  12.930  21.864  0.00  0.00     0.000 C 
ATOM     24  C   UNL d   1     -45.887  12.108  22.839  0.00  0.00     0.001 A 
ENDBRANCH  17  18
ENDBRANCH  16  17
ENDBRANCH   2  16
TORSDOF 5
ENDMDL
MODEL 3
REMARK VINA RESULT:      -6.5      9.509     10.277
REMARK  5 active torsions:
REMARK  status: ('A' for Active; 'I' for Inactive)
REMARK    1  A    between atoms: N_2  and  S_1 
REMARK    2  A    between atoms: C_5  and  S_1 
REMARK    3  A    between atoms: S_8  and  C_3 
REMARK    4  A    between atoms: C_13  and  S_8 
REMARK    5  A    between atoms: C_15  and  C_13 
ROOT
ATOM      1  N   UNL d   1     -38.757  14.659  18.035  0.00  0.00    -0.208 N 
ATOM      2  C   UNL d   1     -38.435  14.860  18.775  0.00  0.00     0.189 A 
ATOM      3  N   UNL d   1     -37.980  15.546  18.680  0.00  0.00    -0.219 NA
ATOM      4  C   UNL d   1     -38.499  15.225  17.482  0.00  0.00     0.114 A 
ATOM      5  C   UNL d   1     -38.023  15.767  17.883  0.00  0.00     0.121 A 
ENDROOT
BRANCH   1   6
ATOM      6  S   UNL d   1     -39.248  14.009  17.881  0.00  0.00     0.273 S 
ATOM      7  O   UNL d   1     -39.534  13.235  17.811  0.00  0.00    -0.200 OA
ATOM      8  O   UNL d   1     -38.635  13.530  18.139  0.00  0.00    -0.200 OA
BRANCH   6   9
ATOM      9  C   UNL d   1     -39.877  14.475  17.617  0.00  0.00     0.104 A 
ATOM     10  C   UNL d   1     -39.891  14.731  16.839  0.00  0.00     0.015 A 
ATOM     11  C   UNL d   1     -40.518  15.195  16.578  0.00  0.00     0.030 A 
ATOM     12  C   UNL d   1     -41.126  15.399  17.100  0.00  0.00     0.140 A 
ATOM     13  C   UNL d   1     -41.110  15.141  17.880  0.00  0.00     0.030 A 
ATOM     14  F   UNL d   1     -41.756  15.865  16.837  0.00  0.00    -0.204 F 
ATOM     15  C   UNL d   1     -40.479  14.675  18.141  0.00  0.00     0.015 A 
ENDBRANCH   6   9
ENDBRANCH   1   6
BRANCH   2  16
ATOM     16  S   UNL d   1     -38.549  14.443  19.486  0.00  0.00    -0.049 SA
BRANCH  16  17
ATOM     17  C   UNL d   1     -38.216  14.728  20.187  0.00  0.00     0.038 C 
BRANCH  17  18
ATOM     18  C   UNL d   1     -38.382  14.345  20.906  0.00  0.00     0.007 A 
ATOM     19  C   UNL d   1     -38.953  14.654  21.425  0.00  0.00     0.001 A 
ATOM     20  C   UNL d   1     -39.120  14.280  22.136  0.00  0.00     0.000 A 
ATOM     21  C   UNL d   1     -38.715  13.591  22.337  0.00  0.00     0.000 A 
ATOM     22  C   UNL d   1     -38.144  13.281  21.822  0.00  0.00     0.000 A 
ATOM     23  C   UNL d   1     -38.876  13.210  23.049  0.00  0.00     0.000 C 
ATOM     24  C   UNL d   1     -37.980  13.658  21.109  0.00  0.00     0.001 A 
ENDBRANCH  17  18
ENDBRANCH  16  17
ENDBRANCH   2  16
TORSDOF 5
ENDMDL
MODEL 4
REMARK VINA RESULT:      -6.5      9.007     10.045
REMARK  5 active torsions:
REMARK  status: ('A' for Active; 'I' for Inactive)
REMARK    1  A    between atoms: N_2  and  S_1 
REMARK    2  A    between atoms: C_5  and  S_1 
REMARK    3  A    between atoms: S_8  and  C_3 
REMARK    4  A    between atoms: C_13  and  S_8 
REMARK    5  A    between atoms: C_15  and  C_13 
ROOT
ATOM      1  N   UNL d   1     -40.470  14.805  18.168  0.00  0.00    -0.208 N 
ATOM      2  C   UNL d   1     -40.550  15.110  18.938  0.00  0.00     0.189 A 
ATOM      3  N   UNL d   1     -41.010  15.797  18.898  0.00  0.00    -0.219 NA
ATOM      4  C   UNL d   1     -40.884  15.309  17.651  0.00  0.00     0.114 A 
ATOM      5  C   UNL d   1     -41.213  15.916  18.103  0.00  0.00     0.121 A 
ENDROOT
BRANCH   1   6
ATOM      6  S   UNL d   1     -40.052  14.121  17.958  0.00  0.00     0.273 S 
ATOM      7  O   UNL d   1     -39.806  13.333  17.902  0.00  0.00    -0.200 OA
ATOM      8  O   UNL d   1     -40.569  13.702  18.435  0.00  0.00    -0.200 OA
BRANCH   6   9
ATOM      9  C   UNL d   1     -39.520  14.527  17.473  0.00  0.00     0.104 A 
ATOM     10  C   UNL d   1     -38.797  14.763  17.777  0.00  0.00     0.015 A 
ATOM     11  C   UNL d   1     -38.269  15.167  17.292  0.00  0.00     0.030 A 
ATOM     12  C   UNL d   1     -38.471  15.331  16.507  0.00  0.00     0.140 A 
ATOM     13  C   UNL d   1     -39.197  15.093  16.205  0.00  0.00     0.030 A 
ATOM     14  F   UNL d   1     -37.940  15.737  16.021  0.00  0.00    -0.204 F 
ATOM     15  C   UNL d   1     -39.727  14.687  16.694  0.00  0.00     0.015 A 
ENDBRANCH   6   9
ENDBRANCH   1   6
BRANCH   2  16
ATOM     16  S   UNL d   1     -40.223  14.780  19.629  0.00  0.00    -0.049 SA
BRANCH  16  17
ATOM     17  C   UNL d   1     -40.401  15.110  20.365  0.00  0.00     0.038 C 
BRANCH  17  18
ATOM     18  C   UNL d   1     -39.927  14.927  21.024  0.00  0.00     0.007 A 
ATOM     19  C   UNL d   1     -39.430  15.503  21.358  0.00  0.00     0.001 A 
ATOM     20  C   UNL d   1     -38.961  15.328  22.007  0.00  0.00     0.000 A 
ATOM     21  C   UNL d   1     -38.984  14.571  22.331  0.00  0.00     0.000 A 
ATOM     22  C   UNL d   1     -39.478  13.993  22.000  0.00  0.00     0.000 A 
ATOM     23  C   UNL d   1     -38.516  14.387  22.983  0.00  0.00     0.000 C 
ATOM     24  C   UNL d   1     -39.947  14.173  21.349  0.00  0.00     0.001 A 
ENDBRANCH  17  18
ENDBRANCH  16  17
ENDBRANCH   2  16
TORSDOF 5
ENDMDL
MODEL 5
REMARK VINA RESULT:      -6.4      1.389      1.623
REMARK  5 active torsions:
REMARK  status: ('A' for Active; 'I' for Inactive)
REMARK    1  A    between atoms: N_2  and  S_1 
REMARK    2  A    between atoms: C_5  and  S_1 
REMARK    3  A    between atoms: S_8  and  C_3 
REMARK    4  A    between atoms: C_13  and  S_8 
REMARK    5  A    between atoms: C_15  and  C_13 
ROOT
ATOM      1  N   UNL d   1     -48.740  13.042  23.215  0.00  0.00    -0.208 N 
ATOM      2  C   UNL d   1     -47.993  13.404  23.160  0.00  0.00     0.189 A 
ATOM      3  N   UNL d   1     -48.086  14.212  23.320  0.00  0.00    -0.219 NA
ATOM      4  C   UNL d   1     -49.295  13.631  23.410  0.00  0.00     0.114 A 
ATOM      5  C   UNL d   1     -48.889  14.347  23.474  0.00  0.00     0.121 A 
ENDROOT
BRANCH   1   6
ATOM      6  S   UNL d   1     -48.898  12.237  23.096  0.00  0.00     0.273 S 
ATOM      7  O   UNL d   1     -48.886  11.412  23.165  0.00  0.00    -0.200 OA
ATOM      8  O   UNL d   1     -48.362  12.080  23.696  0.00  0.00    -0.200 OA
BRANCH   6   9
ATOM      9  C   UNL d   1     -49.441  12.376  22.489  0.00  0.00     0.104 A 
ATOM     10  C   UNL d   1     -49.180  12.393  21.712  0.00  0.00     0.015 A 
ATOM     11  C   UNL d   1     -49.722  12.531  21.109  0.00  0.00     0.030 A 
ATOM     12  C   UNL d   1     -50.520  12.651  21.289  0.00  0.00     0.140 A 
ATOM     13  C   UNL d   1     -50.779  12.633  22.069  0.00  0.00     0.030 A 
ATOM     14  F   UNL d   1     -51.064  12.790  20.682  0.00  0.00    -0.204 F 
ATOM     15  C   UNL d   1     -50.232  12.494  22.675  0.00  0.00     0.015 A 
ENDBRANCH   6   9
ENDBRANCH   1   6
BRANCH   2  16
ATOM     16  S   UNL d   1     -47.277  13.021  22.976  0.00  0.00    -0.049 SA
BRANCH  16  17
ATOM     17  C   UNL d   1     -46.559  13.383  23.162  0.00  0.00     0.038 C 
BRANCH  17  18
ATOM     18  C   UNL d   1     -45.866  13.152  22.764  0.00  0.00     0.007 A 
ATOM     19  C   UNL d   1     -45.530  13.643  22.184  0.00  0.00     0.001 A 
ATOM     20  C   UNL d   1     -44.847  13.419  21.788  0.00  0.00     0.000 A 
ATOM     21  C   UNL d   1     -44.491  12.699  21.971  0.00  0.00     0.000 A 
ATOM     22  C   UNL d   1     -44.823  12.207  22.549  0.00  0.00     0.000 A 
ATOM     23  C   UNL d   1     -43.805  12.468  21.578  0.00  0.00     0.000 C 
ATOM     24  C   UNL d   1     -45.508  12.435  22.944  0.00  0.00     0.001 A 
ENDBRANCH  17  18
ENDBRANCH  16  17
ENDBRANCH   2  16
TORSDOF 5
ENDMDL
MODEL 6
REMARK VINA RESULT:      -6.0      2.346      4.633
REMARK  5 active torsions:
REMARK  status: ('A' for Active; 'I' for Inactive)
REMARK    1  A    between atoms: N_2  and  S_1 
REMARK    2  A    between atoms: C_5  and  S_1 
REMARK    3  A    between atoms: S_8  and  C_3 
REMARK    4  A    between atoms: C_13  and  S_8 
REMARK    5  A    between atoms: C_15  and  C_13 
ROOT
ATOM      1  N   UNL d   1     -46.562  12.432  23.310  0.00  0.00    -0.208 N 
ATOM      2  C   UNL d   1     -47.321  12.156  23.110  0.00  0.00     0.189 A 
ATOM      3  N   UNL d   1     -47.359  11.350  23.296  0.00  0.00    -0.219 NA
ATOM      4  C   UNL d   1     -46.132  11.792  23.621  0.00  0.00     0.114 A 
ATOM      5  C   UNL d   1     -46.625  11.130  23.611  0.00  0.00     0.121 A 
ENDROOT
BRANCH   1   6
ATOM      6  S   UNL d   1     -46.289  13.209  23.215  0.00  0.00     0.273 S 
ATOM      7  O   UNL d   1     -46.213  14.031  23.271  0.00  0.00    -0.200 OA
ATOM      8  O   UNL d   1     -46.906  13.448  23.698  0.00  0.00    -0.200 OA
BRANCH   6   9
ATOM      9  C   UNL d   1     -45.660  12.987  22.726  0.00  0.00     0.104 A 
ATOM     10  C   UNL d   1     -45.032  12.567  23.043  0.00  0.00     0.015 A 
ATOM     11  C   UNL d   1     -44.407  12.347  22.555  0.00  0.00     0.030 A 
ATOM     12  C   UNL d   1     -44.417  12.550  21.754  0.00  0.00     0.140 A 
ATOM     13  C   UNL d   1     -45.048  12.972  21.438  0.00  0.00     0.030 A 
ATOM     14  F   UNL d   1     -43.789  12.329  21.264  0.00  0.00    -0.204 F 
ATOM     15  C   UNL d   1     -45.676  13.192  21.931  0.00  0.00     0.015 A 
ENDBRANCH   6   9
ENDBRANCH   1   6
BRANCH   2  16
ATOM     16  S   UNL d   1     -47.934  12.612  22.779  0.00  0.00    -0.049 SA
BRANCH  16  17
ATOM     17  C   UNL d   1     -48.660  12.258  22.605  0.00  0.00     0.038 C 
BRANCH  17  18
ATOM     18  C   UNL d   1     -49.264  12.709  22.254  0.00  0.00     0.007 A 
ATOM     19  C   UNL d   1     -49.928  12.939  22.697  0.00  0.00     0.001 A 
ATOM     20  C   UNL d   1     -50.527  13.384  22.356  0.00  0.00     0.000 A 
ATOM     21  C   UNL d   1     -50.468  13.604  21.564  0.00  0.00     0.000 A 
ATOM     22  C   UNL d   1     -49.806  13.376  21.119  0.00  0.00     0.000 A 
ATOM     23  C   UNL d   1     -51.064  14.051  21.214  0.00  0.00     0.000 C 
ATOM     24  C   UNL d   1     -49.208  12.930  21.465  0.00  0.00     0.001 A 
ENDBRANCH  17  18
ENDBRANCH  16  17
ENDBRANCH   2  16
TORSDOF 5
ENDMDL
MODEL 7
REMARK VINA RESULT:      -5.5      9.185     10.246
REMARK  5 active torsions:
REMARK  status: ('A' for Active; 'I' for Inactive)
REMARK    1  A    between atoms: N_2  and  S_1 
REMARK    2  A    between atoms: C_5  and  S_1 
REMARK    3  A    between atoms: S_8  and  C_3 
REMARK    4  A    between atoms: C_13  and  S_8 
REMARK    5  A    between atoms: C_15  and  C_13 
ROOT
ATOM      1  N   UNL d   1     -38.382  14.155  19.925  0.00  0.00    -0.208 N 
ATOM      2  C   UNL d   1     -38.654  14.005  19.154  0.00  0.00     0.189 A 
ATOM      3  N   UNL d   1     -38.382  13.257  18.925  0.00  0.00    -0.219 NA
ATOM      4  C   UNL d   1     -37.940  13.495  20.172  0.00  0.00     0.114 A 
ATOM      5  C   UNL d   1     -37.942  12.946  19.555  0.00  0.00     0.121 A 
ENDROOT
BRANCH   1   6
ATOM      6  S   UNL d   1     -38.528  14.841  20.365  0.00  0.00     0.273 S 
ATOM      7  O   UNL d   1     -38.576  15.635  20.597  0.00  0.00    -0.200 OA
ATOM      8  O   UNL d   1     -38.225  15.268  19.734  0.00  0.00    -0.200 OA
BRANCH   6   9
ATOM      9  C   UNL d   1     -38.837  14.429  21.012  0.00  0.00     0.104 A 
ATOM     10  C   UNL d   1     -38.326  14.052  21.530  0.00  0.00     0.015 A 
ATOM     11  C   UNL d   1     -38.635  13.643  22.173  0.00  0.00     0.030 A 
ATOM     12  C   UNL d   1     -39.453  13.614  22.290  0.00  0.00     0.140 A 
ATOM     13  C   UNL d   1     -39.963  13.993  21.769  0.00  0.00     0.030 A 
ATOM     14  F   UNL d   1     -39.763  13.202  22.937  0.00  0.00    -0.204 F 
ATOM     15  C   UNL d   1     -39.650  14.405  21.123  0.00  0.00     0.015 A 
ENDBRANCH   6   9
ENDBRANCH   1   6
BRANCH   2  16
ATOM     16  S   UNL d   1     -39.119  14.518  18.692  0.00  0.00    -0.049 SA
BRANCH  16  17
ATOM     17  C   UNL d   1     -39.306  14.314  17.913  0.00  0.00     0.038 C 
BRANCH  17  18
ATOM     18  C   UNL d   1     -39.914  14.719  17.516  0.00  0.00     0.007 A 
ATOM     19  C   UNL d   1     -40.708  14.601  17.731  0.00  0.00     0.001 A 
ATOM     20  C   UNL d   1     -41.312  14.998  17.342  0.00  0.00     0.000 A 
ATOM     21  C   UNL d   1     -41.126  15.520  16.731  0.00  0.00     0.000 A 
ATOM     22  C   UNL d   1     -40.335  15.640  16.515  0.00  0.00     0.000 A 
ATOM     23  C   UNL d   1     -41.726  15.922  16.336  0.00  0.00     0.000 C 
ATOM     24  C   UNL d   1     -39.732  15.240  16.907  0.00  0.00     0.001 A 
ENDBRANCH  17  18
ENDBRANCH  16  17
ENDBRANCH   2  16
TORSDOF 5
ENDMDL
MODEL 8
REMARK VINA RESULT:      -4.9      7.809      9.890
REMARK  5 active torsions:
REMARK  status: ('A' for Active; 'I' for Inactive)
REMARK    1  A    between atoms: N_2  and  S_1 
REMARK    2  A    between atoms: C_5  and  S_1 
REMARK    3  A    between atoms: S_8  and  C_3 
REMARK    4  A    between atoms: C_13  and  S_8 
REMARK    5  A    between atoms: C_15  and  C_13 
ROOT
ATOM      1  N   UNL d   1     -39.307  14.834  20.190  0.00  0.00    -0.208 N 
ATOM      2  C   UNL d   1     -38.736  14.458  19.717  0.00  0.00     0.189 A 
ATOM      3  N   UNL d   1     -38.209  14.060  20.216  0.00  0.00    -0.219 NA
ATOM      4  C   UNL d   1     -39.130  14.666  20.985  0.00  0.00     0.114 A 
ATOM      5  C   UNL d   1     -38.455  14.190  20.997  0.00  0.00     0.121 A 
ENDROOT
BRANCH   1   6
ATOM      6  S   UNL d   1     -39.939  15.294  19.914  0.00  0.00     0.273 S 
ATOM      7  O   UNL d   1     -40.378  15.890  19.543  0.00  0.00    -0.200 OA
ATOM      8  O   UNL d   1     -39.382  15.791  19.575  0.00  0.00    -0.200 OA
BRANCH   6   9
ATOM      9  C   UNL d   1     -40.515  14.805  20.248  0.00  0.00     0.104 A 
ATOM     10  C   UNL d   1     -40.724  14.909  21.034  0.00  0.00     0.015 A 
ATOM     11  C   UNL d   1     -41.298  14.421  21.365  0.00  0.00     0.030 A 
ATOM     12  C   UNL d   1     -41.657  13.834  20.906  0.00  0.00     0.140 A 
ATOM     13  C   UNL d   1     -41.445  13.732  20.119  0.00  0.00     0.030 A 
ATOM     14  F   UNL d   1     -42.233  13.345  21.240  0.00  0.00    -0.204 F 
ATOM     15  C   UNL d   1     -40.867  14.224  19.787  0.00  0.00     0.015 A 
ENDBRANCH   6   9
ENDBRANCH   1   6
BRANCH   2  16
ATOM     16  S   UNL d   1     -38.701  14.479  18.885  0.00  0.00    -0.049 SA
BRANCH  16  17
ATOM     17  C   UNL d   1     -38.073  14.114  18.492  0.00  0.00     0.038 C 
BRANCH  17  18
ATOM     18  C   UNL d   1     -38.098  14.031  17.665  0.00  0.00     0.007 A 
ATOM     19  C   UNL d   1     -37.942  14.681  17.171  0.00  0.00     0.001 A 
ATOM     20  C   UNL d   1     -37.965  14.604  16.355  0.00  0.00     0.000 A 
ATOM     21  C   UNL d   1     -38.145  13.872  16.022  0.00  0.00     0.000 A 
ATOM     22  C   UNL d   1     -38.301  13.221  16.511  0.00  0.00     0.000 A 
ATOM     23  C   UNL d   1     -38.171  13.787  15.203  0.00  0.00     0.000 C 
ATOM     24  C   UNL d   1     -38.277  13.303  17.330  0.00  0.00     0.001 A 
ENDBRANCH  17  18
ENDBRANCH  16  17
ENDBRANCH   2  16
TORSDOF 5
ENDMDL
