MODEL 1
REMARK VINA RESULT:       0.0      0.000      0.000
REMARK  9 active torsions:
REMARK  status: ('A' for Active; 'I' for Inactive)
REMARK    1  A    between atoms: C_12  and  C_3 
REMARK    2  A    between atoms: S_14  and  C_7 
REMARK       I    between atoms: C_9  and  N_18 
REMARK    3  A    between atoms: C_13  and  C_9 
REMARK    4  A    between atoms: C_11  and  C_21 
REMARK       I    between atoms: N_15  and  C_11 
REMARK    5  A    between atoms: C_22  and  C_12 
REMARK    6  A    between atoms: C_21  and  S_14 
REMARK    7  A    between atoms: C_23  and  N_15 
REMARK    8  A    between atoms: N_18  and  C_22 
REMARK    9  A    between atoms: C_25  and  C_23 
ROOT
ATOM      1  N   UNL d   1      32.826  21.380 -23.778  0.00  0.00    -0.191 N 
ATOM      2  C   UNL d   1      32.486  21.879 -24.349  0.00  0.00     0.187 A 
ATOM      3  C   UNL d   1      32.851  20.613 -24.088  0.00  0.00     0.188 A 
ATOM      4  N   UNL d   1      33.069  21.690 -23.051  0.00  0.00    -0.156 NA
ATOM      5  N   UNL d   1      32.303  21.413 -25.008  0.00  0.00    -0.127 NA
ATOM      6  N   UNL d   1      32.526  20.635 -24.851  0.00  0.00    -0.127 NA
ATOM      7  C   UNL d   1      32.971  22.499 -22.897  0.00  0.00     0.131 A 
ATOM      8  C   UNL d   1      32.394  22.677 -24.187  0.00  0.00     0.043 A 
ATOM      9  C   UNL d   1      32.634  22.992 -23.463  0.00  0.00     0.031 A 
ENDROOT
BRANCH   7  10
ATOM     10  S   UNL d   1      33.217  22.807 -22.163  0.00  0.00    -0.061 SA
BRANCH  10  11
ATOM     11  C   UNL d   1      32.864  22.531 -21.461  0.00  0.00     0.099 C 
BRANCH  11  12
ATOM     12  C   UNL d   1      32.709  23.065 -20.846  0.00  0.00     0.286 C 
ATOM     13  N   UNL d   1      33.109  23.005 -20.145  0.00  0.00    -0.206 NA
ATOM     14  O   UNL d   1      32.145  23.661 -20.942  0.00  0.00    -0.265 OA
BRANCH  13  15
ATOM     15  C   UNL d   1      32.956  23.538 -19.527  0.00  0.00     0.102 C 
BRANCH  15  16
ATOM     16  C   UNL d   1      32.914  23.264 -18.765  0.00  0.00     0.019 A 
ATOM     17  C   UNL d   1      32.550  23.701 -18.168  0.00  0.00     0.004 A 
ATOM     18  C   UNL d   1      32.510  23.423 -17.398  0.00  0.00     0.030 A 
ATOM     19  C   UNL d   1      32.839  22.689 -17.215  0.00  0.00     0.140 A 
ATOM     20  C   UNL d   1      33.202  22.255 -17.811  0.00  0.00     0.030 A 
ATOM     21  F   UNL d   1      32.805  22.399 -16.445  0.00  0.00    -0.204 F 
ATOM     22  C   UNL d   1      33.240  22.531 -18.569  0.00  0.00     0.004 A 
ENDBRANCH  15  16
ENDBRANCH  13  15
ENDBRANCH  11  12
ENDBRANCH  10  11
ENDBRANCH   7  10
BRANCH   3  23
ATOM     23  C   UNL d   1      33.148  19.946 -23.699  0.00  0.00     0.061 C 
BRANCH  23  24
ATOM     24  C   UNL d   1      33.135  19.204 -24.069  0.00  0.00     0.105 C 
BRANCH  24  25
ATOM     25  N   UNL d   1      32.443  18.755 -24.057  0.00  0.00    -0.206 NA
ATOM     26  C   UNL d   1      32.489  17.925 -24.103  0.00  0.00     0.279 C 
ATOM     27  O   UNL d   1      33.234  17.559 -24.161  0.00  0.00    -0.265 OA
BRANCH  26  28
ATOM     28  C   UNL d   1      31.801  17.475 -24.091  0.00  0.00     0.058 A 
ATOM     29  C   UNL d   1      31.392  17.336 -24.795  0.00  0.00     0.005 A 
ATOM     30  C   UNL d   1      30.702  16.886 -24.789  0.00  0.00     0.000 A 
ATOM     31  C   UNL d   1      30.422  16.575 -24.075  0.00  0.00     0.000 A 
ATOM     32  C   UNL d   1      30.831  16.714 -23.371  0.00  0.00     0.000 A 
ATOM     33  C   UNL d   1      29.735  16.127 -24.066  0.00  0.00     0.000 C 
ATOM     34  C   UNL d   1      31.524  17.168 -23.383  0.00  0.00     0.005 A 
ENDBRANCH  26  28
ENDBRANCH  24  25
ENDBRANCH  23  24
ENDBRANCH   3  23
TORSDOF 9
ENDMDL
MODEL 2
REMARK VINA RESULT:       1.3      2.372      7.190
REMARK  9 active torsions:
REMARK  status: ('A' for Active; 'I' for Inactive)
REMARK    1  A    between atoms: C_12  and  C_3 
REMARK    2  A    between atoms: S_14  and  C_7 
REMARK       I    between atoms: C_9  and  N_18 
REMARK    3  A    between atoms: C_13  and  C_9 
REMARK    4  A    between atoms: C_11  and  C_21 
REMARK       I    between atoms: N_15  and  C_11 
REMARK    5  A    between atoms: C_22  and  C_12 
REMARK    6  A    between atoms: C_21  and  S_14 
REMARK    7  A    between atoms: C_23  and  N_15 
REMARK    8  A    between atoms: N_18  and  C_22 
REMARK    9  A    between atoms: C_25  and  C_23 
ROOT
ATOM      1  N   UNL d   1      32.562  22.071 -21.224  0.00  0.00    -0.191 N 
ATOM      2  C   UNL d   1      31.996  22.276 -21.797  0.00  0.00     0.187 A 
ATOM      3  C   UNL d   1      32.592  22.678 -20.662  0.00  0.00     0.188 A 
ATOM      4  N   UNL d   1      32.975  21.358 -21.289  0.00  0.00    -0.156 NA
ATOM      5  N   UNL d   1      31.681  23.011 -21.582  0.00  0.00    -0.127 NA
ATOM      6  N   UNL d   1      32.045  23.261 -20.886  0.00  0.00    -0.127 NA
ATOM      7  C   UNL d   1      32.822  20.852 -21.928  0.00  0.00     0.131 A 
ATOM      8  C   UNL d   1      31.851  21.769 -22.424  0.00  0.00     0.043 A 
ATOM      9  C   UNL d   1      32.261  21.056 -22.494  0.00  0.00     0.031 A 
ENDROOT
BRANCH   7  10
ATOM     10  S   UNL d   1      33.241  20.135 -21.989  0.00  0.00    -0.061 SA
BRANCH  10  11
ATOM     11  C   UNL d   1      33.184  19.682 -22.686  0.00  0.00     0.099 C 
BRANCH  11  12
ATOM     12  C   UNL d   1      32.963  18.884 -22.637  0.00  0.00     0.286 C 
ATOM     13  N   UNL d   1      32.544  18.541 -23.239  0.00  0.00    -0.206 NA
ATOM     14  O   UNL d   1      33.168  18.433 -21.977  0.00  0.00    -0.265 OA
BRANCH  13  15
ATOM     15  C   UNL d   1      32.321  17.743 -23.194  0.00  0.00     0.102 C 
BRANCH  15  16
ATOM     16  C   UNL d   1      31.698  17.477 -23.639  0.00  0.00     0.019 A 
ATOM     17  C   UNL d   1      31.284  16.792 -23.437  0.00  0.00     0.004 A 
ATOM     18  C   UNL d   1      30.655  16.524 -23.889  0.00  0.00     0.030 A 
ATOM     19  C   UNL d   1      30.429  16.947 -24.561  0.00  0.00     0.140 A 
ATOM     20  C   UNL d   1      30.843  17.629 -24.760  0.00  0.00     0.030 A 
ATOM     21  F   UNL d   1      29.799  16.688 -25.022  0.00  0.00    -0.204 F 
ATOM     22  C   UNL d   1      31.463  17.890 -24.313  0.00  0.00     0.004 A 
ENDBRANCH  15  16
ENDBRANCH  13  15
ENDBRANCH  11  12
ENDBRANCH  10  11
ENDBRANCH   7  10
BRANCH   3  23
ATOM     23  C   UNL d   1      33.084  22.695 -19.997  0.00  0.00     0.061 C 
BRANCH  23  24
ATOM     24  C   UNL d   1      33.092  23.357 -19.498  0.00  0.00     0.105 C 
BRANCH  24  25
ATOM     25  N   UNL d   1      33.240  23.257 -18.692  0.00  0.00    -0.206 NA
ATOM     26  C   UNL d   1      32.603  23.197 -18.159  0.00  0.00     0.279 C 
ATOM     27  O   UNL d   1      31.824  23.237 -18.448  0.00  0.00    -0.265 OA
BRANCH  26  28
ATOM     28  C   UNL d   1      32.748  23.097 -17.356  0.00  0.00     0.058 A 
ATOM     29  C   UNL d   1      33.081  22.391 -17.086  0.00  0.00     0.005 A 
ATOM     30  C   UNL d   1      33.228  22.286 -16.282  0.00  0.00     0.000 A 
ATOM     31  C   UNL d   1      33.042  22.892 -15.749  0.00  0.00     0.000 A 
ATOM     32  C   UNL d   1      32.709  23.598 -16.020  0.00  0.00     0.000 A 
ATOM     33  C   UNL d   1      33.188  22.789 -14.948  0.00  0.00     0.000 C 
ATOM     34  C   UNL d   1      32.563  23.697 -16.829  0.00  0.00     0.005 A 
ENDBRANCH  26  28
ENDBRANCH  24  25
ENDBRANCH  23  24
ENDBRANCH   3  23
TORSDOF 9
ENDMDL
MODEL 3
REMARK VINA RESULT:       2.3      3.020      7.395
REMARK  9 active torsions:
REMARK  status: ('A' for Active; 'I' for Inactive)
REMARK    1  A    between atoms: C_12  and  C_3 
REMARK    2  A    between atoms: S_14  and  C_7 
REMARK       I    between atoms: C_9  and  N_18 
REMARK    3  A    between atoms: C_13  and  C_9 
REMARK    4  A    between atoms: C_11  and  C_21 
REMARK       I    between atoms: N_15  and  C_11 
REMARK    5  A    between atoms: C_22  and  C_12 
REMARK    6  A    between atoms: C_21  and  S_14 
REMARK    7  A    between atoms: C_23  and  N_15 
REMARK    8  A    between atoms: N_18  and  C_22 
REMARK    9  A    between atoms: C_25  and  C_23 
ROOT
ATOM      1  N   UNL d   1      32.256  17.627 -23.231  0.00  0.00    -0.191 N 
ATOM      2  C   UNL d   1      32.652  16.930 -23.010  0.00  0.00     0.187 A 
ATOM      3  C   UNL d   1      32.601  18.260 -22.823  0.00  0.00     0.188 A 
ATOM      4  N   UNL d   1      31.634  17.594 -23.773  0.00  0.00    -0.156 NA
ATOM      5  N   UNL d   1      33.239  17.141 -22.466  0.00  0.00    -0.127 NA
ATOM      6  N   UNL d   1      33.211  17.956 -22.350  0.00  0.00    -0.127 NA
ATOM      7  C   UNL d   1      31.408  16.863 -24.095  0.00  0.00     0.131 A 
ATOM      8  C   UNL d   1      32.421  16.214 -23.333  0.00  0.00     0.043 A 
ATOM      9  C   UNL d   1      31.800  16.174 -23.875  0.00  0.00     0.031 A 
ENDROOT
BRANCH   7  10
ATOM     10  S   UNL d   1      30.780  16.834 -24.641  0.00  0.00    -0.061 SA
BRANCH  10  11
ATOM     11  C   UNL d   1      30.330  16.138 -24.716  0.00  0.00     0.099 C 
BRANCH  11  12
ATOM     12  C   UNL d   1      29.510  16.193 -24.830  0.00  0.00     0.286 C 
ATOM     13  N   UNL d   1      29.036  15.555 -24.680  0.00  0.00    -0.206 NA
ATOM     14  O   UNL d   1      29.171  16.897 -25.096  0.00  0.00    -0.265 OA
BRANCH  13  15
ATOM     15  C   UNL d   1      28.215  15.606 -24.793  0.00  0.00     0.102 C 
BRANCH  15  16
ATOM     16  C   UNL d   1      27.722  15.591 -24.149  0.00  0.00     0.019 A 
ATOM     17  C   UNL d   1      26.901  15.582 -24.234  0.00  0.00     0.004 A 
ATOM     18  C   UNL d   1      26.405  15.568 -23.582  0.00  0.00     0.030 A 
ATOM     19  C   UNL d   1      26.730  15.562 -22.824  0.00  0.00     0.140 A 
ATOM     20  C   UNL d   1      27.548  15.571 -22.742  0.00  0.00     0.030 A 
ATOM     21  F   UNL d   1      26.242  15.548 -22.162  0.00  0.00    -0.204 F 
ATOM     22  C   UNL d   1      28.035  15.586 -23.386  0.00  0.00     0.004 A 
ENDBRANCH  15  16
ENDBRANCH  13  15
ENDBRANCH  11  12
ENDBRANCH  10  11
ENDBRANCH   7  10
BRANCH   3  23
ATOM     23  C   UNL d   1      32.372  19.053 -22.884  0.00  0.00     0.061 C 
BRANCH  23  24
ATOM     24  C   UNL d   1      32.905  19.658 -22.689  0.00  0.00     0.105 C 
BRANCH  24  25
ATOM     25  N   UNL d   1      32.755  20.136 -22.033  0.00  0.00    -0.206 NA
ATOM     26  C   UNL d   1      32.901  20.955 -22.076  0.00  0.00     0.279 C 
ATOM     27  O   UNL d   1      33.196  21.280 -22.783  0.00  0.00    -0.265 OA
BRANCH  26  28
ATOM     28  C   UNL d   1      32.753  21.433 -21.424  0.00  0.00     0.058 A 
ATOM     29  C   UNL d   1      32.724  22.253 -21.518  0.00  0.00     0.005 A 
ATOM     30  C   UNL d   1      32.575  22.738 -20.868  0.00  0.00     0.000 A 
ATOM     31  C   UNL d   1      32.457  22.397 -20.123  0.00  0.00     0.000 A 
ATOM     32  C   UNL d   1      32.486  21.577 -20.029  0.00  0.00     0.000 A 
ATOM     33  C   UNL d   1      32.309  22.878 -19.474  0.00  0.00     0.000 C 
ATOM     34  C   UNL d   1      32.635  21.095 -20.687  0.00  0.00     0.005 A 
ENDBRANCH  26  28
ENDBRANCH  24  25
ENDBRANCH  23  24
ENDBRANCH   3  23
TORSDOF 9
ENDMDL
