MODEL 1
REMARK VINA RESULT:      -2.7      0.000      0.000
REMARK  6 active torsions:
REMARK  status: ('A' for Active; 'I' for Inactive)
REMARK    1  A    between atoms: C_10  and  C_4 
REMARK    2  A    between atoms: N_12  and  C_5 
REMARK    3  A    between atoms: N_11  and  C_15 
REMARK    4  A    between atoms: C_20  and  N_12 
REMARK    5  A    between atoms: C_15  and  C_16 
REMARK    6  A    between atoms: C_16  and  C_20 
ROOT
ATOM      1  N   UNL d   1      31.275  17.757 -24.253  0.00  0.00    -0.195 N 
ATOM      2  C   UNL d   1      30.901  17.038 -24.101  0.00  0.00     0.167 A 
ATOM      3  N   UNL d   1      30.739  18.253 -24.628  0.00  0.00    -0.163 NA
ATOM      4  C   UNL d   1      30.133  17.087 -24.382  0.00  0.00     0.055 A 
ATOM      5  C   UNL d   1      32.063  17.876 -24.032  0.00  0.00     0.167 A 
ATOM      6  C   UNL d   1      30.028  17.832 -24.707  0.00  0.00     0.104 A 
ATOM      7  N   UNL d   1      31.311  16.432 -23.726  0.00  0.00    -0.227 NA
ATOM      8  C   UNL d   1      32.475  17.259 -23.652  0.00  0.00     0.058 A 
ATOM      9  C   UNL d   1      32.101  16.541 -23.500  0.00  0.00     0.086 A 
ATOM     10  C   UNL d   1      29.336  18.119 -25.053  0.00  0.00     0.023 C 
ATOM     11  C   UNL d   1      32.513  15.929 -23.123  0.00  0.00     0.021 C 
ENDROOT
BRANCH   5  12
ATOM     12  N   UNL d   1      32.433  18.588 -24.182  0.00  0.00    -0.225 NA
BRANCH  12  13
ATOM     13  C   UNL d   1      33.046  18.845 -23.698  0.00  0.00     0.102 C 
BRANCH  13  14
ATOM     14  C   UNL d   1      33.117  19.651 -23.507  0.00  0.00     0.040 C 
BRANCH  14  15
ATOM     15  C   UNL d   1      33.109  19.892 -22.719  0.00  0.00     0.082 C 
BRANCH  15  16
ATOM     16  N   UNL d   1      33.110  20.694 -22.532  0.00  0.00    -0.299 N 
ATOM     17  C   UNL d   1      33.224  21.258 -23.131  0.00  0.00     0.107 A 
ATOM     18  C   UNL d   1      33.225  22.064 -22.943  0.00  0.00     0.142 A 
ATOM     19  O   UNL d   1      33.112  22.305 -22.156  0.00  0.00    -0.300 OA
ATOM     20  C   UNL d   1      33.000  21.743 -21.565  0.00  0.00     0.142 A 
ATOM     21  C   UNL d   1      32.999  20.937 -21.754  0.00  0.00     0.107 A 
ENDBRANCH  15  16
ENDBRANCH  14  15
ENDBRANCH  13  14
ENDBRANCH  12  13
ENDBRANCH   5  12
BRANCH   4  22
ATOM     22  C   UNL d   1      29.509  16.551 -24.386  0.00  0.00     0.004 A 
ATOM     23  C   UNL d   1      29.052  16.439 -23.708  0.00  0.00     0.000 A 
ATOM     24  C   UNL d   1      28.424  15.897 -23.716  0.00  0.00     0.000 A 
ATOM     25  C   UNL d   1      28.258  15.471 -24.402  0.00  0.00     0.000 A 
ATOM     26  C   UNL d   1      28.715  15.582 -25.080  0.00  0.00     0.000 A 
ATOM     27  C   UNL d   1      29.338  16.119 -25.076  0.00  0.00     0.000 A 
ENDBRANCH   4  22
TORSDOF 6
ENDMDL
MODEL 2
REMARK VINA RESULT:      -2.6      1.935      5.810
REMARK  6 active torsions:
REMARK  status: ('A' for Active; 'I' for Inactive)
REMARK    1  A    between atoms: C_10  and  C_4 
REMARK    2  A    between atoms: N_12  and  C_5 
REMARK    3  A    between atoms: N_11  and  C_15 
REMARK    4  A    between atoms: C_20  and  N_12 
REMARK    5  A    between atoms: C_15  and  C_16 
REMARK    6  A    between atoms: C_16  and  C_20 
ROOT
ATOM      1  N   UNL d   1      32.979  20.284 -22.507  0.00  0.00    -0.195 N 
ATOM      2  C   UNL d   1      32.900  21.102 -22.568  0.00  0.00     0.167 A 
ATOM      3  N   UNL d   1      32.867  20.070 -21.723  0.00  0.00    -0.163 NA
ATOM      4  C   UNL d   1      32.739  21.397 -21.821  0.00  0.00     0.055 A 
ATOM      5  C   UNL d   1      33.145  19.826 -23.176  0.00  0.00     0.167 A 
ATOM      6  C   UNL d   1      32.718  20.767 -21.297  0.00  0.00     0.104 A 
ATOM      7  N   UNL d   1      32.985  21.471 -23.298  0.00  0.00    -0.227 NA
ATOM      8  C   UNL d   1      33.231  20.204 -23.915  0.00  0.00     0.058 A 
ATOM      9  C   UNL d   1      33.152  21.022 -23.975  0.00  0.00     0.086 A 
ATOM     10  C   UNL d   1      32.573  20.813 -20.486  0.00  0.00     0.023 C 
ATOM     11  C   UNL d   1      33.237  21.395 -24.709  0.00  0.00     0.021 C 
ENDROOT
BRANCH   5  12
ATOM     12  N   UNL d   1      33.223  19.016 -23.116  0.00  0.00    -0.225 NA
BRANCH  12  13
ATOM     13  C   UNL d   1      32.976  18.530 -23.733  0.00  0.00     0.102 C 
BRANCH  13  14
ATOM     14  C   UNL d   1      32.478  17.881 -23.579  0.00  0.00     0.040 C 
BRANCH  14  15
ATOM     15  C   UNL d   1      32.522  17.207 -24.050  0.00  0.00     0.082 C 
BRANCH  15  16
ATOM     16  N   UNL d   1      31.845  16.762 -24.198  0.00  0.00    -0.299 N 
ATOM     17  C   UNL d   1      31.354  16.956 -24.838  0.00  0.00     0.107 A 
ATOM     18  C   UNL d   1      30.674  16.508 -24.987  0.00  0.00     0.142 A 
ATOM     19  O   UNL d   1      30.486  15.867 -24.494  0.00  0.00    -0.300 OA
ATOM     20  C   UNL d   1      30.974  15.678 -23.860  0.00  0.00     0.142 A 
ATOM     21  C   UNL d   1      31.655  16.125 -23.711  0.00  0.00     0.107 A 
ENDBRANCH  15  16
ENDBRANCH  14  15
ENDBRANCH  13  14
ENDBRANCH  12  13
ENDBRANCH   5  12
BRANCH   4  22
ATOM     22  C   UNL d   1      32.607  22.160 -21.543  0.00  0.00     0.004 A 
ATOM     23  C   UNL d   1      31.854  22.494 -21.584  0.00  0.00     0.000 A 
ATOM     24  C   UNL d   1      31.726  23.264 -21.303  0.00  0.00     0.000 A 
ATOM     25  C   UNL d   1      32.353  23.695 -20.984  0.00  0.00     0.000 A 
ATOM     26  C   UNL d   1      33.106  23.361 -20.944  0.00  0.00     0.000 A 
ATOM     27  C   UNL d   1      33.237  22.598 -21.221  0.00  0.00     0.000 A 
ENDBRANCH   4  22
TORSDOF 6
ENDMDL
MODEL 3
REMARK VINA RESULT:      -0.3      1.505      2.515
REMARK  6 active torsions:
REMARK  status: ('A' for Active; 'I' for Inactive)
REMARK    1  A    between atoms: C_10  and  C_4 
REMARK    2  A    between atoms: N_12  and  C_5 
REMARK    3  A    between atoms: N_11  and  C_15 
REMARK    4  A    between atoms: C_20  and  N_12 
REMARK    5  A    between atoms: C_15  and  C_16 
REMARK    6  A    between atoms: C_16  and  C_20 
ROOT
ATOM      1  N   UNL d   1      32.594  19.059 -23.294  0.00  0.00    -0.195 N 
ATOM      2  C   UNL d   1      32.436  18.274 -23.103  0.00  0.00     0.167 A 
ATOM      3  N   UNL d   1      32.328  19.199 -24.058  0.00  0.00    -0.163 NA
ATOM      4  C   UNL d   1      32.071  17.924 -23.748  0.00  0.00     0.055 A 
ATOM      5  C   UNL d   1      32.963  19.559 -22.748  0.00  0.00     0.167 A 
ATOM      6  C   UNL d   1      32.002  18.488 -24.338  0.00  0.00     0.104 A 
ATOM      7  N   UNL d   1      32.645  17.979 -22.364  0.00  0.00    -0.227 NA
ATOM      8  C   UNL d   1      33.175  19.257 -22.000  0.00  0.00     0.058 A 
ATOM      9  C   UNL d   1      33.016  18.472 -21.809  0.00  0.00     0.086 A 
ATOM     10  C   UNL d   1      31.668  18.374 -25.083  0.00  0.00     0.023 C 
ATOM     11  C   UNL d   1      33.227  18.174 -21.065  0.00  0.00     0.021 C 
ENDROOT
BRANCH   5  12
ATOM     12  N   UNL d   1      33.120  20.337 -22.938  0.00  0.00    -0.225 NA
BRANCH  12  13
ATOM     13  C   UNL d   1      33.239  20.892 -22.341  0.00  0.00     0.102 C 
BRANCH  13  14
ATOM     14  C   UNL d   1      32.872  21.637 -22.384  0.00  0.00     0.040 C 
BRANCH  14  15
ATOM     15  C   UNL d   1      33.163  22.267 -21.942  0.00  0.00     0.082 C 
BRANCH  15  16
ATOM     16  N   UNL d   1      32.660  22.692 -21.446  0.00  0.00    -0.299 N 
ATOM     17  C   UNL d   1      32.154  23.266 -21.765  0.00  0.00     0.107 A 
ATOM     18  C   UNL d   1      31.648  23.693 -21.267  0.00  0.00     0.142 A 
ATOM     19  O   UNL d   1      31.651  23.544 -20.451  0.00  0.00    -0.300 OA
ATOM     20  C   UNL d   1      32.154  22.973 -20.137  0.00  0.00     0.142 A 
ATOM     21  C   UNL d   1      32.659  22.546 -20.636  0.00  0.00     0.107 A 
ENDBRANCH  15  16
ENDBRANCH  14  15
ENDBRANCH  13  14
ENDBRANCH  12  13
ENDBRANCH   5  12
BRANCH   4  22
ATOM     22  C   UNL d   1      31.790  17.162 -23.879  0.00  0.00     0.004 A 
ATOM     23  C   UNL d   1      32.310  16.557 -24.088  0.00  0.00     0.000 A 
ATOM     24  C   UNL d   1      32.023  15.790 -24.220  0.00  0.00     0.000 A 
ATOM     25  C   UNL d   1      31.216  15.634 -24.141  0.00  0.00     0.000 A 
ATOM     26  C   UNL d   1      30.696  16.239 -23.932  0.00  0.00     0.000 A 
ATOM     27  C   UNL d   1      30.977  17.001 -23.801  0.00  0.00     0.000 A 
ENDBRANCH   4  22
TORSDOF 6
ENDMDL
MODEL 4
REMARK VINA RESULT:      -0.2      1.893      3.076
REMARK  6 active torsions:
REMARK  status: ('A' for Active; 'I' for Inactive)
REMARK    1  A    between atoms: C_10  and  C_4 
REMARK    2  A    between atoms: N_12  and  C_5 
REMARK    3  A    between atoms: N_11  and  C_15 
REMARK    4  A    between atoms: C_20  and  N_12 
REMARK    5  A    between atoms: C_15  and  C_16 
REMARK    6  A    between atoms: C_16  and  C_20 
ROOT
ATOM      1  N   UNL d   1      32.849  18.795 -23.007  0.00  0.00    -0.195 N 
ATOM      2  C   UNL d   1      32.569  18.349 -23.641  0.00  0.00     0.167 A 
ATOM      3  N   UNL d   1      33.046  18.282 -22.397  0.00  0.00    -0.163 NA
ATOM      4  C   UNL d   1      32.592  17.559 -23.426  0.00  0.00     0.055 A 
ATOM      5  C   UNL d   1      32.891  19.619 -23.059  0.00  0.00     0.167 A 
ATOM      6  C   UNL d   1      32.885  17.512 -22.662  0.00  0.00     0.104 A 
ATOM      7  N   UNL d   1      32.329  18.723 -24.334  0.00  0.00    -0.227 NA
ATOM      8  C   UNL d   1      32.647  19.995 -23.762  0.00  0.00     0.058 A 
ATOM      9  C   UNL d   1      32.368  19.549 -24.396  0.00  0.00     0.086 A 
ATOM     10  C   UNL d   1      33.001  16.821 -22.227  0.00  0.00     0.023 C 
ATOM     11  C   UNL d   1      32.126  19.924 -25.094  0.00  0.00     0.021 C 
ENDROOT
BRANCH   5  12
ATOM     12  N   UNL d   1      33.168  20.061 -22.431  0.00  0.00    -0.225 NA
BRANCH  12  13
ATOM     13  C   UNL d   1      32.639  20.430 -21.920  0.00  0.00     0.102 C 
BRANCH  13  14
ATOM     14  C   UNL d   1      32.910  20.766 -21.209  0.00  0.00     0.040 C 
BRANCH  14  15
ATOM     15  C   UNL d   1      32.907  21.583 -21.111  0.00  0.00     0.082 C 
BRANCH  15  16
ATOM     16  N   UNL d   1      32.991  21.910 -20.359  0.00  0.00    -0.299 N 
ATOM     17  C   UNL d   1      32.910  22.729 -20.253  0.00  0.00     0.107 A 
ATOM     18  C   UNL d   1      32.995  23.057 -19.497  0.00  0.00     0.142 A 
ATOM     19  O   UNL d   1      33.161  22.565 -18.850  0.00  0.00    -0.300 OA
ATOM     20  C   UNL d   1      33.241  21.753 -18.959  0.00  0.00     0.142 A 
ATOM     21  C   UNL d   1      33.156  21.425 -19.714  0.00  0.00     0.107 A 
ENDBRANCH  15  16
ENDBRANCH  14  15
ENDBRANCH  13  14
ENDBRANCH  12  13
ENDBRANCH   5  12
BRANCH   4  22
ATOM     22  C   UNL d   1      32.385  16.870 -23.825  0.00  0.00     0.004 A 
ATOM     23  C   UNL d   1      31.654  16.514 -23.689  0.00  0.00     0.000 A 
ATOM     24  C   UNL d   1      31.449  15.819 -24.093  0.00  0.00     0.000 A 
ATOM     25  C   UNL d   1      31.978  15.486 -24.631  0.00  0.00     0.000 A 
ATOM     26  C   UNL d   1      32.709  15.842 -24.767  0.00  0.00     0.000 A 
ATOM     27  C   UNL d   1      32.916  16.531 -24.368  0.00  0.00     0.000 A 
ENDBRANCH   4  22
TORSDOF 6
ENDMDL
