MODEL 1
REMARK VINA RESULT:      52.2      0.000      0.000
REMARK  7 active torsions:
REMARK  status: ('A' for Active; 'I' for Inactive)
REMARK    1  A    between atoms: S_10  and  C_4 
REMARK    2  A    between atoms: C_19  and  C_9 
REMARK    3  A    between atoms: C_13  and  S_10 
REMARK    4  A    between atoms: C_11  and  C_13 
REMARK       I    between atoms: N_14  and  C_11 
REMARK    5  A    between atoms: C_16  and  N_14 
REMARK    6  A    between atoms: C_20  and  C_16 
REMARK    7  A    between atoms: C_18  and  C_20 
ROOT
ATOM      1  C   UNL d   1     -57.859 -98.977 -43.753  0.00  0.00     0.141 A 
ATOM      2  C   UNL d   1     -58.671 -98.867 -43.839  0.00  0.00     0.110 A 
ATOM      3  O   UNL d   1     -57.692 -99.029 -42.946  0.00  0.00    -0.303 OA
ATOM      4  C   UNL d   1     -57.374 -99.016 -44.420  0.00  0.00     0.137 A 
ATOM      5  N   UNL d   1     -57.704 -98.945 -45.173  0.00  0.00    -0.218 NA
ATOM      6  C   UNL d   1     -59.007 -98.850 -43.086  0.00  0.00     0.043 A 
ATOM      7  N   UNL d   1     -59.000 -98.796 -44.593  0.00  0.00    -0.225 NA
ATOM      8  C   UNL d   1     -58.402 -98.950 -42.534  0.00  0.00     0.102 A 
ATOM      9  C   UNL d   1     -58.516 -98.835 -45.259  0.00  0.00     0.163 A 
ATOM     10  C   UNL d   1     -59.787 -98.757 -42.830  0.00  0.00     0.004 A 
ATOM     11  C   UNL d   1     -58.576 -98.957 -41.728  0.00  0.00     0.025 A 
ATOM     12  C   UNL d   1     -59.960 -98.764 -42.024  0.00  0.00     0.000 A 
ATOM     13  C   UNL d   1     -59.356 -98.864 -41.472  0.00  0.00     0.002 A 
ENDROOT
BRANCH   4  14
ATOM     14  S   UNL d   1     -56.561 -99.126 -44.333  0.00  0.00    -0.060 SA
BRANCH  14  15
ATOM     15  C   UNL d   1     -56.243 -99.886 -44.367  0.00  0.00     0.099 C 
BRANCH  15  16
ATOM     16  C   UNL d   1     -55.553-100.062 -43.949  0.00  0.00     0.286 C 
ATOM     17  O   UNL d   1     -54.842 -99.692 -44.152  0.00  0.00    -0.265 OA
ATOM     18  N   UNL d   1     -55.573-100.606 -43.329  0.00  0.00    -0.206 NA
BRANCH  18  19
ATOM     19  C   UNL d   1     -54.884-100.781 -42.912  0.00  0.00     0.102 C 
BRANCH  19  20
ATOM     20  C   UNL d   1     -54.715-101.560 -42.700  0.00  0.00     0.021 C 
BRANCH  20  21
ATOM     21  C   UNL d   1     -54.715-101.782 -41.906  0.00  0.00     0.002 A 
ATOM     22  C   UNL d   1     -54.712-102.583 -41.701  0.00  0.00     0.000 A 
ATOM     23  C   UNL d   1     -54.711-102.806 -40.907  0.00  0.00     0.000 A 
ATOM     24  C   UNL d   1     -54.714-102.229 -40.317  0.00  0.00     0.000 A 
ATOM     25  C   UNL d   1     -54.718-101.430 -40.520  0.00  0.00     0.000 A 
ATOM     26  C   UNL d   1     -54.718-101.207 -41.316  0.00  0.00     0.000 A 
ENDBRANCH  20  21
ENDBRANCH  19  20
ENDBRANCH  18  19
ENDBRANCH  15  16
ENDBRANCH  14  15
ENDBRANCH   4  14
BRANCH   9  27
ATOM     27  C   UNL d   1     -58.846 -98.764 -46.012  0.00  0.00     0.039 C 
ATOM     28  C   UNL d   1     -59.665 -98.788 -46.108  0.00  0.00     0.003 C 
ENDBRANCH   9  27
TORSDOF 7
ENDMDL
