MODEL 1
REMARK VINA RESULT:      50.5      0.000      0.000
REMARK  6 active torsions:
REMARK  status: ('A' for Active; 'I' for Inactive)
REMARK    1  A    between atoms: C_15  and  N_1 
REMARK    2  A    between atoms: S_12  and  C_3 
REMARK    3  A    between atoms: C_4  and  N_11 
REMARK    4  A    between atoms: C_14  and  C_8 
REMARK       I    between atoms: N_11  and  C_13 
REMARK    5  A    between atoms: C_17  and  S_12 
REMARK    6  A    between atoms: C_13  and  C_17 
ROOT
ATOM      1  N   UNL d   1      16.199  13.697  -0.307  0.00  0.00    -0.018 NA
ATOM      2  C   UNL d   1      16.181  14.513  -0.247  0.00  0.00     0.302 C 
ATOM      3  O   UNL d   1      16.867  14.928  -0.026  0.00  0.00    -0.264 OA
ENDROOT
BRANCH   2   4
ATOM      4  C   UNL d   1      15.484  14.924  -0.404  0.00  0.00     0.101 C 
BRANCH   4   5
ATOM      5  S   UNL d   1      15.464  15.497  -1.007  0.00  0.00    -0.041 SA
BRANCH   5   6
ATOM      6  C   UNL d   1      15.206  16.262  -0.841  0.00  0.00     0.219 A 
ATOM      7  N   UNL d   1      14.905  16.731  -1.454  0.00  0.00    -0.186 N 
ATOM      8  N   UNL d   1      14.692  17.462  -1.131  0.00  0.00    -0.038 NA
ATOM      9  N   UNL d   1      14.860  17.444  -0.329  0.00  0.00    -0.022 NA
ATOM     10  N   UNL d   1      15.177  16.702  -0.153  0.00  0.00    -0.101 NA
BRANCH   7  11
ATOM     11  C   UNL d   1      14.815  16.548  -2.249  0.00  0.00     0.087 A 
ATOM     12  C   UNL d   1      15.148  17.043  -2.819  0.00  0.00     0.019 A 
ATOM     13  C   UNL d   1      15.059  16.864  -3.618  0.00  0.00     0.002 A 
ATOM     14  C   UNL d   1      14.647  16.201  -3.857  0.00  0.00     0.000 A 
ATOM     15  C   UNL d   1      14.308  15.695  -3.283  0.00  0.00     0.002 A 
ATOM     16  C   UNL d   1      14.395  15.874  -2.474  0.00  0.00     0.019 A 
ENDBRANCH   7  11
ENDBRANCH   5   6
ENDBRANCH   4   5
ENDBRANCH   2   4
BRANCH   1  17
ATOM     17  C   UNL d   1      15.511  13.282  -0.528  0.00  0.00     0.760 A 
ATOM     18  N   UNL d   1      15.238  13.154  -1.286  0.00  0.00    -0.051 NA
ATOM     19  C   UNL d   1      14.547  12.722  -1.233  0.00  0.00     0.147 A 
ATOM     20  S   UNL d   1      14.398  12.585  -0.449  0.00  0.00     0.052 SA
ATOM     21  N   UNL d   1      15.002  12.937  -0.019  0.00  0.00    -0.019 NA
BRANCH  19  22
ATOM     22  C   UNL d   1      14.103  12.482  -1.892  0.00  0.00     0.026 A 
ATOM     23  C   UNL d   1      14.490  12.162  -2.547  0.00  0.00     0.003 A 
ATOM     24  C   UNL d   1      14.047  11.926  -3.199  0.00  0.00     0.011 A 
ATOM     25  C   UNL d   1      13.224  12.010  -3.194  0.00  0.00     0.058 A 
ATOM     26  C   UNL d   1      12.849  12.326  -2.548  0.00  0.00     0.011 A 
ATOM     27 CL   UNL d   1      12.772  11.780  -3.836  0.00  0.00    -0.082 Cl
ATOM     28  C   UNL d   1      13.288  12.565  -1.890  0.00  0.00     0.003 A 
ENDBRANCH  19  22
ENDBRANCH   1  17
TORSDOF 6
ENDMDL
MODEL 2
REMARK VINA RESULT:      53.1      1.350      3.561
REMARK  6 active torsions:
REMARK  status: ('A' for Active; 'I' for Inactive)
REMARK    1  A    between atoms: C_15  and  N_1 
REMARK    2  A    between atoms: S_12  and  C_3 
REMARK    3  A    between atoms: C_4  and  N_11 
REMARK    4  A    between atoms: C_14  and  C_8 
REMARK       I    between atoms: N_11  and  C_13 
REMARK    5  A    between atoms: C_17  and  S_12 
REMARK    6  A    between atoms: C_13  and  C_17 
ROOT
ATOM      1  N   UNL d   1      15.014  16.329  -1.335  0.00  0.00    -0.018 NA
ATOM      2  C   UNL d   1      15.032  15.738  -0.768  0.00  0.00     0.302 C 
ATOM      3  O   UNL d   1      15.371  15.888  -0.024  0.00  0.00    -0.264 OA
ENDROOT
BRANCH   2   4
ATOM      4  C   UNL d   1      14.713  14.997  -0.934  0.00  0.00     0.101 C 
BRANCH   4   5
ATOM      5  S   UNL d   1      14.710  14.403  -0.352  0.00  0.00    -0.041 SA
BRANCH   5   6
ATOM      6  C   UNL d   1      15.368  13.919  -0.251  0.00  0.00     0.219 A 
ATOM      7  N   UNL d   1      15.290  13.101  -0.356  0.00  0.00    -0.186 N 
ATOM      8  N   UNL d   1      16.031  12.757  -0.220  0.00  0.00    -0.038 NA
ATOM      9  N   UNL d   1      16.558  13.356  -0.034  0.00  0.00    -0.022 NA
ATOM     10  N   UNL d   1      16.147  14.072  -0.053  0.00  0.00    -0.101 NA
BRANCH   7  11
ATOM     11  C   UNL d   1      14.625  12.666  -0.557  0.00  0.00     0.087 A 
ATOM     12  C   UNL d   1      14.579  12.314  -1.301  0.00  0.00     0.019 A 
ATOM     13  C   UNL d   1      13.912  11.876  -1.507  0.00  0.00     0.002 A 
ATOM     14  C   UNL d   1      13.292  11.784  -0.984  0.00  0.00     0.000 A 
ATOM     15  C   UNL d   1      13.333  12.138  -0.227  0.00  0.00     0.002 A 
ATOM     16  C   UNL d   1      14.006  12.582  -0.016  0.00  0.00     0.019 A 
ENDBRANCH   7  11
ENDBRANCH   5   6
ENDBRANCH   4   5
ENDBRANCH   2   4
BRANCH   1  17
ATOM     17  C   UNL d   1      14.673  16.179  -2.080  0.00  0.00     0.760 A 
ATOM     18  N   UNL d   1      14.414  15.460  -2.366  0.00  0.00    -0.051 NA
ATOM     19  C   UNL d   1      14.123  15.581  -3.118  0.00  0.00     0.147 A 
ATOM     20  S   UNL d   1      14.203  16.367  -3.294  0.00  0.00     0.052 SA
ATOM     21  N   UNL d   1      14.545  16.730  -2.643  0.00  0.00    -0.019 NA
BRANCH  19  22
ATOM     22  C   UNL d   1      13.808  14.975  -3.591  0.00  0.00     0.026 A 
ATOM     23  C   UNL d   1      14.234  14.276  -3.692  0.00  0.00     0.003 A 
ATOM     24  C   UNL d   1      13.919  13.678  -4.161  0.00  0.00     0.011 A 
ATOM     25  C   UNL d   1      13.183  13.780  -4.525  0.00  0.00     0.058 A 
ATOM     26  C   UNL d   1      12.769  14.470  -4.423  0.00  0.00     0.011 A 
ATOM     27 CL   UNL d   1      12.859  13.194  -4.994  0.00  0.00    -0.082 Cl
ATOM     28  C   UNL d   1      13.079  15.075  -3.953  0.00  0.00     0.003 A 
ENDBRANCH  19  22
ENDBRANCH   1  17
TORSDOF 6
ENDMDL
MODEL 3
REMARK VINA RESULT:      53.4      2.360      3.144
REMARK  6 active torsions:
REMARK  status: ('A' for Active; 'I' for Inactive)
REMARK    1  A    between atoms: C_15  and  N_1 
REMARK    2  A    between atoms: S_12  and  C_3 
REMARK    3  A    between atoms: C_4  and  N_11 
REMARK    4  A    between atoms: C_14  and  C_8 
REMARK       I    between atoms: N_11  and  C_13 
REMARK    5  A    between atoms: C_17  and  S_12 
REMARK    6  A    between atoms: C_13  and  C_17 
ROOT
ATOM      1  N   UNL d   1      12.883  13.578  -4.759  0.00  0.00    -0.018 NA
ATOM      2  C   UNL d   1      13.084  14.357  -4.602  0.00  0.00     0.302 C 
ATOM      3  O   UNL d   1      12.866  14.957  -5.136  0.00  0.00    -0.264 OA
ENDROOT
BRANCH   2   4
ATOM      4  C   UNL d   1      13.501  14.546  -3.917  0.00  0.00     0.101 C 
BRANCH   4   5
ATOM      5  S   UNL d   1      13.772  15.322  -3.794  0.00  0.00    -0.041 SA
BRANCH   5   6
ATOM      6  C   UNL d   1      14.133  15.526  -3.082  0.00  0.00     0.219 A 
ATOM      7  N   UNL d   1      14.704  16.126  -3.074  0.00  0.00    -0.186 N 
ATOM      8  N   UNL d   1      14.969  16.212  -2.294  0.00  0.00    -0.038 NA
ATOM      9  N   UNL d   1      14.567  15.670  -1.829  0.00  0.00    -0.022 NA
ATOM     10  N   UNL d   1      14.052  15.249  -2.317  0.00  0.00    -0.101 NA
BRANCH   7  11
ATOM     11  C   UNL d   1      14.987  16.580  -3.695  0.00  0.00     0.087 A 
ATOM     12  C   UNL d   1      15.495  16.240  -4.249  0.00  0.00     0.019 A 
ATOM     13  C   UNL d   1      15.781  16.693  -4.875  0.00  0.00     0.002 A 
ATOM     14  C   UNL d   1      15.570  17.477  -4.957  0.00  0.00     0.000 A 
ATOM     15  C   UNL d   1      15.055  17.828  -4.399  0.00  0.00     0.002 A 
ATOM     16  C   UNL d   1      14.763  17.373  -3.765  0.00  0.00     0.019 A 
ENDBRANCH   7  11
ENDBRANCH   5   6
ENDBRANCH   4   5
ENDBRANCH   2   4
BRANCH   1  17
ATOM     17  C   UNL d   1      13.101  12.978  -4.225  0.00  0.00     0.760 A 
ATOM     18  N   UNL d   1      13.400  13.076  -3.472  0.00  0.00    -0.051 NA
ATOM     19  C   UNL d   1      13.532  12.334  -3.158  0.00  0.00     0.147 A 
ATOM     20  S   UNL d   1      13.316  11.786  -3.712  0.00  0.00     0.052 SA
ATOM     21  N   UNL d   1      13.050  12.195  -4.372  0.00  0.00    -0.019 NA
BRANCH  19  22
ATOM     22  C   UNL d   1      13.837  12.206  -2.396  0.00  0.00     0.026 A 
ATOM     23  C   UNL d   1      14.627  12.383  -2.240  0.00  0.00     0.003 A 
ATOM     24  C   UNL d   1      14.926  12.255  -1.485  0.00  0.00     0.011 A 
ATOM     25  C   UNL d   1      14.436  11.952  -0.890  0.00  0.00     0.058 A 
ATOM     26  C   UNL d   1      13.659  11.780  -1.049  0.00  0.00     0.011 A 
ATOM     27 CL   UNL d   1      14.720  11.820  -0.134  0.00  0.00    -0.082 Cl
ATOM     28  C   UNL d   1      13.353  11.906  -1.806  0.00  0.00     0.003 A 
ENDBRANCH  19  22
ENDBRANCH   1  17
TORSDOF 6
ENDMDL
