MODEL 1
REMARK VINA RESULT:      -6.7      0.000      0.000
REMARK  3 active torsions:
REMARK  status: ('A' for Active; 'I' for Inactive)
REMARK    1  A    between atoms: C_6  and  C_1 
REMARK    2  A    between atoms: C_2  and  C_8 
REMARK       I    between atoms: N_11  and  C_6 
REMARK    3  A    between atoms: C_12  and  N_11 
ROOT
ATOM      1  C   UNL d   1     -40.537  14.712  17.828  0.00  0.00     0.054 A 
ATOM      2  C   UNL d   1     -40.665  15.053  18.571  0.00  0.00     0.088 A 
ATOM      3  C   UNL d   1     -40.978  14.949  17.169  0.00  0.00     0.005 A 
ATOM      4  C   UNL d   1     -41.247  15.645  18.657  0.00  0.00     0.019 A 
ATOM      5  C   UNL d   1     -41.561  15.541  17.256  0.00  0.00     0.000 A 
ATOM      6  C   UNL d   1     -41.675  15.875  18.021  0.00  0.00     0.002 A 
ENDROOT
BRANCH   2   7
ATOM      7  N   UNL d   1     -40.223  14.816  19.230  0.00  0.00    -0.207 NA
ATOM      8  C   UNL d   1     -40.357  15.150  19.975  0.00  0.00     0.286 C 
ATOM      9  O   UNL d   1     -40.915  15.712  20.083  0.00  0.00    -0.265 OA
BRANCH   8  10
ATOM     10  C   UNL d   1     -39.898  14.896  20.631  0.00  0.00     0.098 A 
ATOM     11  S   UNL d   1     -39.158  15.092  20.722  0.00  0.00    -0.081 SA
ATOM     12  C   UNL d   1     -38.895  14.737  21.433  0.00  0.00     0.030 A 
ATOM     13  C   UNL d   1     -38.202  14.733  21.816  0.00  0.00     0.006 A 
ATOM     14  C   UNL d   1     -39.532  14.320  21.750  0.00  0.00     0.017 A 
ATOM     15  C   UNL d   1     -38.124  14.313  22.529  0.00  0.00     0.001 A 
ATOM     16  C   UNL d   1     -38.742  13.897  22.857  0.00  0.00     0.000 A 
ATOM     17  C   UNL d   1     -39.466  13.900  22.456  0.00  0.00     0.001 A 
ATOM     18  C   UNL d   1     -40.172  14.425  21.233  0.00  0.00     0.069 A 
ATOM     19 CL   UNL d   1     -40.928  14.128  21.295  0.00  0.00    -0.082 Cl
ENDBRANCH   8  10
ENDBRANCH   2   7
BRANCH   1  20
ATOM     20  C   UNL d   1     -39.955  14.121  17.741  0.00  0.00     0.164 A 
ATOM     21  N   UNL d   1     -39.692  13.496  18.230  0.00  0.00    -0.225 NA
ATOM     22  C   UNL d   1     -39.103  13.118  17.818  0.00  0.00     0.101 A 
ATOM     23  C   UNL d   1     -38.653  12.472  18.028  0.00  0.00     0.021 A 
ATOM     24  C   UNL d   1     -38.988  13.462  17.122  0.00  0.00     0.101 A 
ATOM     25  C   UNL d   1     -38.076  12.175  17.519  0.00  0.00     0.002 A 
ATOM     26  C   UNL d   1     -37.959  12.520  16.817  0.00  0.00     0.002 A 
ATOM     27  C   UNL d   1     -38.410  13.164  16.612  0.00  0.00     0.021 A 
ATOM     28  N   UNL d   1     -39.505  14.090  17.047  0.00  0.00    -0.225 NA
ENDBRANCH   1  20
TORSDOF 3
ENDMDL
MODEL 2
REMARK VINA RESULT:      -6.5      8.138      9.342
REMARK  3 active torsions:
REMARK  status: ('A' for Active; 'I' for Inactive)
REMARK    1  A    between atoms: C_6  and  C_1 
REMARK    2  A    between atoms: C_2  and  C_8 
REMARK       I    between atoms: N_11  and  C_6 
REMARK    3  A    between atoms: C_12  and  N_11 
ROOT
ATOM      1  C   UNL d   1     -48.544  14.501  22.520  0.00  0.00     0.054 A 
ATOM      2  C   UNL d   1     -47.722  14.442  22.587  0.00  0.00     0.088 A 
ATOM      3  C   UNL d   1     -48.908  15.229  22.371  0.00  0.00     0.005 A 
ATOM      4  C   UNL d   1     -47.252  15.127  22.504  0.00  0.00     0.019 A 
ATOM      5  C   UNL d   1     -48.438  15.914  22.287  0.00  0.00     0.000 A 
ATOM      6  C   UNL d   1     -47.602  15.832  22.359  0.00  0.00     0.002 A 
ENDROOT
BRANCH   2   7
ATOM      7  N   UNL d   1     -47.358  13.713  22.737  0.00  0.00    -0.207 NA
ATOM      8  C   UNL d   1     -46.534  13.651  22.785  0.00  0.00     0.286 C 
ATOM      9  O   UNL d   1     -46.063  14.289  22.688  0.00  0.00    -0.265 OA
BRANCH   8  10
ATOM     10  C   UNL d   1     -46.184  12.903  22.937  0.00  0.00     0.098 A 
ATOM     11  S   UNL d   1     -46.543  12.349  23.337  0.00  0.00    -0.081 SA
ATOM     12  C   UNL d   1     -46.023  11.694  23.371  0.00  0.00     0.030 A 
ATOM     13  C   UNL d   1     -46.074  10.974  23.698  0.00  0.00     0.006 A 
ATOM     14  C   UNL d   1     -45.337  11.903  22.965  0.00  0.00     0.017 A 
ATOM     15  C   UNL d   1     -45.440  10.441  23.628  0.00  0.00     0.001 A 
ATOM     16  C   UNL d   1     -44.756  10.630  23.231  0.00  0.00     0.000 A 
ATOM     17  C   UNL d   1     -44.702  11.382  22.890  0.00  0.00     0.001 A 
ATOM     18  C   UNL d   1     -45.444  12.678  22.689  0.00  0.00     0.069 A 
ATOM     19 CL   UNL d   1     -44.931  13.139  22.256  0.00  0.00    -0.082 Cl
ENDBRANCH   8  10
ENDBRANCH   2   7
BRANCH   1  20
ATOM     20  C   UNL d   1     -49.014  13.816  22.604  0.00  0.00     0.164 A 
ATOM     21  N   UNL d   1     -49.132  13.137  22.131  0.00  0.00    -0.225 NA
ATOM     22  C   UNL d   1     -49.664  12.673  22.529  0.00  0.00     0.101 A 
ATOM     23  C   UNL d   1     -49.978  11.949  22.326  0.00  0.00     0.021 A 
ATOM     24  C   UNL d   1     -49.879  13.013  23.203  0.00  0.00     0.101 A 
ATOM     25  C   UNL d   1     -50.518  11.568  22.818  0.00  0.00     0.002 A 
ATOM     26  C   UNL d   1     -50.735  11.910  23.498  0.00  0.00     0.002 A 
ATOM     27  C   UNL d   1     -50.420  12.632  23.697  0.00  0.00     0.021 A 
ATOM     28  N   UNL d   1     -49.489  13.727  23.276  0.00  0.00    -0.225 NA
ENDBRANCH   1  20
TORSDOF 3
ENDMDL
MODEL 3
REMARK VINA RESULT:      -5.8      9.173     10.532
REMARK  3 active torsions:
REMARK  status: ('A' for Active; 'I' for Inactive)
REMARK    1  A    between atoms: C_6  and  C_1 
REMARK    2  A    between atoms: C_2  and  C_8 
REMARK       I    between atoms: N_11  and  C_6 
REMARK    3  A    between atoms: C_12  and  N_11 
ROOT
ATOM      1  C   UNL d   1     -50.351  12.439  23.356  0.00  0.00     0.054 A 
ATOM      2  C   UNL d   1     -49.634  12.025  23.359  0.00  0.00     0.088 A 
ATOM      3  C   UNL d   1     -51.064  12.054  23.524  0.00  0.00     0.005 A 
ATOM      4  C   UNL d   1     -49.631  11.208  23.533  0.00  0.00     0.019 A 
ATOM      5  C   UNL d   1     -51.061  11.238  23.698  0.00  0.00     0.000 A 
ATOM      6  C   UNL d   1     -50.320  10.835  23.696  0.00  0.00     0.002 A 
ENDROOT
BRANCH   2   7
ATOM      7  N   UNL d   1     -48.919  12.409  23.191  0.00  0.00    -0.207 NA
ATOM      8  C   UNL d   1     -48.233  11.978  23.026  0.00  0.00     0.286 C 
ATOM      9  O   UNL d   1     -48.236  11.179  23.023  0.00  0.00    -0.265 OA
BRANCH   8  10
ATOM     10  C   UNL d   1     -47.518  12.386  22.859  0.00  0.00     0.098 A 
ATOM     11  S   UNL d   1     -47.021  12.598  23.409  0.00  0.00    -0.081 SA
ATOM     12  C   UNL d   1     -46.385  12.987  23.030  0.00  0.00     0.030 A 
ATOM     13  C   UNL d   1     -45.717  13.323  23.292  0.00  0.00     0.006 A 
ATOM     14  C   UNL d   1     -46.544  12.987  22.221  0.00  0.00     0.017 A 
ATOM     15  C   UNL d   1     -45.188  13.671  22.753  0.00  0.00     0.001 A 
ATOM     16  C   UNL d   1     -45.329  13.681  21.952  0.00  0.00     0.000 A 
ATOM     17  C   UNL d   1     -46.026  13.329  21.678  0.00  0.00     0.001 A 
ATOM     18  C   UNL d   1     -47.271  12.602  22.116  0.00  0.00     0.069 A 
ATOM     19 CL   UNL d   1     -47.674  12.456  21.423  0.00  0.00    -0.082 Cl
ENDBRANCH   8  10
ENDBRANCH   2   7
BRANCH   1  20
ATOM     20  C   UNL d   1     -50.354  13.254  23.182  0.00  0.00     0.164 A 
ATOM     21  N   UNL d   1     -50.045  13.927  23.570  0.00  0.00    -0.225 NA
ATOM     22  C   UNL d   1     -50.239  14.565  23.108  0.00  0.00     0.101 A 
ATOM     23  C   UNL d   1     -50.079  15.356  23.218  0.00  0.00     0.021 A 
ATOM     24  C   UNL d   1     -50.639  14.335  22.472  0.00  0.00     0.101 A 
ATOM     25  C   UNL d   1     -50.331  15.919  22.671  0.00  0.00     0.002 A 
ATOM     26  C   UNL d   1     -50.734  15.689  22.030  0.00  0.00     0.002 A 
ATOM     27  C   UNL d   1     -50.892  14.899  21.924  0.00  0.00     0.021 A 
ATOM     28  N   UNL d   1     -50.725  13.523  22.493  0.00  0.00    -0.225 NA
ENDBRANCH   1  20
TORSDOF 3
ENDMDL
MODEL 4
REMARK VINA RESULT:      -5.3      8.586      9.951
REMARK  3 active torsions:
REMARK  status: ('A' for Active; 'I' for Inactive)
REMARK    1  A    between atoms: C_6  and  C_1 
REMARK    2  A    between atoms: C_2  and  C_8 
REMARK       I    between atoms: N_11  and  C_6 
REMARK    3  A    between atoms: C_12  and  N_11 
ROOT
ATOM      1  C   UNL d   1     -49.743  12.425  23.256  0.00  0.00     0.054 A 
ATOM      2  C   UNL d   1     -49.076  11.935  23.265  0.00  0.00     0.088 A 
ATOM      3  C   UNL d   1     -50.488  12.133  23.468  0.00  0.00     0.005 A 
ATOM      4  C   UNL d   1     -49.156  11.135  23.492  0.00  0.00     0.019 A 
ATOM      5  C   UNL d   1     -50.568  11.333  23.694  0.00  0.00     0.000 A 
ATOM      6  C   UNL d   1     -49.876  10.851  23.697  0.00  0.00     0.002 A 
ENDROOT
BRANCH   2   7
ATOM      7  N   UNL d   1     -48.330  12.226  23.053  0.00  0.00    -0.207 NA
ATOM      8  C   UNL d   1     -47.654  11.754  23.121  0.00  0.00     0.286 C 
ATOM      9  O   UNL d   1     -47.697  11.004  23.392  0.00  0.00    -0.265 OA
BRANCH   8  10
ATOM     10  C   UNL d   1     -46.907  12.068  22.900  0.00  0.00     0.098 A 
ATOM     11  S   UNL d   1     -46.831  12.737  22.523  0.00  0.00    -0.081 SA
ATOM     12  C   UNL d   1     -46.013  12.862  22.404  0.00  0.00     0.030 A 
ATOM     13  C   UNL d   1     -45.593  13.437  22.058  0.00  0.00     0.006 A 
ATOM     14  C   UNL d   1     -45.616  12.220  22.737  0.00  0.00     0.017 A 
ATOM     15  C   UNL d   1     -44.764  13.390  22.034  0.00  0.00     0.001 A 
ATOM     16  C   UNL d   1     -44.355  12.765  22.357  0.00  0.00     0.000 A 
ATOM     17  C   UNL d   1     -44.793  12.163  22.719  0.00  0.00     0.001 A 
ATOM     18  C   UNL d   1     -46.192  11.715  23.054  0.00  0.00     0.069 A 
ATOM     19 CL   UNL d   1     -46.089  11.007  23.442  0.00  0.00    -0.082 Cl
ENDBRANCH   8  10
ENDBRANCH   2   7
BRANCH   1  20
ATOM     20  C   UNL d   1     -49.663  13.223  23.030  0.00  0.00     0.164 A 
ATOM     21  N   UNL d   1     -49.689  13.619  22.294  0.00  0.00    -0.225 NA
ATOM     22  C   UNL d   1     -49.571  14.405  22.454  0.00  0.00     0.101 A 
ATOM     23  C   UNL d   1     -49.542  15.042  21.947  0.00  0.00     0.021 A 
ATOM     24  C   UNL d   1     -49.475  14.519  23.225  0.00  0.00     0.101 A 
ATOM     25  C   UNL d   1     -49.413  15.805  22.231  0.00  0.00     0.002 A 
ATOM     26  C   UNL d   1     -49.316  15.921  23.008  0.00  0.00     0.002 A 
ATOM     27  C   UNL d   1     -49.345  15.283  23.510  0.00  0.00     0.021 A 
ATOM     28  N   UNL d   1     -49.528  13.800  23.608  0.00  0.00    -0.225 NA
ENDBRANCH   1  20
TORSDOF 3
ENDMDL
MODEL 5
REMARK VINA RESULT:      -4.1      8.111      9.317
REMARK  3 active torsions:
REMARK  status: ('A' for Active; 'I' for Inactive)
REMARK    1  A    between atoms: C_6  and  C_1 
REMARK    2  A    between atoms: C_2  and  C_8 
REMARK       I    between atoms: N_11  and  C_6 
REMARK    3  A    between atoms: C_12  and  N_11 
ROOT
ATOM      1  C   UNL d   1     -45.945  13.625  22.842  0.00  0.00     0.054 A 
ATOM      2  C   UNL d   1     -46.677  13.996  22.733  0.00  0.00     0.088 A 
ATOM      3  C   UNL d   1     -45.238  14.047  22.759  0.00  0.00     0.005 A 
ATOM      4  C   UNL d   1     -46.702  14.807  22.537  0.00  0.00     0.019 A 
ATOM      5  C   UNL d   1     -45.263  14.858  22.563  0.00  0.00     0.000 A 
ATOM      6  C   UNL d   1     -46.018  15.216  22.456  0.00  0.00     0.002 A 
ENDROOT
BRANCH   2   7
ATOM      7  N   UNL d   1     -47.385  13.575  22.816  0.00  0.00    -0.207 NA
ATOM      8  C   UNL d   1     -48.107  13.903  22.580  0.00  0.00     0.286 C 
ATOM      9  O   UNL d   1     -48.145  14.637  22.264  0.00  0.00    -0.265 OA
BRANCH   8  10
ATOM     10  C   UNL d   1     -48.814  13.460  22.672  0.00  0.00     0.098 A 
ATOM     11  S   UNL d   1     -49.163  13.371  23.354  0.00  0.00    -0.081 SA
ATOM     12  C   UNL d   1     -49.842  12.900  23.224  0.00  0.00     0.030 A 
ATOM     13  C   UNL d   1     -50.413  12.624  23.698  0.00  0.00     0.006 A 
ATOM     14  C   UNL d   1     -49.865  12.720  22.419  0.00  0.00     0.017 A 
ATOM     15  C   UNL d   1     -51.025  12.158  23.382  0.00  0.00     0.001 A 
ATOM     16  C   UNL d   1     -51.064  11.970  22.592  0.00  0.00     0.000 A 
ATOM     17  C   UNL d   1     -50.467  12.259  22.096  0.00  0.00     0.001 A 
ATOM     18  C   UNL d   1     -49.204  13.080  22.070  0.00  0.00     0.069 A 
ATOM     19 CL   UNL d   1     -48.974  13.070  21.289  0.00  0.00    -0.082 Cl
ENDBRANCH   8  10
ENDBRANCH   2   7
BRANCH   1  20
ATOM     20  C   UNL d   1     -45.921  12.815  23.039  0.00  0.00     0.164 A 
ATOM     21  N   UNL d   1     -46.482  12.281  23.352  0.00  0.00    -0.225 NA
ATOM     22  C   UNL d   1     -46.105  11.565  23.413  0.00  0.00     0.101 A 
ATOM     23  C   UNL d   1     -46.387  10.849  23.682  0.00  0.00     0.021 A 
ATOM     24  C   UNL d   1     -45.363  11.621  23.163  0.00  0.00     0.101 A 
ATOM     25  C   UNL d   1     -45.903  10.182  23.697  0.00  0.00     0.002 A 
ATOM     26  C   UNL d   1     -45.154  10.237  23.445  0.00  0.00     0.002 A 
ATOM     27  C   UNL d   1     -44.878  10.952  23.177  0.00  0.00     0.021 A 
ATOM     28  N   UNL d   1     -45.221  12.389  22.924  0.00  0.00    -0.225 NA
ENDBRANCH   1  20
TORSDOF 3
ENDMDL
