MODEL 1
REMARK VINA RESULT:      -3.5      0.000      0.000
REMARK  3 active torsions:
REMARK  status: ('A' for Active; 'I' for Inactive)
REMARK    1  A    between atoms: N_2  and  S_1 
REMARK    2  A    between atoms: C_5  and  S_1 
REMARK    3  A    between atoms: C_4  and  C_3 
ROOT
ATOM      1  C   UNL d   1     -41.830-122.416 -53.412  0.00  0.00     0.083 A 
ATOM      2  C   UNL d   1     -41.463-122.088 -52.064  0.00  0.00     0.104 A 
ATOM      3  C   UNL d   1     -41.819-121.880 -52.790  0.00  0.00     0.018 A 
ATOM      4  C   UNL d   1     -41.484-123.170 -53.322  0.00  0.00     0.062 A 
ATOM      5  C   UNL d   1     -41.123-122.835 -51.980  0.00  0.00     0.014 A 
ATOM      6  C   UNL d   1     -41.133-123.371 -52.602  0.00  0.00     0.012 A 
ATOM      7 CL   UNL d   1     -41.494-123.705 -53.944  0.00  0.00    -0.082 Cl
ENDROOT
BRANCH   2   8
ATOM      8  S   UNL d   1     -41.453-121.550 -51.438  0.00  0.00     0.272 S 
ATOM      9  O   UNL d   1     -41.123-120.988 -51.927  0.00  0.00    -0.200 OA
ATOM     10  O   UNL d   1     -41.442-121.000 -50.799  0.00  0.00    -0.200 OA
BRANCH   8  11
ATOM     11  N   UNL d   1     -41.799-122.139 -50.926  0.00  0.00    -0.225 N 
ATOM     12  C   UNL d   1     -42.641-122.158 -50.818  0.00  0.00     0.116 A 
ATOM     13  C   UNL d   1     -42.973-122.725 -50.326  0.00  0.00     0.118 A 
ATOM     14  C   UNL d   1     -43.796-122.752 -50.214  0.00  0.00     0.028 C 
ATOM     15  O   UNL d   1     -42.471-123.284 -49.930  0.00  0.00    -0.304 OA
ATOM     16  C   UNL d   1     -41.650-123.256 -50.042  0.00  0.00     0.118 A 
ATOM     17  C   UNL d   1     -41.317-122.690 -50.535  0.00  0.00     0.116 A 
ATOM     18  C   UNL d   1     -41.172-123.805 -49.652  0.00  0.00     0.028 C 
ENDBRANCH   8  11
ENDBRANCH   2   8
BRANCH   1  19
ATOM     19  C   UNL d   1     -42.191-122.200 -54.144  0.00  0.00     0.420 C 
ATOM     20  F   UNL d   1     -42.541-121.986 -54.874  0.00  0.00    -0.166 F 
ATOM     21  F   UNL d   1     -42.951-122.282 -53.817  0.00  0.00    -0.166 F 
ATOM     22  F   UNL d   1     -41.435-122.114 -54.486  0.00  0.00    -0.166 F 
ENDBRANCH   1  19
TORSDOF 3
ENDMDL
MODEL 2
REMARK VINA RESULT:      -2.2      2.973      4.160
REMARK  3 active torsions:
REMARK  status: ('A' for Active; 'I' for Inactive)
REMARK    1  A    between atoms: N_2  and  S_1 
REMARK    2  A    between atoms: C_5  and  S_1 
REMARK    3  A    between atoms: C_4  and  C_3 
ROOT
ATOM      1  C   UNL d   1     -42.232-122.991 -48.478  0.00  0.00     0.083 A 
ATOM      2  C   UNL d   1     -42.630-122.986 -49.856  0.00  0.00     0.104 A 
ATOM      3  C   UNL d   1     -42.727-122.716 -49.072  0.00  0.00     0.018 A 
ATOM      4  C   UNL d   1     -41.630-123.541 -48.655  0.00  0.00     0.062 A 
ATOM      5  C   UNL d   1     -42.033-123.529 -50.026  0.00  0.00     0.014 A 
ATOM      6  C   UNL d   1     -41.538-123.804 -49.432  0.00  0.00     0.012 A 
ATOM      7 CL   UNL d   1     -41.135-123.816 -48.060  0.00  0.00    -0.082 Cl
ENDROOT
BRANCH   2   8
ATOM      8  S   UNL d   1     -43.128-122.709 -50.454  0.00  0.00     0.272 S 
ATOM      9  O   UNL d   1     -43.778-122.915 -50.008  0.00  0.00    -0.200 OA
ATOM     10  O   UNL d   1     -43.636-122.427 -51.065  0.00  0.00    -0.200 OA
BRANCH   8  11
ATOM     11  N   UNL d   1     -42.447-122.493 -50.922  0.00  0.00    -0.225 N 
ATOM     12  C   UNL d   1     -42.113-123.058 -51.461  0.00  0.00     0.116 A 
ATOM     13  C   UNL d   1     -41.458-122.850 -51.910  0.00  0.00     0.118 A 
ATOM     14  C   UNL d   1     -41.124-123.396 -52.440  0.00  0.00     0.028 C 
ATOM     15  O   UNL d   1     -41.123-122.075 -51.830  0.00  0.00    -0.304 OA
ATOM     16  C   UNL d   1     -41.457-121.530 -51.301  0.00  0.00     0.118 A 
ATOM     17  C   UNL d   1     -42.112-121.738 -50.851  0.00  0.00     0.116 A 
ATOM     18  C   UNL d   1     -41.123-120.779 -51.232  0.00  0.00     0.028 C 
ENDBRANCH   8  11
ENDBRANCH   2   8
BRANCH   1  19
ATOM     19  C   UNL d   1     -42.335-122.715 -47.686  0.00  0.00     0.420 C 
ATOM     20  F   UNL d   1     -42.429-122.435 -46.903  0.00  0.00    -0.166 F 
ATOM     21  F   UNL d   1     -42.945-123.263 -47.553  0.00  0.00    -0.166 F 
ATOM     22  F   UNL d   1     -41.723-122.160 -47.806  0.00  0.00    -0.166 F 
ENDBRANCH   1  19
TORSDOF 3
ENDMDL
MODEL 3
REMARK VINA RESULT:      -2.0      1.990      3.160
REMARK  3 active torsions:
REMARK  status: ('A' for Active; 'I' for Inactive)
REMARK    1  A    between atoms: N_2  and  S_1 
REMARK    2  A    between atoms: C_5  and  S_1 
REMARK    3  A    between atoms: C_4  and  C_3 
ROOT
ATOM      1  C   UNL d   1     -42.575-122.534 -50.560  0.00  0.00     0.083 A 
ATOM      2  C   UNL d   1     -41.627-122.043 -51.519  0.00  0.00     0.104 A 
ATOM      3  C   UNL d   1     -42.331-121.948 -51.080  0.00  0.00     0.018 A 
ATOM      4  C   UNL d   1     -42.121-123.228 -50.468  0.00  0.00     0.062 A 
ATOM      5  C   UNL d   1     -41.182-122.731 -51.425  0.00  0.00     0.014 A 
ATOM      6  C   UNL d   1     -41.426-123.318 -50.904  0.00  0.00     0.012 A 
ATOM      7 CL   UNL d   1     -42.365-123.815 -49.948  0.00  0.00    -0.082 Cl
ENDROOT
BRANCH   2   8
ATOM      8  S   UNL d   1     -41.382-121.453 -52.042  0.00  0.00     0.272 S 
ATOM      9  O   UNL d   1     -41.123-121.004 -51.414  0.00  0.00    -0.200 OA
ATOM     10  O   UNL d   1     -41.131-120.851 -52.576  0.00  0.00    -0.200 OA
BRANCH   8  11
ATOM     11  N   UNL d   1     -41.654-121.924 -52.701  0.00  0.00    -0.225 N 
ATOM     12  C   UNL d   1     -42.335-121.674 -53.142  0.00  0.00     0.116 A 
ATOM     13  C   UNL d   1     -42.596-122.127 -53.775  0.00  0.00     0.118 A 
ATOM     14  C   UNL d   1     -43.261-121.891 -54.213  0.00  0.00     0.028 C 
ATOM     15  O   UNL d   1     -42.182-122.839 -53.980  0.00  0.00    -0.304 OA
ATOM     16  C   UNL d   1     -41.517-123.074 -53.543  0.00  0.00     0.118 A 
ATOM     17  C   UNL d   1     -41.256-122.621 -52.910  0.00  0.00     0.116 A 
ATOM     18  C   UNL d   1     -41.123-123.768 -53.752  0.00  0.00     0.028 C 
ENDBRANCH   8  11
ENDBRANCH   2   8
BRANCH   1  19
ATOM     19  C   UNL d   1     -43.288-122.433 -50.119  0.00  0.00     0.420 C 
ATOM     20  F   UNL d   1     -43.999-122.337 -49.687  0.00  0.00    -0.166 F 
ATOM     21  F   UNL d   1     -42.892-121.981 -49.544  0.00  0.00    -0.166 F 
ATOM     22  F   UNL d   1     -43.698-122.884 -50.688  0.00  0.00    -0.166 F 
ENDBRANCH   1  19
TORSDOF 3
ENDMDL
