MODEL 1
REMARK VINA RESULT:      66.6      0.000      0.000
REMARK  5 active torsions:
REMARK  status: ('A' for Active; 'I' for Inactive)
REMARK    1  A    between atoms: C_11  and  C_1 
REMARK    2  A    between atoms: C_2  and  N_5 
REMARK    3  A    between atoms: N_3  and  C_7 
REMARK       I    between atoms: N_5  and  C_6 
REMARK    4  A    between atoms: C_6  and  C_9 
REMARK    5  A    between atoms: C_16  and  C_8 
ROOT
ATOM      1  N   UNL d   1     -49.824  27.299  33.393  0.00  0.00    -0.183 NA
ATOM      2  C   UNL d   1     -49.370  27.583  34.091  0.00  0.00     0.281 C 
ATOM      3  O   UNL d   1     -49.187  27.047  34.707  0.00  0.00    -0.265 OA
ENDROOT
BRANCH   2   4
ATOM      4  C   UNL d   1     -49.125  28.424  34.113  0.00  0.00     0.065 A 
ATOM      5  C   UNL d   1     -48.620  28.640  34.729  0.00  0.00     0.091 A 
ATOM      6  C   UNL d   1     -48.376  29.438  34.766  0.00  0.00     0.133 A 
ATOM      7  C   UNL d   1     -48.632  29.988  34.206  0.00  0.00     0.024 A 
ATOM      8  C   UNL d   1     -49.143  29.763  33.584  0.00  0.00     0.002 A 
ATOM      9  C   UNL d   1     -49.381  28.973  33.553  0.00  0.00     0.005 A 
BRANCH   5  10
ATOM     10  C   UNL d   1     -48.369  28.099  35.281  0.00  0.00     0.213 C 
ATOM     11  O   UNL d   1     -48.845  27.900  35.939  0.00  0.00    -0.644 OA
ATOM     12  O   UNL d   1     -47.657  27.798  35.130  0.00  0.00    -0.644 OA
ENDBRANCH   5  10
BRANCH   6  13
ATOM     13  N   UNL d   1     -47.878  29.691  35.359  0.00  0.00    -0.114 N 
ATOM     14  O   UNL d   1     -47.091  29.456  35.442  0.00  0.00    -0.532 OA
ATOM     15  O   UNL d   1     -48.093  30.209  35.949  0.00  0.00    -0.532 OA
ENDBRANCH   6  13
ENDBRANCH   2   4
BRANCH   1  16
ATOM     16  C   UNL d   1     -50.060  26.509  33.362  0.00  0.00     0.197 A 
ATOM     17  N   UNL d   1     -50.835  26.338  33.368  0.00  0.00    -0.221 NA
ATOM     18  C   UNL d   1     -50.906  25.534  33.333  0.00  0.00     0.090 A 
ATOM     19  C   UNL d   1     -50.225  25.239  33.307  0.00  0.00     0.058 A 
ATOM     20  S   UNL d   1     -49.614  25.786  33.321  0.00  0.00    -0.046 SA
BRANCH  18  21
ATOM     21  C   UNL d   1     -51.580  25.063  33.324  0.00  0.00     0.018 A 
ATOM     22  C   UNL d   1     -51.499  24.240  33.315  0.00  0.00     0.002 A 
ATOM     23  C   UNL d   1     -52.179  23.752  33.306  0.00  0.00     0.000 A 
ATOM     24  C   UNL d   1     -52.935  24.104  33.306  0.00  0.00     0.000 A 
ATOM     25  C   UNL d   1     -53.010  24.918  33.315  0.00  0.00     0.000 A 
ATOM     26  C   UNL d   1     -52.330  25.405  33.324  0.00  0.00     0.002 A 
ENDBRANCH  18  21
ENDBRANCH   1  16
TORSDOF 5
ENDMDL
MODEL 2
REMARK VINA RESULT:      69.2      1.274      2.080
REMARK  5 active torsions:
REMARK  status: ('A' for Active; 'I' for Inactive)
REMARK    1  A    between atoms: C_11  and  C_1 
REMARK    2  A    between atoms: C_2  and  N_5 
REMARK    3  A    between atoms: N_3  and  C_7 
REMARK       I    between atoms: N_5  and  C_6 
REMARK    4  A    between atoms: C_6  and  C_9 
REMARK    5  A    between atoms: C_16  and  C_8 
ROOT
ATOM      1  N   UNL d   1     -49.155  29.031  33.887  0.00  0.00    -0.183 NA
ATOM      2  C   UNL d   1     -48.575  29.329  34.478  0.00  0.00     0.281 C 
ATOM      3  O   UNL d   1     -48.209  28.789  35.002  0.00  0.00    -0.265 OA
ENDROOT
BRANCH   2   4
ATOM      4  C   UNL d   1     -48.402  30.187  34.493  0.00  0.00     0.065 A 
ATOM      5  C   UNL d   1     -47.814  30.431  35.019  0.00  0.00     0.091 A 
ATOM      6  C   UNL d   1     -47.636  31.247  35.047  0.00  0.00     0.133 A 
ATOM      7  C   UNL d   1     -48.033  31.786  34.565  0.00  0.00     0.024 A 
ATOM      8  C   UNL d   1     -48.627  31.534  34.035  0.00  0.00     0.002 A 
ATOM      9  C   UNL d   1     -48.800  30.727  34.011  0.00  0.00     0.005 A 
BRANCH   5  10
ATOM     10  C   UNL d   1     -47.423  29.900  35.493  0.00  0.00     0.213 C 
ATOM     11  O   UNL d   1     -46.788  29.444  35.197  0.00  0.00    -0.644 OA
ATOM     12  O   UNL d   1     -47.698  29.867  36.230  0.00  0.00    -0.644 OA
ENDBRANCH   5  10
BRANCH   6  13
ATOM     13  N   UNL d   1     -47.062  31.527  35.553  0.00  0.00    -0.114 N 
ATOM     14  O   UNL d   1     -46.957  31.269  36.330  0.00  0.00    -0.532 OA
ATOM     15  O   UNL d   1     -46.517  32.099  35.357  0.00  0.00    -0.532 OA
ENDBRANCH   6  13
ENDBRANCH   2   4
BRANCH   1  16
ATOM     16  C   UNL d   1     -49.326  28.224  33.864  0.00  0.00     0.197 A 
ATOM     17  N   UNL d   1     -50.066  27.991  33.697  0.00  0.00    -0.221 NA
ATOM     18  C   UNL d   1     -50.075  27.183  33.711  0.00  0.00     0.090 A 
ATOM     19  C   UNL d   1     -49.392  26.944  33.874  0.00  0.00     0.058 A 
ATOM     20  S   UNL d   1     -48.840  27.538  33.990  0.00  0.00    -0.046 SA
BRANCH  18  21
ATOM     21  C   UNL d   1     -50.696  26.661  33.578  0.00  0.00     0.018 A 
ATOM     22  C   UNL d   1     -51.465  26.957  33.503  0.00  0.00     0.002 A 
ATOM     23  C   UNL d   1     -52.104  26.434  33.367  0.00  0.00     0.000 A 
ATOM     24  C   UNL d   1     -51.957  25.615  33.309  0.00  0.00     0.000 A 
ATOM     25  C   UNL d   1     -51.196  25.327  33.384  0.00  0.00     0.000 A 
ATOM     26  C   UNL d   1     -50.557  25.851  33.520  0.00  0.00     0.002 A 
ENDBRANCH  18  21
ENDBRANCH   1  16
TORSDOF 5
ENDMDL
