MODEL 1
REMARK VINA RESULT:       6.1      0.000      0.000
REMARK  1 active torsions:
REMARK  status: ('A' for Active; 'I' for Inactive)
REMARK    1  A    between atoms: C_6  and  C_2 
ROOT
ATOM      1  O   UNL d   1     -50.828  25.642  33.328  0.00  0.00    -0.260 OA
ATOM      2  C   UNL d   1     -51.641  25.471  33.324  0.00  0.00     0.207 A 
ATOM      3  N   UNL d   1     -52.044  26.191  33.312  0.00  0.00    -0.120 NA
ATOM      4  C   UNL d   1     -50.738  26.463  33.319  0.00  0.00     0.262 A 
ATOM      5  N   UNL d   1     -51.495  26.803  33.309  0.00  0.00    -0.109 NA
ATOM      6  S   UNL d   1     -50.018  26.867  33.319  0.00  0.00    -0.029 SA
ENDROOT
BRANCH   2   7
ATOM      7  C   UNL d   1     -51.975  24.723  33.331  0.00  0.00     0.062 A 
ATOM      8  C   UNL d   1     -52.793  24.633  33.358  0.00  0.00     0.102 A 
ATOM      9  N   UNL d   1     -53.123  23.870  33.365  0.00  0.00    -0.242 NA
ATOM     10  C   UNL d   1     -52.638  23.206  33.344  0.00  0.00     0.099 A 
ATOM     11  C   UNL d   1     -51.822  23.298  33.316  0.00  0.00     0.021 A 
ATOM     12  C   UNL d   1     -51.482  24.053  33.310  0.00  0.00     0.007 A 
ENDBRANCH   2   7
TORSDOF 1
ENDMDL
MODEL 2
REMARK VINA RESULT:       6.3      1.872      3.042
REMARK  1 active torsions:
REMARK  status: ('A' for Active; 'I' for Inactive)
REMARK    1  A    between atoms: C_6  and  C_2 
ROOT
ATOM      1  O   UNL d   1     -52.529  24.598  33.310  0.00  0.00    -0.260 OA
ATOM      2  C   UNL d   1     -51.708  24.484  33.366  0.00  0.00     0.207 A 
ATOM      3  N   UNL d   1     -51.577  23.672  33.439  0.00  0.00    -0.120 NA
ATOM      4  C   UNL d   1     -52.895  23.858  33.349  0.00  0.00     0.262 A 
ATOM      5  N   UNL d   1     -52.302  23.284  33.429  0.00  0.00    -0.109 NA
ATOM      6  S   UNL d   1     -53.709  23.723  33.313  0.00  0.00    -0.029 SA
ENDROOT
BRANCH   2   7
ATOM      7  C   UNL d   1     -51.139  25.072  33.350  0.00  0.00     0.062 A 
ATOM      8  C   UNL d   1     -50.338  24.876  33.322  0.00  0.00     0.102 A 
ATOM      9  N   UNL d   1     -49.767  25.481  33.307  0.00  0.00    -0.242 NA
ATOM     10  C   UNL d   1     -49.996  26.271  33.320  0.00  0.00     0.099 A 
ATOM     11  C   UNL d   1     -50.794  26.464  33.348  0.00  0.00     0.021 A 
ATOM     12  C   UNL d   1     -51.372  25.871  33.364  0.00  0.00     0.007 A 
ENDBRANCH   2   7
TORSDOF 1
ENDMDL
