MODEL 1
REMARK VINA RESULT:      -7.4      0.000      0.000
REMARK  6 active torsions:
REMARK  status: ('A' for Active; 'I' for Inactive)
REMARK    1  A    between atoms: C_12  and  C_4 
REMARK    2  A    between atoms: N_16  and  C_5 
REMARK    3  A    between atoms: N_11  and  C_24 
REMARK    4  A    between atoms: C_27  and  N_16 
REMARK    5  A    between atoms: C_24  and  C_25 
REMARK    6  A    between atoms: C_25  and  C_27 
ROOT
ATOM      1  N   UNL d   1      51.638  34.393  53.281  0.00  0.00    -0.195 N 
ATOM      2  C   UNL d   1      52.185  33.861  53.601  0.00  0.00     0.167 A 
ATOM      3  N   UNL d   1      51.936  35.146  53.389  0.00  0.00    -0.163 NA
ATOM      4  C   UNL d   1      52.808  34.297  53.899  0.00  0.00     0.055 A 
ATOM      5  C   UNL d   1      50.949  34.112  52.938  0.00  0.00     0.167 A 
ATOM      6  C   UNL d   1      52.659  35.076  53.771  0.00  0.00     0.104 A 
ATOM      7  N   UNL d   1      52.034  33.056  53.573  0.00  0.00    -0.227 NA
ATOM      8  C   UNL d   1      50.798  33.295  52.912  0.00  0.00     0.058 A 
ATOM      9  C   UNL d   1      51.334  32.774  53.225  0.00  0.00     0.086 A 
ATOM     10  C   UNL d   1      53.157  35.700  53.992  0.00  0.00     0.023 C 
ATOM     11  C   UNL d   1      51.177  31.949  53.195  0.00  0.00     0.021 C 
ENDROOT
BRANCH   5  12
ATOM     12  N   UNL d   1      50.402  34.645  52.618  0.00  0.00    -0.225 NA
BRANCH  12  13
ATOM     13  C   UNL d   1      49.621  34.627  52.870  0.00  0.00     0.102 C 
BRANCH  13  14
ATOM     14  C   UNL d   1      49.061  35.118  52.507  0.00  0.00     0.040 C 
BRANCH  14  15
ATOM     15  C   UNL d   1      48.481  35.490  52.957  0.00  0.00     0.083 C 
BRANCH  15  16
ATOM     16  N   UNL d   1      47.828  35.832  52.592  0.00  0.00    -0.285 N 
ATOM     17  C   UNL d   1      47.522  35.776  51.826  0.00  0.00     0.183 A 
ATOM     18  N   UNL d   1      46.856  36.244  51.782  0.00  0.00    -0.222 NA
ATOM     19  C   UNL d   1      46.736  36.595  52.507  0.00  0.00     0.120 A 
ATOM     20  C   UNL d   1      47.339  36.341  53.014  0.00  0.00     0.102 A 
ENDBRANCH  15  16
ENDBRANCH  14  15
ENDBRANCH  13  14
ENDBRANCH  12  13
ENDBRANCH   5  12
BRANCH   4  21
ATOM     21  C   UNL d   1      53.508  34.064  54.280  0.00  0.00     0.004 A 
ATOM     22  C   UNL d   1      54.160  33.819  53.839  0.00  0.00     0.001 A 
ATOM     23  C   UNL d   1      54.856  33.587  54.214  0.00  0.00     0.011 A 
ATOM     24  C   UNL d   1      54.896  33.602  55.038  0.00  0.00     0.058 A 
ATOM     25  C   UNL d   1      54.241  33.848  55.481  0.00  0.00     0.011 A 
ATOM     26 CL   UNL d   1      55.606  33.365  55.416  0.00  0.00    -0.082 Cl
ATOM     27  C   UNL d   1      53.548  34.079  55.104  0.00  0.00     0.001 A 
ENDBRANCH   4  21
TORSDOF 6
ENDMDL
MODEL 2
REMARK VINA RESULT:      -6.7      2.385      3.633
REMARK  6 active torsions:
REMARK  status: ('A' for Active; 'I' for Inactive)
REMARK    1  A    between atoms: C_12  and  C_4 
REMARK    2  A    between atoms: N_16  and  C_5 
REMARK    3  A    between atoms: N_11  and  C_24 
REMARK    4  A    between atoms: C_27  and  N_16 
REMARK    5  A    between atoms: C_24  and  C_25 
REMARK    6  A    between atoms: C_25  and  C_27 
ROOT
ATOM      1  N   UNL d   1      52.982  32.176  53.293  0.00  0.00    -0.195 N 
ATOM      2  C   UNL d   1      53.330  31.661  53.840  0.00  0.00     0.167 A 
ATOM      3  N   UNL d   1      52.583  31.719  52.744  0.00  0.00    -0.163 NA
ATOM      4  C   UNL d   1      53.139  30.899  53.616  0.00  0.00     0.055 A 
ATOM      5  C   UNL d   1      53.079  32.985  53.376  0.00  0.00     0.167 A 
ATOM      6  C   UNL d   1      52.687  30.932  52.953  0.00  0.00     0.104 A 
ATOM      7  N   UNL d   1      53.770  31.964  54.461  0.00  0.00    -0.227 NA
ATOM      8  C   UNL d   1      53.526  33.289  54.007  0.00  0.00     0.058 A 
ATOM      9  C   UNL d   1      53.867  32.786  54.542  0.00  0.00     0.086 A 
ATOM     10  C   UNL d   1      52.379  30.276  52.551  0.00  0.00     0.023 C 
ATOM     11  C   UNL d   1      54.318  33.098  55.179  0.00  0.00     0.021 C 
ENDROOT
BRANCH   5  12
ATOM     12  N   UNL d   1      52.731  33.500  52.829  0.00  0.00    -0.225 NA
BRANCH  12  13
ATOM     13  C   UNL d   1      52.184  34.056  53.084  0.00  0.00     0.102 C 
BRANCH  13  14
ATOM     14  C   UNL d   1      51.546  34.258  52.597  0.00  0.00     0.040 C 
BRANCH  14  15
ATOM     15  C   UNL d   1      50.843  34.533  52.926  0.00  0.00     0.083 C 
BRANCH  15  16
ATOM     16  N   UNL d   1      50.162  34.587  52.466  0.00  0.00    -0.285 N 
ATOM     17  C   UNL d   1      49.985  34.336  51.698  0.00  0.00     0.183 A 
ATOM     18  N   UNL d   1      49.213  34.543  51.534  0.00  0.00    -0.222 NA
ATOM     19  C   UNL d   1      48.902  34.920  52.185  0.00  0.00     0.120 A 
ATOM     20  C   UNL d   1      49.489  34.949  52.767  0.00  0.00     0.102 A 
ENDBRANCH  15  16
ENDBRANCH  14  15
ENDBRANCH  13  14
ENDBRANCH  12  13
ENDBRANCH   5  12
BRANCH   4  21
ATOM     21  C   UNL d   1      53.332  30.164  53.953  0.00  0.00     0.004 A 
ATOM     22  C   UNL d   1      52.881  29.858  54.571  0.00  0.00     0.001 A 
ATOM     23  C   UNL d   1      53.070  29.130  54.906  0.00  0.00     0.011 A 
ATOM     24  C   UNL d   1      53.717  28.708  54.618  0.00  0.00     0.058 A 
ATOM     25  C   UNL d   1      54.170  29.015  53.997  0.00  0.00     0.011 A 
ATOM     26 CL   UNL d   1      53.906  27.966  54.962  0.00  0.00    -0.082 Cl
ATOM     27  C   UNL d   1      53.979  29.742  53.664  0.00  0.00     0.001 A 
ENDBRANCH   4  21
TORSDOF 6
ENDMDL
MODEL 3
REMARK VINA RESULT:      -6.3      2.542      6.165
REMARK  6 active torsions:
REMARK  status: ('A' for Active; 'I' for Inactive)
REMARK    1  A    between atoms: C_12  and  C_4 
REMARK    2  A    between atoms: N_16  and  C_5 
REMARK    3  A    between atoms: N_11  and  C_24 
REMARK    4  A    between atoms: C_27  and  N_16 
REMARK    5  A    between atoms: C_24  and  C_25 
REMARK    6  A    between atoms: C_25  and  C_27 
ROOT
ATOM      1  N   UNL d   1      49.143  35.209  52.905  0.00  0.00    -0.195 N 
ATOM      2  C   UNL d   1      48.448  35.259  52.457  0.00  0.00     0.167 A 
ATOM      3  N   UNL d   1      49.017  35.615  53.602  0.00  0.00    -0.163 NA
ATOM      4  C   UNL d   1      47.909  35.695  52.889  0.00  0.00     0.055 A 
ATOM      5  C   UNL d   1      49.789  34.800  52.610  0.00  0.00     0.167 A 
ATOM      6  C   UNL d   1      48.251  35.912  53.583  0.00  0.00     0.104 A 
ATOM      7  N   UNL d   1      48.411  34.900  51.722  0.00  0.00    -0.227 NA
ATOM      8  C   UNL d   1      49.748  34.436  51.863  0.00  0.00     0.058 A 
ATOM      9  C   UNL d   1      49.068  34.485  51.425  0.00  0.00     0.086 A 
ATOM     10  C   UNL d   1      47.886  36.360  54.176  0.00  0.00     0.023 C 
ATOM     11  C   UNL d   1      49.031  34.116  50.672  0.00  0.00     0.021 C 
ENDROOT
BRANCH   5  12
ATOM     12  N   UNL d   1      50.483  34.749  53.057  0.00  0.00    -0.225 NA
BRANCH  12  13
ATOM     13  C   UNL d   1      51.014  34.140  52.918  0.00  0.00     0.102 C 
BRANCH  13  14
ATOM     14  C   UNL d   1      51.668  34.042  53.417  0.00  0.00     0.040 C 
BRANCH  14  15
ATOM     15  C   UNL d   1      52.341  33.650  53.148  0.00  0.00     0.083 C 
BRANCH  15  16
ATOM     16  N   UNL d   1      52.920  33.408  53.680  0.00  0.00    -0.285 N 
ATOM     17  C   UNL d   1      53.164  33.701  54.413  0.00  0.00     0.183 A 
ATOM     18  N   UNL d   1      53.770  33.229  54.688  0.00  0.00    -0.222 NA
ATOM     19  C   UNL d   1      53.912  32.644  54.140  0.00  0.00     0.120 A 
ATOM     20  C   UNL d   1      53.385  32.751  53.511  0.00  0.00     0.102 A 
ENDBRANCH  15  16
ENDBRANCH  14  15
ENDBRANCH  13  14
ENDBRANCH  12  13
ENDBRANCH   5  12
BRANCH   4  21
ATOM     21  C   UNL d   1      47.128  35.923  52.721  0.00  0.00     0.004 A 
ATOM     22  C   UNL d   1      46.974  36.482  52.135  0.00  0.00     0.001 A 
ATOM     23  C   UNL d   1      46.201  36.709  51.966  0.00  0.00     0.011 A 
ATOM     24  C   UNL d   1      45.579  36.372  52.389  0.00  0.00     0.058 A 
ATOM     25  C   UNL d   1      45.733  35.810  52.978  0.00  0.00     0.011 A 
ATOM     26 CL   UNL d   1      44.792  36.606  52.214  0.00  0.00    -0.082 Cl
ATOM     27  C   UNL d   1      46.505  35.585  53.144  0.00  0.00     0.001 A 
ENDBRANCH   4  21
TORSDOF 6
ENDMDL
MODEL 4
REMARK VINA RESULT:      -5.5      1.559      2.401
REMARK  6 active torsions:
REMARK  status: ('A' for Active; 'I' for Inactive)
REMARK    1  A    between atoms: C_12  and  C_4 
REMARK    2  A    between atoms: N_16  and  C_5 
REMARK    3  A    between atoms: N_11  and  C_24 
REMARK    4  A    between atoms: C_27  and  N_16 
REMARK    5  A    between atoms: C_24  and  C_25 
REMARK    6  A    between atoms: C_25  and  C_27 
ROOT
ATOM      1  N   UNL d   1      51.156  33.286  53.215  0.00  0.00    -0.195 N 
ATOM      2  C   UNL d   1      51.950  33.053  53.186  0.00  0.00     0.167 A 
ATOM      3  N   UNL d   1      50.706  32.612  53.319  0.00  0.00    -0.163 NA
ATOM      4  C   UNL d   1      51.971  32.241  53.272  0.00  0.00     0.055 A 
ATOM      5  C   UNL d   1      50.961  34.078  53.143  0.00  0.00     0.167 A 
ATOM      6  C   UNL d   1      51.219  31.971  53.353  0.00  0.00     0.104 A 
ATOM      7  N   UNL d   1      52.536  33.617  53.085  0.00  0.00    -0.227 NA
ATOM      8  C   UNL d   1      51.558  34.648  53.041  0.00  0.00     0.058 A 
ATOM      9  C   UNL d   1      52.335  34.420  53.012  0.00  0.00     0.086 A 
ATOM     10  C   UNL d   1      51.003  31.178  53.454  0.00  0.00     0.023 C 
ATOM     11  C   UNL d   1      52.935  34.999  52.909  0.00  0.00     0.021 C 
ENDROOT
BRANCH   5  12
ATOM     12  N   UNL d   1      50.167  34.311  53.172  0.00  0.00    -0.225 NA
BRANCH  12  13
ATOM     13  C   UNL d   1      49.870  34.819  52.601  0.00  0.00     0.102 C 
BRANCH  13  14
ATOM     14  C   UNL d   1      49.132  35.176  52.712  0.00  0.00     0.040 C 
BRANCH  14  15
ATOM     15  C   UNL d   1      48.622  35.284  52.074  0.00  0.00     0.083 C 
BRANCH  15  16
ATOM     16  N   UNL d   1      47.929  35.718  52.165  0.00  0.00    -0.285 N 
ATOM     17  C   UNL d   1      47.674  36.251  52.743  0.00  0.00     0.183 A 
ATOM     18  N   UNL d   1      46.929  36.511  52.540  0.00  0.00    -0.222 NA
ATOM     19  C   UNL d   1      46.709  36.152  51.843  0.00  0.00     0.120 A 
ATOM     20  C   UNL d   1      47.329  35.658  51.606  0.00  0.00     0.102 A 
ENDBRANCH  15  16
ENDBRANCH  14  15
ENDBRANCH  13  14
ENDBRANCH  12  13
ENDBRANCH   5  12
BRANCH   4  21
ATOM     21  C   UNL d   1      52.608  31.708  53.286  0.00  0.00     0.004 A 
ATOM     22  C   UNL d   1      52.739  31.199  52.651  0.00  0.00     0.001 A 
ATOM     23  C   UNL d   1      53.369  30.669  52.662  0.00  0.00     0.011 A 
ATOM     24  C   UNL d   1      53.871  30.651  53.316  0.00  0.00     0.058 A 
ATOM     25  C   UNL d   1      53.740  31.163  53.955  0.00  0.00     0.011 A 
ATOM     26 CL   UNL d   1      54.513  30.110  53.324  0.00  0.00    -0.082 Cl
ATOM     27  C   UNL d   1      53.110  31.690  53.941  0.00  0.00     0.001 A 
ENDBRANCH   4  21
TORSDOF 6
ENDMDL
MODEL 5
REMARK VINA RESULT:      -5.4      9.693     11.278
REMARK  6 active torsions:
REMARK  status: ('A' for Active; 'I' for Inactive)
REMARK    1  A    between atoms: C_12  and  C_4 
REMARK    2  A    between atoms: N_16  and  C_5 
REMARK    3  A    between atoms: N_11  and  C_24 
REMARK    4  A    between atoms: C_27  and  N_16 
REMARK    5  A    between atoms: C_24  and  C_25 
REMARK    6  A    between atoms: C_25  and  C_27 
ROOT
ATOM      1  N   UNL d   1      44.956  27.430  57.052  0.00  0.00    -0.195 N 
ATOM      2  C   UNL d   1      44.892  27.853  57.761  0.00  0.00     0.167 A 
ATOM      3  N   UNL d   1      45.057  27.973  56.450  0.00  0.00    -0.163 NA
ATOM      4  C   UNL d   1      44.956  28.647  57.580  0.00  0.00     0.055 A 
ATOM      5  C   UNL d   1      44.911  26.612  57.060  0.00  0.00     0.167 A 
ATOM      6  C   UNL d   1      45.056  28.722  56.786  0.00  0.00     0.104 A 
ATOM      7  N   UNL d   1      44.786  27.450  58.466  0.00  0.00    -0.227 NA
ATOM      8  C   UNL d   1      44.803  26.206  57.778  0.00  0.00     0.058 A 
ATOM      9  C   UNL d   1      44.741  26.620  58.472  0.00  0.00     0.086 A 
ATOM     10  C   UNL d   1      45.143  29.439  56.381  0.00  0.00     0.023 C 
ATOM     11  C   UNL d   1      44.632  26.206  59.195  0.00  0.00     0.021 C 
ENDROOT
BRANCH   5  12
ATOM     12  N   UNL d   1      44.975  26.189  56.351  0.00  0.00    -0.225 NA
BRANCH  12  13
ATOM     13  C   UNL d   1      44.799  25.388  56.338  0.00  0.00     0.102 C 
BRANCH  13  14
ATOM     14  C   UNL d   1      44.888  24.960  55.635  0.00  0.00     0.040 C 
BRANCH  14  15
ATOM     15  C   UNL d   1      44.593  24.193  55.575  0.00  0.00     0.083 C 
BRANCH  15  16
ATOM     16  N   UNL d   1      44.795  23.719  54.933  0.00  0.00    -0.285 N 
ATOM     17  C   UNL d   1      44.794  23.853  54.117  0.00  0.00     0.183 A 
ATOM     18  N   UNL d   1      45.052  23.173  53.747  0.00  0.00    -0.222 NA
ATOM     19  C   UNL d   1      45.216  22.614  54.315  0.00  0.00     0.120 A 
ATOM     20  C   UNL d   1      45.057  22.950  55.055  0.00  0.00     0.102 A 
ENDBRANCH  15  16
ENDBRANCH  14  15
ENDBRANCH  13  14
ENDBRANCH  12  13
ENDBRANCH   5  12
BRANCH   4  21
ATOM     21  C   UNL d   1      44.934  29.322  58.063  0.00  0.00     0.004 A 
ATOM     22  C   UNL d   1      44.341  29.886  57.962  0.00  0.00     0.001 A 
ATOM     23  C   UNL d   1      44.316  30.557  58.439  0.00  0.00     0.011 A 
ATOM     24  C   UNL d   1      44.891  30.661  59.021  0.00  0.00     0.058 A 
ATOM     25  C   UNL d   1      45.487  30.095  59.122  0.00  0.00     0.011 A 
ATOM     26 CL   UNL d   1      44.862  31.346  59.505  0.00  0.00    -0.082 Cl
ATOM     27  C   UNL d   1      45.509  29.427  58.644  0.00  0.00     0.001 A 
ENDBRANCH   4  21
TORSDOF 6
ENDMDL
MODEL 6
REMARK VINA RESULT:      -4.7      2.468      5.638
REMARK  6 active torsions:
REMARK  status: ('A' for Active; 'I' for Inactive)
REMARK    1  A    between atoms: C_12  and  C_4 
REMARK    2  A    between atoms: N_16  and  C_5 
REMARK    3  A    between atoms: N_11  and  C_24 
REMARK    4  A    between atoms: C_27  and  N_16 
REMARK    5  A    between atoms: C_24  and  C_25 
REMARK    6  A    between atoms: C_25  and  C_27 
ROOT
ATOM      1  N   UNL d   1      51.252  33.854  52.697  0.00  0.00    -0.195 N 
ATOM      2  C   UNL d   1      50.876  34.526  53.000  0.00  0.00     0.167 A 
ATOM      3  N   UNL d   1      50.706  33.450  52.242  0.00  0.00    -0.163 NA
ATOM      4  C   UNL d   1      50.106  34.522  52.725  0.00  0.00     0.055 A 
ATOM      5  C   UNL d   1      52.037  33.709  52.881  0.00  0.00     0.167 A 
ATOM      6  C   UNL d   1      50.001  33.872  52.266  0.00  0.00     0.104 A 
ATOM      7  N   UNL d   1      51.291  35.042  53.482  0.00  0.00    -0.227 NA
ATOM      8  C   UNL d   1      52.456  34.235  53.370  0.00  0.00     0.058 A 
ATOM      9  C   UNL d   1      52.088  34.892  53.667  0.00  0.00     0.086 A 
ATOM     10  C   UNL d   1      49.296  33.666  51.883  0.00  0.00     0.023 C 
ATOM     11  C   UNL d   1      52.515  35.421  54.161  0.00  0.00     0.021 C 
ENDROOT
BRANCH   5  12
ATOM     12  N   UNL d   1      52.413  33.036  52.577  0.00  0.00    -0.225 NA
BRANCH  12  13
ATOM     13  C   UNL d   1      52.862  32.563  53.074  0.00  0.00     0.102 C 
BRANCH  13  14
ATOM     14  C   UNL d   1      52.914  31.749  52.929  0.00  0.00     0.040 C 
BRANCH  14  15
ATOM     15  C   UNL d   1      53.381  31.270  53.410  0.00  0.00     0.083 C 
BRANCH  15  16
ATOM     16  N   UNL d   1      53.195  30.475  53.511  0.00  0.00    -0.285 N 
ATOM     17  C   UNL d   1      52.649  29.977  53.140  0.00  0.00     0.183 A 
ATOM     18  N   UNL d   1      52.712  29.236  53.475  0.00  0.00    -0.222 NA
ATOM     19  C   UNL d   1      53.287  29.258  54.050  0.00  0.00     0.120 A 
ATOM     20  C   UNL d   1      53.590  30.028  54.076  0.00  0.00     0.102 A 
ENDBRANCH  15  16
ENDBRANCH  14  15
ENDBRANCH  13  14
ENDBRANCH  12  13
ENDBRANCH   5  12
BRANCH   4  21
ATOM     21  C   UNL d   1      49.478  35.052  52.847  0.00  0.00     0.004 A 
ATOM     22  C   UNL d   1      49.220  35.224  53.611  0.00  0.00     0.001 A 
ATOM     23  C   UNL d   1      48.598  35.748  53.734  0.00  0.00     0.011 A 
ATOM     24  C   UNL d   1      48.232  36.103  53.085  0.00  0.00     0.058 A 
ATOM     25  C   UNL d   1      48.491  35.930  52.317  0.00  0.00     0.011 A 
ATOM     26 CL   UNL d   1      47.598  36.637  53.215  0.00  0.00    -0.082 Cl
ATOM     27  C   UNL d   1      49.113  35.406  52.198  0.00  0.00     0.001 A 
ENDBRANCH   4  21
TORSDOF 6
ENDMDL
MODEL 7
REMARK VINA RESULT:      -4.6      2.736      6.495
REMARK  6 active torsions:
REMARK  status: ('A' for Active; 'I' for Inactive)
REMARK    1  A    between atoms: C_12  and  C_4 
REMARK    2  A    between atoms: N_16  and  C_5 
REMARK    3  A    between atoms: N_11  and  C_24 
REMARK    4  A    between atoms: C_27  and  N_16 
REMARK    5  A    between atoms: C_24  and  C_25 
REMARK    6  A    between atoms: C_25  and  C_27 
ROOT
ATOM      1  N   UNL d   1      48.653  35.205  52.380  0.00  0.00    -0.195 N 
ATOM      2  C   UNL d   1      47.954  35.593  52.595  0.00  0.00     0.167 A 
ATOM      3  N   UNL d   1      48.541  34.892  51.634  0.00  0.00    -0.163 NA
ATOM      4  C   UNL d   1      47.426  35.509  51.977  0.00  0.00     0.055 A 
ATOM      5  C   UNL d   1      49.289  35.196  52.896  0.00  0.00     0.167 A 
ATOM      6  C   UNL d   1      47.780  35.085  51.393  0.00  0.00     0.104 A 
ATOM      7  N   UNL d   1      47.902  35.964  53.324  0.00  0.00    -0.227 NA
ATOM      8  C   UNL d   1      49.233  35.574  53.635  0.00  0.00     0.058 A 
ATOM      9  C   UNL d   1      48.549  35.953  53.846  0.00  0.00     0.086 A 
ATOM     10  C   UNL d   1      47.428  34.880  50.672  0.00  0.00     0.023 C 
ATOM     11  C   UNL d   1      48.498  36.333  54.593  0.00  0.00     0.021 C 
ENDROOT
BRANCH   5  12
ATOM     12  N   UNL d   1      49.989  34.809  52.681  0.00  0.00    -0.225 NA
BRANCH  12  13
ATOM     13  C   UNL d   1      50.378  34.338  53.228  0.00  0.00     0.102 C 
BRANCH  13  14
ATOM     14  C   UNL d   1      51.155  34.093  53.079  0.00  0.00     0.040 C 
BRANCH  14  15
ATOM     15  C   UNL d   1      51.428  33.375  53.375  0.00  0.00     0.083 C 
BRANCH  15  16
ATOM     16  N   UNL d   1      52.224  33.174  53.311  0.00  0.00    -0.285 N 
ATOM     17  C   UNL d   1      52.918  33.622  53.351  0.00  0.00     0.183 A 
ATOM     18  N   UNL d   1      53.552  33.119  53.247  0.00  0.00    -0.222 NA
ATOM     19  C   UNL d   1      53.269  32.363  53.143  0.00  0.00     0.120 A 
ATOM     20  C   UNL d   1      52.443  32.393  53.182  0.00  0.00     0.102 A 
ENDBRANCH  15  16
ENDBRANCH  14  15
ENDBRANCH  13  14
ENDBRANCH  12  13
ENDBRANCH   5  12
BRANCH   4  21
ATOM     21  C   UNL d   1      46.646  35.779  51.882  0.00  0.00     0.004 A 
ATOM     22  C   UNL d   1      46.489  36.439  51.414  0.00  0.00     0.001 A 
ATOM     23  C   UNL d   1      45.717  36.709  51.318  0.00  0.00     0.011 A 
ATOM     24  C   UNL d   1      45.100  36.313  51.694  0.00  0.00     0.058 A 
ATOM     25  C   UNL d   1      45.258  35.649  52.164  0.00  0.00     0.011 A 
ATOM     26 CL   UNL d   1      44.314  36.591  51.594  0.00  0.00    -0.082 Cl
ATOM     27  C   UNL d   1      46.029  35.383  52.259  0.00  0.00     0.001 A 
ENDBRANCH   4  21
TORSDOF 6
ENDMDL
