MODEL 1
REMARK VINA RESULT:      -3.7      0.000      0.000
REMARK  3 active torsions:
REMARK  status: ('A' for Active; 'I' for Inactive)
REMARK    1  A    between atoms: S_3  and  N_1 
REMARK    2  A    between atoms: C_7  and  C_4 
REMARK    3  A    between atoms: C_12  and  C_5 
ROOT
ATOM      1  N   UNL d   1      58.614  -0.710  29.104  0.00  0.00    -0.155 N 
ATOM      2  N   UNL d   1      59.075  -1.241  28.689  0.00  0.00    -0.156 NA
ATOM      3  C   UNL d   1      58.530  -0.981  29.864  0.00  0.00     0.096 A 
ATOM      4  C   UNL d   1      59.275  -1.845  29.203  0.00  0.00     0.103 A 
ATOM      5  C   UNL d   1      58.944  -1.693  29.929  0.00  0.00     0.041 A 
ENDROOT
BRANCH   3   6
ATOM      6  C   UNL d   1      58.106  -0.613  30.472  0.00  0.00     0.020 A 
ATOM      7  C   UNL d   1      57.503  -1.022  30.862  0.00  0.00     0.022 A 
ATOM      8  C   UNL d   1      57.080  -0.654  31.469  0.00  0.00     0.099 A 
ATOM      9  N   UNL d   1      56.478  -1.062  31.858  0.00  0.00    -0.241 NA
ATOM     10  C   UNL d   1      57.259   0.118  31.685  0.00  0.00     0.099 A 
ATOM     11  C   UNL d   1      56.076  -0.693  32.445  0.00  0.00     0.120 A 
ATOM     12  C   UNL d   1      56.255   0.078  32.660  0.00  0.00     0.120 A 
ATOM     13  N   UNL d   1      56.837   0.486  32.291  0.00  0.00    -0.241 NA
ATOM     14  C   UNL d   1      57.862   0.526  31.295  0.00  0.00     0.021 A 
ATOM     15  C   UNL d   1      58.285   0.158  30.688  0.00  0.00     0.003 A 
ENDBRANCH   3   6
BRANCH   1  16
ATOM     16  S   UNL d   1      58.277   0.002  28.806  0.00  0.00     0.266 S 
ATOM     17  O   UNL d   1      57.581  -0.441  28.611  0.00  0.00    -0.203 OA
ATOM     18  O   UNL d   1      57.921   0.682  28.507  0.00  0.00    -0.203 OA
ATOM     19  C   UNL d   1      58.954   0.414  28.999  0.00  0.00     0.165 C 
ENDBRANCH   1  16
BRANCH   4  20
ATOM     20  C   UNL d   1      59.732  -2.494  29.017  0.00  0.00     0.019 A 
ATOM     21  C   UNL d   1      59.390  -3.188  28.772  0.00  0.00     0.002 A 
ATOM     22  C   UNL d   1      59.847  -3.863  28.578  0.00  0.00     0.000 A 
ATOM     23  C   UNL d   1      60.673  -3.814  28.640  0.00  0.00     0.000 A 
ATOM     24  C   UNL d   1      61.008  -3.095  28.892  0.00  0.00     0.000 A 
ATOM     25  C   UNL d   1      61.129  -4.459  28.455  0.00  0.00     0.000 C 
ATOM     26  C   UNL d   1      60.559  -2.450  29.077  0.00  0.00     0.002 A 
ENDBRANCH   4  20
TORSDOF 3
ENDMDL
MODEL 2
REMARK VINA RESULT:      -1.4      0.963      4.558
REMARK  3 active torsions:
REMARK  status: ('A' for Active; 'I' for Inactive)
REMARK    1  A    between atoms: S_3  and  N_1 
REMARK    2  A    between atoms: C_7  and  C_4 
REMARK    3  A    between atoms: C_12  and  C_5 
ROOT
ATOM      1  N   UNL d   1      58.135  -0.110  29.868  0.00  0.00    -0.155 N 
ATOM      2  N   UNL d   1      57.648   0.253  30.413  0.00  0.00    -0.156 NA
ATOM      3  C   UNL d   1      58.205  -0.894  30.067  0.00  0.00     0.096 A 
ATOM      4  C   UNL d   1      57.418  -0.316  30.953  0.00  0.00     0.103 A 
ATOM      5  C   UNL d   1      57.756  -1.026  30.747  0.00  0.00     0.041 A 
ENDROOT
BRANCH   3   6
ATOM      6  C   UNL d   1      58.647  -1.464  29.663  0.00  0.00     0.020 A 
ATOM      7  C   UNL d   1      59.463  -1.519  29.785  0.00  0.00     0.022 A 
ATOM      8  C   UNL d   1      59.903  -2.089  29.382  0.00  0.00     0.099 A 
ATOM      9  N   UNL d   1      60.718  -2.144  29.504  0.00  0.00    -0.241 NA
ATOM     10  C   UNL d   1      59.532  -2.601  28.859  0.00  0.00     0.099 A 
ATOM     11  C   UNL d   1      61.133  -2.701  29.106  0.00  0.00     0.120 A 
ATOM     12  C   UNL d   1      60.762  -3.213  28.583  0.00  0.00     0.120 A 
ATOM     13  N   UNL d   1      59.972  -3.171  28.455  0.00  0.00    -0.241 NA
ATOM     14  C   UNL d   1      58.717  -2.547  28.736  0.00  0.00     0.021 A 
ATOM     15  C   UNL d   1      58.275  -1.976  29.140  0.00  0.00     0.003 A 
ENDBRANCH   3   6
BRANCH   1  16
ATOM     16  S   UNL d   1      58.507   0.255  29.206  0.00  0.00     0.266 S 
ATOM     17  O   UNL d   1      57.872  -0.034  28.724  0.00  0.00    -0.203 OA
ATOM     18  O   UNL d   1      58.847   0.601  28.541  0.00  0.00    -0.203 OA
ATOM     19  C   UNL d   1      59.110   0.526  29.684  0.00  0.00     0.165 C 
ENDBRANCH   1  16
BRANCH   4  20
ATOM     20  C   UNL d   1      56.928  -0.193  31.593  0.00  0.00     0.019 A 
ATOM     21  C   UNL d   1      56.769  -0.793  32.117  0.00  0.00     0.002 A 
ATOM     22  C   UNL d   1      56.268  -0.681  32.780  0.00  0.00     0.000 A 
ATOM     23  C   UNL d   1      55.927   0.067  32.898  0.00  0.00     0.000 A 
ATOM     24  C   UNL d   1      56.101   0.670  32.352  0.00  0.00     0.000 A 
ATOM     25  C   UNL d   1      55.440   0.190  33.535  0.00  0.00     0.000 C 
ATOM     26  C   UNL d   1      56.585   0.553  31.716  0.00  0.00     0.002 A 
ENDBRANCH   4  20
TORSDOF 3
ENDMDL
