MODEL 1
REMARK VINA RESULT:       9.1      0.000      0.000
REMARK  4 active torsions:
REMARK  status: ('A' for Active; 'I' for Inactive)
REMARK    1  A    between atoms: O_7  and  C_2 
REMARK    2  A    between atoms: C_13  and  C_3 
REMARK    3  A    between atoms: C_11  and  O_7 
REMARK    4  A    between atoms: O_25  and  C_20 
ROOT
ATOM      1  C   UNL d   1      29.852  18.362 -24.561  0.00  0.00     0.066 A 
ATOM      2  C   UNL d   1      30.536  17.909 -24.542  0.00  0.00     0.186 A 
ATOM      3  C   UNL d   1      29.049  18.206 -24.347  0.00  0.00     0.012 A 
ATOM      4  C   UNL d   1      28.634  18.873 -24.494  0.00  0.00     0.037 A 
ATOM      5  C   UNL d   1      29.889  19.147 -24.840  0.00  0.00     0.116 A 
ATOM      6  S   UNL d   1      29.120  19.474 -24.799  0.00  0.00    -0.067 SA
ATOM      7  N   UNL d   1      31.247  18.239 -24.798  0.00  0.00    -0.200 NA
ATOM      8  N   UNL d   1      30.601  19.477 -25.096  0.00  0.00    -0.217 NA
ATOM      9  C   UNL d   1      31.275  19.022 -25.074  0.00  0.00     0.201 A 
ENDROOT
BRANCH   2  10
ATOM     10  O   UNL d   1      30.509  17.118 -24.263  0.00  0.00    -0.288 OA
BRANCH  10  11
ATOM     11  C   UNL d   1      31.171  16.596 -24.368  0.00  0.00     0.119 A 
ATOM     12  C   UNL d   1      31.849  16.624 -23.898  0.00  0.00     0.104 A 
ATOM     13  N   UNL d   1      31.895  17.199 -23.280  0.00  0.00    -0.244 NA
ATOM     14  C   UNL d   1      32.472  16.106 -24.025  0.00  0.00     0.020 A 
ATOM     15  C   UNL d   1      32.573  17.227 -22.811  0.00  0.00     0.082 A 
ATOM     16  C   UNL d   1      32.651  17.799 -22.174  0.00  0.00     0.021 C 
ATOM     17  C   UNL d   1      33.195  16.708 -22.938  0.00  0.00     0.019 A 
ATOM     18  C   UNL d   1      33.161  16.144 -23.538  0.00  0.00     0.003 A 
ATOM     19  C   UNL d   1      32.437  15.541 -24.626  0.00  0.00     0.002 A 
ATOM     20  C   UNL d   1      31.760  15.513 -25.095  0.00  0.00     0.002 A 
ATOM     21  C   UNL d   1      31.137  16.032 -24.968  0.00  0.00     0.026 A 
ENDBRANCH  10  11
ENDBRANCH   2  10
BRANCH   3  22
ATOM     22  C   UNL d   1      28.744  17.505 -24.043  0.00  0.00     0.001 A 
ATOM     23  C   UNL d   1      28.696  16.811 -24.498  0.00  0.00     0.002 A 
ATOM     24  C   UNL d   1      28.386  16.123 -24.169  0.00  0.00     0.024 A 
ATOM     25  C   UNL d   1      28.121  16.131 -23.371  0.00  0.00     0.094 A 
ATOM     26  C   UNL d   1      28.174  16.833 -22.921  0.00  0.00     0.024 A 
ATOM     27  C   UNL d   1      28.484  17.522 -23.251  0.00  0.00     0.002 A 
BRANCH  25  28
ATOM     28  O   UNL d   1      27.793  15.453 -22.978  0.00  0.00    -0.328 OA
ATOM     29  C   UNL d   1      27.051  15.515 -22.624  0.00  0.00     0.181 C 
ENDBRANCH  25  28
ENDBRANCH   3  22
TORSDOF 4
ENDMDL
MODEL 2
REMARK VINA RESULT:      11.7      3.558      5.235
REMARK  4 active torsions:
REMARK  status: ('A' for Active; 'I' for Inactive)
REMARK    1  A    between atoms: O_7  and  C_2 
REMARK    2  A    between atoms: C_13  and  C_3 
REMARK    3  A    between atoms: C_11  and  O_7 
REMARK    4  A    between atoms: O_25  and  C_20 
ROOT
ATOM      1  C   UNL d   1      32.954  21.793 -23.486  0.00  0.00     0.066 A 
ATOM      2  C   UNL d   1      32.863  20.978 -23.510  0.00  0.00     0.186 A 
ATOM      3  C   UNL d   1      32.899  22.362 -22.863  0.00  0.00     0.012 A 
ATOM      4  C   UNL d   1      33.046  23.078 -23.186  0.00  0.00     0.037 A 
ATOM      5  C   UNL d   1      33.141  22.205 -24.186  0.00  0.00     0.116 A 
ATOM      6  S   UNL d   1      33.200  23.019 -24.000  0.00  0.00    -0.067 SA
ATOM      7  N   UNL d   1      32.958  20.582 -24.227  0.00  0.00    -0.200 NA
ATOM      8  N   UNL d   1      33.235  21.809 -24.904  0.00  0.00    -0.217 NA
ATOM      9  C   UNL d   1      33.144  21.000 -24.921  0.00  0.00     0.201 A 
ENDROOT
BRANCH   2  10
ATOM     10  O   UNL d   1      32.676  20.553 -22.811  0.00  0.00    -0.288 OA
BRANCH  10  11
ATOM     11  C   UNL d   1      32.642  19.704 -22.812  0.00  0.00     0.119 A 
ATOM     12  C   UNL d   1      32.069  19.274 -23.222  0.00  0.00     0.104 A 
ATOM     13  N   UNL d   1      31.483  19.692 -23.665  0.00  0.00    -0.244 NA
ATOM     14  C   UNL d   1      32.064  18.455 -23.202  0.00  0.00     0.020 A 
ATOM     15  C   UNL d   1      30.911  19.262 -24.074  0.00  0.00     0.082 A 
ATOM     16  C   UNL d   1      30.301  19.656 -24.534  0.00  0.00     0.021 C 
ATOM     17  C   UNL d   1      30.905  18.442 -24.054  0.00  0.00     0.019 A 
ATOM     18  C   UNL d   1      31.472  18.024 -23.625  0.00  0.00     0.003 A 
ATOM     19  C   UNL d   1      32.631  18.037 -22.773  0.00  0.00     0.002 A 
ATOM     20  C   UNL d   1      33.203  18.467 -22.364  0.00  0.00     0.002 A 
ATOM     21  C   UNL d   1      33.209  19.287 -22.383  0.00  0.00     0.026 A 
ENDBRANCH  10  11
ENDBRANCH   2  10
BRANCH   3  22
ATOM     22  C   UNL d   1      32.726  22.216 -22.072  0.00  0.00     0.001 A 
ATOM     23  C   UNL d   1      33.240  21.787 -21.580  0.00  0.00     0.002 A 
ATOM     24  C   UNL d   1      33.041  21.655 -20.791  0.00  0.00     0.024 A 
ATOM     25  C   UNL d   1      32.316  21.958 -20.492  0.00  0.00     0.094 A 
ATOM     26  C   UNL d   1      31.805  22.389 -20.995  0.00  0.00     0.024 A 
ATOM     27  C   UNL d   1      32.004  22.520 -21.785  0.00  0.00     0.002 A 
BRANCH  25  28
ATOM     28  O   UNL d   1      32.058  21.855 -19.690  0.00  0.00    -0.328 OA
ATOM     29  C   UNL d   1      32.561  22.079 -19.075  0.00  0.00     0.181 C 
ENDBRANCH  25  28
ENDBRANCH   3  22
TORSDOF 4
ENDMDL
