MODEL 1
REMARK VINA RESULT:      42.4      0.000      0.000
REMARK  5 active torsions:
REMARK  status: ('A' for Active; 'I' for Inactive)
REMARK    1  A    between atoms: N_7  and  C_1 
REMARK    2  A    between atoms: O_17  and  C_5 
REMARK    3  A    between atoms: C_10  and  N_7 
REMARK    4  A    between atoms: O_18  and  C_8 
REMARK    5  A    between atoms: O_19  and  C_9 
ROOT
ATOM      1  C   UNL d   1     -49.628  26.400  33.696  0.00  0.00     0.139 A 
ATOM      2  C   UNL d   1     -50.260  26.918  33.584  0.00  0.00     0.120 A 
ATOM      3  C   UNL d   1     -49.763  25.574  33.681  0.00  0.00     0.120 A 
ATOM      4  C   UNL d   1     -51.146  25.808  33.446  0.00  0.00     0.087 A 
ATOM      5  C   UNL d   1     -50.525  25.282  33.556  0.00  0.00     0.045 A 
ATOM      6  C   UNL d   1     -51.033  26.625  33.457  0.00  0.00     0.045 A 
ENDROOT
BRANCH   4   7
ATOM      7  N   UNL d   1     -51.912  25.509  33.320  0.00  0.00    -0.226 NA
BRANCH   7   8
ATOM      8  C   UNL d   1     -52.070  24.715  33.456  0.00  0.00     0.169 A 
ATOM      9  C   UNL d   1     -52.797  24.471  33.598  0.00  0.00     0.094 A 
ATOM     10  C   UNL d   1     -52.949  23.710  33.728  0.00  0.00     0.190 A 
ATOM     11  C   UNL d   1     -54.121  24.758  33.751  0.00  0.00     0.128 A 
ATOM     12  N   UNL d   1     -53.681  23.480  33.869  0.00  0.00    -0.128 NA
ATOM     13  N   UNL d   1     -52.374  23.193  33.717  0.00  0.00    -0.203 NA
ATOM     14  N   UNL d   1     -54.262  23.989  33.882  0.00  0.00    -0.145 NA
ATOM     15  C   UNL d   1     -51.625  23.419  33.575  0.00  0.00     0.202 A 
ATOM     16  N   UNL d   1     -51.473  24.180  33.444  0.00  0.00    -0.205 NA
ENDBRANCH   7   8
ENDBRANCH   4   7
BRANCH   3  17
ATOM     17  O   UNL d   1     -49.128  25.047  33.794  0.00  0.00    -0.326 OA
ATOM     18  C   UNL d   1     -49.110  24.328  33.376  0.00  0.00     0.181 C 
ENDBRANCH   3  17
BRANCH   2  19
ATOM     19  O   UNL d   1     -50.132  27.740  33.597  0.00  0.00    -0.326 OA
ATOM     20  C   UNL d   1     -50.525  28.214  34.159  0.00  0.00     0.181 C 
ENDBRANCH   2  19
BRANCH   1  21
ATOM     21  O   UNL d   1     -48.861  26.686  33.822  0.00  0.00    -0.324 OA
ATOM     22  C   UNL d   1     -48.731  27.268  34.412  0.00  0.00     0.182 C 
ENDBRANCH   1  21
TORSDOF 5
ENDMDL
