MODEL 1
REMARK VINA RESULT:      18.4      0.000      0.000
REMARK  1 active torsions:
REMARK  status: ('A' for Active; 'I' for Inactive)
REMARK    1  A    between atoms: C_12  and  N_4 
ROOT
ATOM      1  C   UNL d   1     -51.564  25.402  33.307  0.00  0.00     0.081 A 
ATOM      2  C   UNL d   1     -52.013  26.055  33.307  0.00  0.00     0.118 A 
ATOM      3  C   UNL d   1     -50.736  25.465  33.307  0.00  0.00     0.268 A 
ATOM      4  N   UNL d   1     -50.394  26.210  33.306  0.00  0.00    -0.249 N 
ATOM      5  N   UNL d   1     -51.671  26.790  33.307  0.00  0.00    -0.212 NA
ATOM      6  C   UNL d   1     -50.830  26.869  33.306  0.00  0.00     0.209 A 
ATOM      7  S   UNL d   1     -52.819  25.869  33.308  0.00  0.00    -0.068 SA
ATOM      8  C   UNL d   1     -52.089  24.754  33.308  0.00  0.00     0.013 A 
ATOM      9  C   UNL d   1     -52.877  25.043  33.308  0.00  0.00     0.031 A 
ATOM     10  S   UNL d   1     -50.444  27.604  33.306  0.00  0.00    -0.038 SA
ATOM     11  O   UNL d   1     -50.246  24.798  33.307  0.00  0.00    -0.267 OA
ATOM     12  C   UNL d   1     -51.784  24.009  33.308  0.00  0.00     0.001 A 
ATOM     13  C   UNL d   1     -53.551  24.576  33.308  0.00  0.00     0.006 A 
ATOM     14  C   UNL d   1     -52.225  23.293  33.308  0.00  0.00     0.000 A 
ATOM     15  C   UNL d   1     -53.630  23.768  33.309  0.00  0.00     0.001 A 
ATOM     16  C   UNL d   1     -53.043  23.188  33.309  0.00  0.00     0.000 A 
ENDROOT
BRANCH   4  17
ATOM     17  C   UNL d   1     -49.548  26.284  33.306  0.00  0.00     0.085 C 
ATOM     18  C   UNL d   1     -49.083  25.610  33.329  0.00  0.00     0.021 C 
ENDBRANCH   4  17
TORSDOF 1
ENDMDL
MODEL 2
REMARK VINA RESULT:      19.3      1.521      3.578
REMARK  1 active torsions:
REMARK  status: ('A' for Active; 'I' for Inactive)
REMARK    1  A    between atoms: C_12  and  N_4 
ROOT
ATOM      1  C   UNL d   1     -51.703  25.303  33.308  0.00  0.00     0.081 A 
ATOM      2  C   UNL d   1     -51.303  24.619  33.307  0.00  0.00     0.118 A 
ATOM      3  C   UNL d   1     -52.534  25.302  33.310  0.00  0.00     0.268 A 
ATOM      4  N   UNL d   1     -52.929  24.584  33.309  0.00  0.00    -0.249 N 
ATOM      5  N   UNL d   1     -51.699  23.910  33.307  0.00  0.00    -0.212 NA
ATOM      6  C   UNL d   1     -52.544  23.895  33.308  0.00  0.00     0.209 A 
ATOM      7  S   UNL d   1     -50.487  24.744  33.306  0.00  0.00    -0.068 SA
ATOM      8  C   UNL d   1     -51.131  25.910  33.308  0.00  0.00     0.013 A 
ATOM      9  C   UNL d   1     -50.367  25.564  33.307  0.00  0.00     0.031 A 
ATOM     10  S   UNL d   1     -52.984  23.190  33.308  0.00  0.00    -0.038 SA
ATOM     11  O   UNL d   1     -52.972  26.003  33.311  0.00  0.00    -0.267 OA
ATOM     12  C   UNL d   1     -51.380  26.676  33.310  0.00  0.00     0.001 A 
ATOM     13  C   UNL d   1     -49.660  25.979  33.307  0.00  0.00     0.006 A 
ATOM     14  C   UNL d   1     -50.887  27.357  33.310  0.00  0.00     0.000 A 
ATOM     15  C   UNL d   1     -49.521  26.779  33.307  0.00  0.00     0.001 A 
ATOM     16  C   UNL d   1     -50.063  27.401  33.309  0.00  0.00     0.000 A 
ENDROOT
BRANCH   4  17
ATOM     17  C   UNL d   1     -53.779  24.573  33.310  0.00  0.00     0.085 C 
ATOM     18  C   UNL d   1     -54.174  23.855  33.306  0.00  0.00     0.021 C 
ENDBRANCH   4  17
TORSDOF 1
ENDMDL
