MODEL 1
REMARK VINA RESULT:      -7.3      0.000      0.000
REMARK  5 active torsions:
REMARK  status: ('A' for Active; 'I' for Inactive)
REMARK    1  A    between atoms: S_9  and  C_3 
REMARK    2  A    between atoms: C_14  and  S_9 
REMARK    3  A    between atoms: C_10  and  C_11 
REMARK    4  A    between atoms: C_12  and  C_10 
REMARK    5  A    between atoms: C_11  and  C_14 
ROOT
ATOM      1  S   UNL d   1      51.980  33.502  53.019  0.00  0.00    -0.046 SA
ENDROOT
BRANCH   1   2
ATOM      2  C   UNL d   1      52.620  33.436  53.537  0.00  0.00     0.220 A 
ATOM      3  N   UNL d   1      53.132  32.789  53.483  0.00  0.00    -0.149 N 
ATOM      4  C   UNL d   1      53.779  32.714  54.000  0.00  0.00     0.303 A 
ATOM      5  N   UNL d   1      53.004  32.207  52.912  0.00  0.00    -0.037 N 
ATOM      6  C   UNL d   1      53.899  33.305  54.572  0.00  0.00     0.161 A 
ATOM      7  O   UNL d   1      54.285  32.073  53.947  0.00  0.00    -0.263 OA
ATOM      8  C   UNL d   1      54.538  33.240  55.089  0.00  0.00     0.028 C 
ATOM      9  N   UNL d   1      53.387  33.953  54.625  0.00  0.00    -0.141 NA
ATOM     10  N   UNL d   1      52.750  34.015  54.107  0.00  0.00    -0.121 NA
ENDBRANCH   1   2
BRANCH   1  11
ATOM     11  C   UNL d   1      51.409  34.080  53.142  0.00  0.00     0.038 C 
BRANCH  11  12
ATOM     12  C   UNL d   1      50.784  34.150  52.614  0.00  0.00     0.007 C 
BRANCH  12  13
ATOM     13  C   UNL d   1      50.086  34.527  52.841  0.00  0.00     0.001 C 
BRANCH  13  14
ATOM     14  C   UNL d   1      49.497  34.667  52.275  0.00  0.00     0.000 A 
ATOM     15  C   UNL d   1      49.548  34.333  51.529  0.00  0.00     0.000 A 
ATOM     16  C   UNL d   1      48.948  34.482  50.967  0.00  0.00     0.000 A 
ATOM     17  C   UNL d   1      48.316  34.958  51.168  0.00  0.00     0.000 A 
ATOM     18  C   UNL d   1      48.264  35.294  51.918  0.00  0.00     0.000 A 
ATOM     19  C   UNL d   1      48.854  35.150  52.476  0.00  0.00     0.000 A 
ENDBRANCH  13  14
ENDBRANCH  12  13
ENDBRANCH  11  12
ENDBRANCH   1  11
TORSDOF 5
ENDMDL
MODEL 2
REMARK VINA RESULT:      -6.9      2.641      5.013
REMARK  5 active torsions:
REMARK  status: ('A' for Active; 'I' for Inactive)
REMARK    1  A    between atoms: S_9  and  C_3 
REMARK    2  A    between atoms: C_14  and  S_9 
REMARK    3  A    between atoms: C_10  and  C_11 
REMARK    4  A    between atoms: C_12  and  C_10 
REMARK    5  A    between atoms: C_11  and  C_14 
ROOT
ATOM      1  S   UNL d   1      50.440  34.251  52.602  0.00  0.00    -0.046 SA
ENDROOT
BRANCH   1   2
ATOM      2  C   UNL d   1      49.760  34.717  52.629  0.00  0.00     0.220 A 
ATOM      3  N   UNL d   1      49.239  34.727  51.986  0.00  0.00    -0.149 N 
ATOM      4  C   UNL d   1      48.551  35.193  52.003  0.00  0.00     0.303 A 
ATOM      5  N   UNL d   1      49.399  34.272  51.317  0.00  0.00    -0.037 N 
ATOM      6  C   UNL d   1      48.399  35.649  52.682  0.00  0.00     0.161 A 
ATOM      7  O   UNL d   1      48.035  35.204  51.368  0.00  0.00    -0.263 OA
ATOM      8  C   UNL d   1      47.719  36.114  52.710  0.00  0.00     0.028 C 
ATOM      9  N   UNL d   1      48.920  35.638  53.325  0.00  0.00    -0.141 NA
ATOM     10  N   UNL d   1      49.597  35.172  53.294  0.00  0.00    -0.121 NA
ENDBRANCH   1   2
BRANCH   1  11
ATOM     11  C   UNL d   1      51.084  34.434  53.079  0.00  0.00     0.038 C 
BRANCH  11  12
ATOM     12  C   UNL d   1      51.685  33.883  53.178  0.00  0.00     0.007 C 
BRANCH  12  13
ATOM     13  C   UNL d   1      52.453  34.129  53.350  0.00  0.00     0.001 C 
BRANCH  13  14
ATOM     14  C   UNL d   1      52.992  33.588  53.671  0.00  0.00     0.000 A 
ATOM     15  C   UNL d   1      53.224  32.928  53.245  0.00  0.00     0.000 A 
ATOM     16  C   UNL d   1      53.767  32.390  53.579  0.00  0.00     0.000 A 
ATOM     17  C   UNL d   1      54.062  32.527  54.328  0.00  0.00     0.000 A 
ATOM     18  C   UNL d   1      53.829  33.189  54.757  0.00  0.00     0.000 A 
ATOM     19  C   UNL d   1      53.292  33.724  54.432  0.00  0.00     0.000 A 
ENDBRANCH  13  14
ENDBRANCH  12  13
ENDBRANCH  11  12
ENDBRANCH   1  11
TORSDOF 5
ENDMDL
MODEL 3
REMARK VINA RESULT:      -6.8      2.897      4.589
REMARK  5 active torsions:
REMARK  status: ('A' for Active; 'I' for Inactive)
REMARK    1  A    between atoms: S_9  and  C_3 
REMARK    2  A    between atoms: C_14  and  S_9 
REMARK    3  A    between atoms: C_10  and  C_11 
REMARK    4  A    between atoms: C_12  and  C_10 
REMARK    5  A    between atoms: C_11  and  C_14 
ROOT
ATOM      1  S   UNL d   1      53.062  33.088  53.211  0.00  0.00    -0.046 SA
ENDROOT
BRANCH   1   2
ATOM      2  C   UNL d   1      53.069  33.804  53.622  0.00  0.00     0.220 A 
ATOM      3  N   UNL d   1      52.472  34.362  53.495  0.00  0.00    -0.149 N 
ATOM      4  C   UNL d   1      52.471  35.085  53.905  0.00  0.00     0.303 A 
ATOM      5  N   UNL d   1      51.867  34.204  52.957  0.00  0.00    -0.037 N 
ATOM      6  C   UNL d   1      53.085  35.234  54.445  0.00  0.00     0.161 A 
ATOM      7  O   UNL d   1      51.880  35.637  53.779  0.00  0.00    -0.263 OA
ATOM      8  C   UNL d   1      53.093  35.949  54.857  0.00  0.00     0.028 C 
ATOM      9  N   UNL d   1      53.682  34.676  54.572  0.00  0.00    -0.141 NA
ATOM     10  N   UNL d   1      53.671  33.964  54.160  0.00  0.00    -0.121 NA
ENDBRANCH   1   2
BRANCH   1  11
ATOM     11  C   UNL d   1      53.493  32.447  53.491  0.00  0.00     0.038 C 
BRANCH  11  12
ATOM     12  C   UNL d   1      53.269  31.686  53.282  0.00  0.00     0.007 C 
BRANCH  12  13
ATOM     13  C   UNL d   1      53.761  31.045  53.450  0.00  0.00     0.001 C 
BRANCH  13  14
ATOM     14  C   UNL d   1      53.425  30.303  53.601  0.00  0.00     0.000 A 
ATOM     15  C   UNL d   1      52.853  29.995  53.102  0.00  0.00     0.000 A 
ATOM     16  C   UNL d   1      52.523  29.245  53.265  0.00  0.00     0.000 A 
ATOM     17  C   UNL d   1      52.773  28.827  53.920  0.00  0.00     0.000 A 
ATOM     18  C   UNL d   1      53.347  29.137  54.422  0.00  0.00     0.000 A 
ATOM     19  C   UNL d   1      53.677  29.876  54.266  0.00  0.00     0.000 A 
ENDBRANCH  13  14
ENDBRANCH  12  13
ENDBRANCH  11  12
ENDBRANCH   1  11
TORSDOF 5
ENDMDL
MODEL 4
REMARK VINA RESULT:      -6.7      3.467      5.528
REMARK  5 active torsions:
REMARK  status: ('A' for Active; 'I' for Inactive)
REMARK    1  A    between atoms: S_9  and  C_3 
REMARK    2  A    between atoms: C_14  and  S_9 
REMARK    3  A    between atoms: C_10  and  C_11 
REMARK    4  A    between atoms: C_12  and  C_10 
REMARK    5  A    between atoms: C_11  and  C_14 
ROOT
ATOM      1  S   UNL d   1      49.151  35.116  52.773  0.00  0.00    -0.046 SA
ENDROOT
BRANCH   1   2
ATOM      2  C   UNL d   1      48.439  35.300  52.399  0.00  0.00     0.220 A 
ATOM      3  N   UNL d   1      47.931  35.863  52.728  0.00  0.00    -0.149 N 
ATOM      4  C   UNL d   1      47.211  36.056  52.359  0.00  0.00     0.303 A 
ATOM      5  N   UNL d   1      48.135  36.242  53.432  0.00  0.00    -0.037 N 
ATOM      6  C   UNL d   1      47.015  35.668  51.650  0.00  0.00     0.161 A 
ATOM      7  O   UNL d   1      46.708  36.613  52.685  0.00  0.00    -0.263 OA
ATOM      8  C   UNL d   1      46.303  35.852  51.275  0.00  0.00     0.028 C 
ATOM      9  N   UNL d   1      47.523  35.105  51.320  0.00  0.00    -0.141 NA
ATOM     10  N   UNL d   1      48.232  34.924  51.697  0.00  0.00    -0.121 NA
ENDBRANCH   1   2
BRANCH   1  11
ATOM     11  C   UNL d   1      49.723  34.678  52.378  0.00  0.00     0.038 C 
BRANCH  11  12
ATOM     12  C   UNL d   1      50.396  34.435  52.779  0.00  0.00     0.007 C 
BRANCH  12  13
ATOM     13  C   UNL d   1      51.098  34.292  52.370  0.00  0.00     0.001 C 
BRANCH  13  14
ATOM     14  C   UNL d   1      51.760  34.010  52.782  0.00  0.00     0.000 A 
ATOM     15  C   UNL d   1      51.881  33.205  52.873  0.00  0.00     0.000 A 
ATOM     16  C   UNL d   1      52.552  32.933  53.290  0.00  0.00     0.000 A 
ATOM     17  C   UNL d   1      53.079  33.472  53.603  0.00  0.00     0.000 A 
ATOM     18  C   UNL d   1      52.957  34.281  53.511  0.00  0.00     0.000 A 
ATOM     19  C   UNL d   1      52.296  34.555  53.100  0.00  0.00     0.000 A 
ENDBRANCH  13  14
ENDBRANCH  12  13
ENDBRANCH  11  12
ENDBRANCH   1  11
TORSDOF 5
ENDMDL
MODEL 5
REMARK VINA RESULT:      -6.6      0.726      1.477
REMARK  5 active torsions:
REMARK  status: ('A' for Active; 'I' for Inactive)
REMARK    1  A    between atoms: S_9  and  C_3 
REMARK    2  A    between atoms: C_14  and  S_9 
REMARK    3  A    between atoms: C_10  and  C_11 
REMARK    4  A    between atoms: C_12  and  C_10 
REMARK    5  A    between atoms: C_11  and  C_14 
ROOT
ATOM      1  S   UNL d   1      51.633  33.783  53.201  0.00  0.00    -0.046 SA
ENDROOT
BRANCH   1   2
ATOM      2  C   UNL d   1      52.204  33.190  53.258  0.00  0.00     0.220 A 
ATOM      3  N   UNL d   1      52.764  33.211  53.866  0.00  0.00    -0.149 N 
ATOM      4  C   UNL d   1      53.344  32.618  53.932  0.00  0.00     0.303 A 
ATOM      5  N   UNL d   1      52.754  33.825  54.417  0.00  0.00    -0.037 N 
ATOM      6  C   UNL d   1      53.346  32.004  53.371  0.00  0.00     0.161 A 
ATOM      7  O   UNL d   1      53.898  32.639  54.533  0.00  0.00    -0.263 OA
ATOM      8  C   UNL d   1      53.916  31.411  53.428  0.00  0.00     0.028 C 
ATOM      9  N   UNL d   1      52.785  31.983  52.764  0.00  0.00    -0.141 NA
ATOM     10  N   UNL d   1      52.217  32.576  52.710  0.00  0.00    -0.121 NA
ENDBRANCH   1   2
BRANCH   1  11
ATOM     11  C   UNL d   1      50.992  33.691  52.695  0.00  0.00     0.038 C 
BRANCH  11  12
ATOM     12  C   UNL d   1      50.330  34.168  52.788  0.00  0.00     0.007 C 
BRANCH  12  13
ATOM     13  C   UNL d   1      50.066  34.642  52.167  0.00  0.00     0.001 C 
BRANCH  13  14
ATOM     14  C   UNL d   1      49.289  34.930  52.176  0.00  0.00     0.000 A 
ATOM     15  C   UNL d   1      49.016  35.372  52.808  0.00  0.00     0.000 A 
ATOM     16  C   UNL d   1      48.230  35.656  52.805  0.00  0.00     0.000 A 
ATOM     17  C   UNL d   1      47.743  35.489  52.172  0.00  0.00     0.000 A 
ATOM     18  C   UNL d   1      48.017  35.044  51.536  0.00  0.00     0.000 A 
ATOM     19  C   UNL d   1      48.792  34.761  51.534  0.00  0.00     0.000 A 
ENDBRANCH  13  14
ENDBRANCH  12  13
ENDBRANCH  11  12
ENDBRANCH   1  11
TORSDOF 5
ENDMDL
MODEL 6
REMARK VINA RESULT:      -6.3      3.149      4.019
REMARK  5 active torsions:
REMARK  status: ('A' for Active; 'I' for Inactive)
REMARK    1  A    between atoms: S_9  and  C_3 
REMARK    2  A    between atoms: C_14  and  S_9 
REMARK    3  A    between atoms: C_10  and  C_11 
REMARK    4  A    between atoms: C_12  and  C_10 
REMARK    5  A    between atoms: C_11  and  C_14 
ROOT
ATOM      1  S   UNL d   1      53.358  31.507  53.307  0.00  0.00    -0.046 SA
ENDROOT
BRANCH   1   2
ATOM      2  C   UNL d   1      53.335  30.762  53.663  0.00  0.00     0.220 A 
ATOM      3  N   UNL d   1      53.000  30.121  53.262  0.00  0.00    -0.149 N 
ATOM      4  C   UNL d   1      52.973  29.367  53.611  0.00  0.00     0.303 A 
ATOM      5  N   UNL d   1      52.688  30.225  52.505  0.00  0.00    -0.037 N 
ATOM      6  C   UNL d   1      53.290  29.274  54.374  0.00  0.00     0.161 A 
ATOM      7  O   UNL d   1      52.641  28.733  53.215  0.00  0.00    -0.263 OA
ATOM      8  C   UNL d   1      53.267  28.530  54.730  0.00  0.00     0.028 C 
ATOM      9  N   UNL d   1      53.624  29.915  54.775  0.00  0.00    -0.141 NA
ATOM     10  N   UNL d   1      53.645  30.656  54.417  0.00  0.00    -0.121 NA
ENDBRANCH   1   2
BRANCH   1  11
ATOM     11  C   UNL d   1      53.744  32.130  53.680  0.00  0.00     0.038 C 
BRANCH  11  12
ATOM     12  C   UNL d   1      53.464  32.895  53.583  0.00  0.00     0.007 C 
BRANCH  12  13
ATOM     13  C   UNL d   1      53.894  33.537  53.872  0.00  0.00     0.001 C 
BRANCH  13  14
ATOM     14  C   UNL d   1      53.498  34.238  54.069  0.00  0.00     0.000 A 
ATOM     15  C   UNL d   1      53.047  34.632  53.510  0.00  0.00     0.000 A 
ATOM     16  C   UNL d   1      52.653  35.337  53.720  0.00  0.00     0.000 A 
ATOM     17  C   UNL d   1      52.721  35.627  54.480  0.00  0.00     0.000 A 
ATOM     18  C   UNL d   1      53.174  35.232  55.042  0.00  0.00     0.000 A 
ATOM     19  C   UNL d   1      53.565  34.534  54.840  0.00  0.00     0.000 A 
ENDBRANCH  13  14
ENDBRANCH  12  13
ENDBRANCH  11  12
ENDBRANCH   1  11
TORSDOF 5
ENDMDL
MODEL 7
REMARK VINA RESULT:      -5.1     10.338     10.956
REMARK  5 active torsions:
REMARK  status: ('A' for Active; 'I' for Inactive)
REMARK    1  A    between atoms: S_9  and  C_3 
REMARK    2  A    between atoms: C_14  and  S_9 
REMARK    3  A    between atoms: C_10  and  C_11 
REMARK    4  A    between atoms: C_12  and  C_10 
REMARK    5  A    between atoms: C_11  and  C_14 
ROOT
ATOM      1  S   UNL d   1      44.977  29.489  59.167  0.00  0.00    -0.046 SA
ENDROOT
BRANCH   1   2
ATOM      2  C   UNL d   1      44.845  29.496  58.352  0.00  0.00     0.220 A 
ATOM      3  N   UNL d   1      45.094  28.860  57.885  0.00  0.00    -0.149 N 
ATOM      4  C   UNL d   1      44.965  28.859  57.064  0.00  0.00     0.303 A 
ATOM      5  N   UNL d   1      45.474  28.217  58.233  0.00  0.00    -0.037 N 
ATOM      6  C   UNL d   1      44.581  29.513  56.723  0.00  0.00     0.161 A 
ATOM      7  O   UNL d   1      45.211  28.230  56.602  0.00  0.00    -0.263 OA
ATOM      8  C   UNL d   1      44.449  29.521  55.909  0.00  0.00     0.028 C 
ATOM      9  N   UNL d   1      44.332  30.149  57.190  0.00  0.00    -0.141 NA
ATOM     10  N   UNL d   1      44.466  30.137  58.002  0.00  0.00    -0.121 NA
ENDBRANCH   1   2
BRANCH   1  11
ATOM     11  C   UNL d   1      44.896  30.180  59.604  0.00  0.00     0.038 C 
BRANCH  11  12
ATOM     12  C   UNL d   1      44.711  30.135  60.402  0.00  0.00     0.007 C 
BRANCH  12  13
ATOM     13  C   UNL d   1      45.077  30.636  60.945  0.00  0.00     0.001 C 
BRANCH  13  14
ATOM     14  C   UNL d   1      44.821  30.640  61.733  0.00  0.00     0.000 A 
ATOM     15  C   UNL d   1      44.664  31.347  62.116  0.00  0.00     0.000 A 
ATOM     16  C   UNL d   1      44.407  31.338  62.911  0.00  0.00     0.000 A 
ATOM     17  C   UNL d   1      44.314  30.625  63.297  0.00  0.00     0.000 A 
ATOM     18  C   UNL d   1      44.471  29.915  62.913  0.00  0.00     0.000 A 
ATOM     19  C   UNL d   1      44.726  29.917  62.128  0.00  0.00     0.000 A 
ENDBRANCH  13  14
ENDBRANCH  12  13
ENDBRANCH  11  12
ENDBRANCH   1  11
TORSDOF 5
ENDMDL
MODEL 8
REMARK VINA RESULT:      -4.9     10.372     10.842
REMARK  5 active torsions:
REMARK  status: ('A' for Active; 'I' for Inactive)
REMARK    1  A    between atoms: S_9  and  C_3 
REMARK    2  A    between atoms: C_14  and  S_9 
REMARK    3  A    between atoms: C_10  and  C_11 
REMARK    4  A    between atoms: C_12  and  C_10 
REMARK    5  A    between atoms: C_11  and  C_14 
ROOT
ATOM      1  S   UNL d   1      45.058  27.272  58.240  0.00  0.00    -0.046 SA
ENDROOT
BRANCH   1   2
ATOM      2  C   UNL d   1      44.970  26.698  57.654  0.00  0.00     0.220 A 
ATOM      3  N   UNL d   1      44.702  25.941  57.852  0.00  0.00    -0.149 N 
ATOM      4  C   UNL d   1      44.610  25.356  57.269  0.00  0.00     0.303 A 
ATOM      5  N   UNL d   1      44.522  25.759  58.636  0.00  0.00    -0.037 N 
ATOM      6  C   UNL d   1      44.793  25.550  56.481  0.00  0.00     0.161 A 
ATOM      7  O   UNL d   1      44.345  24.607  57.464  0.00  0.00    -0.263 OA
ATOM      8  C   UNL d   1      44.706  24.977  55.895  0.00  0.00     0.028 C 
ATOM      9  N   UNL d   1      45.061  26.307  56.283  0.00  0.00    -0.141 NA
ATOM     10  N   UNL d   1      45.148  26.877  56.871  0.00  0.00    -0.121 NA
ENDBRANCH   1   2
BRANCH   1  11
ATOM     11  C   UNL d   1      45.187  28.057  58.032  0.00  0.00     0.038 C 
BRANCH  11  12
ATOM     12  C   UNL d   1      44.999  28.653  58.564  0.00  0.00     0.007 C 
BRANCH  12  13
ATOM     13  C   UNL d   1      45.342  29.400  58.492  0.00  0.00     0.001 C 
BRANCH  13  14
ATOM     14  C   UNL d   1      45.007  30.042  58.896  0.00  0.00     0.000 A 
ATOM     15  C   UNL d   1      45.030  30.077  59.714  0.00  0.00     0.000 A 
ATOM     16  C   UNL d   1      44.689  30.730  60.108  0.00  0.00     0.000 A 
ATOM     17  C   UNL d   1      44.337  31.326  59.675  0.00  0.00     0.000 A 
ATOM     18  C   UNL d   1      44.314  31.290  58.853  0.00  0.00     0.000 A 
ATOM     19  C   UNL d   1      44.649  30.648  58.458  0.00  0.00     0.000 A 
ENDBRANCH  13  14
ENDBRANCH  12  13
ENDBRANCH  11  12
ENDBRANCH   1  11
TORSDOF 5
ENDMDL
