MODEL 1
REMARK VINA RESULT:      -3.3      0.000      0.000
REMARK  2 active torsions:
REMARK  status: ('A' for Active; 'I' for Inactive)
REMARK       I    between atoms: C_2  and  N_1 
REMARK       I    between atoms: N_8  and  C_2 
REMARK    1  A    between atoms: C_15  and  N_8 
REMARK    2  A    between atoms: C_9  and  C_15 
ROOT
ATOM      1  N   UNL d   1      59.095  -1.464  29.557  0.00  0.00    -0.258 N 
ATOM      2  C   UNL d   1      58.351  -1.506  29.913  0.00  0.00     0.354 C 
ATOM      3  S   UNL d   1      60.590  -1.346  28.854  0.00  0.00    -0.084 SA
ATOM      4  C   UNL d   1      59.512  -0.743  29.574  0.00  0.00     0.074 A 
ATOM      5  C   UNL d   1      59.415  -2.121  29.195  0.00  0.00     0.074 A 
ATOM      6  C   UNL d   1      60.264  -0.683  29.221  0.00  0.00     0.046 A 
ATOM      7  C   UNL d   1      60.167  -2.061  28.841  0.00  0.00     0.046 A 
ATOM      8  N   UNL d   1      57.997  -0.769  30.317  0.00  0.00    -0.189 NA
ATOM      9  O   UNL d   1      57.901  -2.293  29.892  0.00  0.00    -0.244 OA
ATOM     10  C   UNL d   1      59.005  -2.828  29.179  0.00  0.00     0.018 A 
ATOM     11  C   UNL d   1      59.188  -0.088  29.939  0.00  0.00     0.018 A 
ATOM     12  C   UNL d   1      60.670   0.024  29.239  0.00  0.00     0.008 A 
ATOM     13  C   UNL d   1      60.495  -2.719  28.474  0.00  0.00     0.008 A 
ATOM     14  C   UNL d   1      59.599   0.622  29.955  0.00  0.00     0.002 A 
ATOM     15  C   UNL d   1      59.332  -3.490  28.811  0.00  0.00     0.002 A 
ATOM     16  C   UNL d   1      60.084  -3.437  28.455  0.00  0.00     0.001 A 
ATOM     17  C   UNL d   1      60.354   0.682  29.600  0.00  0.00     0.001 A 
ENDROOT
BRANCH   8  18
ATOM     18  C   UNL d   1      57.254  -0.815  30.671  0.00  0.00     0.128 C 
BRANCH  18  19
ATOM     19  C   UNL d   1      57.083  -0.358  31.339  0.00  0.00     0.119 A 
ATOM     20  O   UNL d   1      56.944   0.457  31.350  0.00  0.00    -0.304 OA
ATOM     21  C   UNL d   1      56.796   0.682  32.130  0.00  0.00     0.123 A 
ATOM     22  C   UNL d   1      56.842   0.008  32.603  0.00  0.00     0.029 A 
ATOM     23  C   UNL d   1      57.019  -0.633  32.114  0.00  0.00     0.028 A 
ENDBRANCH  18  19
ENDBRANCH   8  18
TORSDOF 2
ENDMDL
MODEL 2
REMARK VINA RESULT:      -2.5      1.143      3.750
REMARK  2 active torsions:
REMARK  status: ('A' for Active; 'I' for Inactive)
REMARK       I    between atoms: C_2  and  N_1 
REMARK       I    between atoms: N_8  and  C_2 
REMARK    1  A    between atoms: C_15  and  N_8 
REMARK    2  A    between atoms: C_9  and  C_15 
ROOT
ATOM      1  N   UNL d   1      58.581  -0.994  29.845  0.00  0.00    -0.258 N 
ATOM      2  C   UNL d   1      58.504  -1.803  29.695  0.00  0.00     0.354 C 
ATOM      3  S   UNL d   1      58.763   0.629  30.121  0.00  0.00    -0.084 SA
ATOM      4  C   UNL d   1      59.157  -0.558  29.430  0.00  0.00     0.074 A 
ATOM      5  C   UNL d   1      58.099  -0.630  30.393  0.00  0.00     0.074 A 
ATOM      6  C   UNL d   1      59.249   0.258  29.568  0.00  0.00     0.046 A 
ATOM      7  C   UNL d   1      58.190   0.188  30.531  0.00  0.00     0.046 A 
ATOM      8  N   UNL d   1      59.045  -2.206  29.083  0.00  0.00    -0.189 NA
ATOM      9  O   UNL d   1      57.876  -2.272  30.150  0.00  0.00    -0.244 OA
ATOM     10  C   UNL d   1      57.534  -1.058  30.799  0.00  0.00     0.018 A 
ATOM     11  C   UNL d   1      59.638  -0.928  28.883  0.00  0.00     0.018 A 
ATOM     12  C   UNL d   1      59.814   0.682  29.160  0.00  0.00     0.008 A 
ATOM     13  C   UNL d   1      57.708   0.560  31.081  0.00  0.00     0.008 A 
ATOM     14  C   UNL d   1      60.205  -0.499  28.474  0.00  0.00     0.002 A 
ATOM     15  C   UNL d   1      57.048  -0.685  31.352  0.00  0.00     0.002 A 
ATOM     16  C   UNL d   1      57.134   0.132  31.496  0.00  0.00     0.001 A 
ATOM     17  C   UNL d   1      60.297   0.321  28.613  0.00  0.00     0.001 A 
ENDROOT
BRANCH   8  18
ATOM     18  C   UNL d   1      58.964  -3.013  28.937  0.00  0.00     0.128 C 
BRANCH  18  19
ATOM     19  C   UNL d   1      59.634  -3.479  28.794  0.00  0.00     0.119 A 
ATOM     20  O   UNL d   1      60.420  -3.248  28.899  0.00  0.00    -0.304 OA
ATOM     21  C   UNL d   1      60.905  -3.883  28.692  0.00  0.00     0.123 A 
ATOM     22  C   UNL d   1      60.420  -4.508  28.459  0.00  0.00     0.029 A 
ATOM     23  C   UNL d   1      59.636  -4.258  28.522  0.00  0.00     0.028 A 
ENDBRANCH  18  19
ENDBRANCH   8  18
TORSDOF 2
ENDMDL
MODEL 3
REMARK VINA RESULT:      -2.3      2.243      2.706
REMARK  2 active torsions:
REMARK  status: ('A' for Active; 'I' for Inactive)
REMARK       I    between atoms: C_2  and  N_1 
REMARK       I    between atoms: N_8  and  C_2 
REMARK    1  A    between atoms: C_15  and  N_8 
REMARK    2  A    between atoms: C_9  and  C_15 
ROOT
ATOM      1  N   UNL d   1      58.593   0.649  30.717  0.00  0.00    -0.258 N 
ATOM      2  C   UNL d   1      57.773   0.649  30.822  0.00  0.00     0.354 C 
ATOM      3  S   UNL d   1      60.240   0.650  30.541  0.00  0.00    -0.084 SA
ATOM      4  C   UNL d   1      59.088   0.660  31.387  0.00  0.00     0.074 A 
ATOM      5  C   UNL d   1      58.910   0.638  29.965  0.00  0.00     0.074 A 
ATOM      6  C   UNL d   1      59.916   0.660  31.300  0.00  0.00     0.046 A 
ATOM      7  C   UNL d   1      59.740   0.639  29.878  0.00  0.00     0.046 A 
ATOM      8  N   UNL d   1      57.423   0.661  31.663  0.00  0.00    -0.189 NA
ATOM      9  O   UNL d   1      57.240   0.637  30.089  0.00  0.00    -0.244 OA
ATOM     10  C   UNL d   1      58.424   0.628  29.309  0.00  0.00     0.018 A 
ATOM     11  C   UNL d   1      58.764   0.671  32.137  0.00  0.00     0.018 A 
ATOM     12  C   UNL d   1      60.398   0.671  31.957  0.00  0.00     0.008 A 
ATOM     13  C   UNL d   1      60.066   0.628  29.124  0.00  0.00     0.008 A 
ATOM     14  C   UNL d   1      59.251   0.682  32.797  0.00  0.00     0.002 A 
ATOM     15  C   UNL d   1      58.750   0.617  28.551  0.00  0.00     0.002 A 
ATOM     16  C   UNL d   1      59.578   0.617  28.455  0.00  0.00     0.001 A 
ATOM     17  C   UNL d   1      60.083   0.682  32.708  0.00  0.00     0.001 A 
ENDROOT
BRANCH   8  18
ATOM     18  C   UNL d   1      56.605   0.661  31.764  0.00  0.00     0.128 C 
BRANCH  18  19
ATOM     19  C   UNL d   1      56.256   0.177  32.338  0.00  0.00     0.119 A 
ATOM     20  O   UNL d   1      56.224  -0.648  32.326  0.00  0.00    -0.304 OA
ATOM     21  C   UNL d   1      55.828  -0.900  33.005  0.00  0.00     0.123 A 
ATOM     22  C   UNL d   1      55.613  -0.232  33.437  0.00  0.00     0.029 A 
ATOM     23  C   UNL d   1      55.878   0.433  33.025  0.00  0.00     0.028 A 
ENDBRANCH  18  19
ENDBRANCH   8  18
TORSDOF 2
ENDMDL
MODEL 4
REMARK VINA RESULT:      -1.7      2.540      5.453
REMARK  2 active torsions:
REMARK  status: ('A' for Active; 'I' for Inactive)
REMARK       I    between atoms: C_2  and  N_1 
REMARK       I    between atoms: N_8  and  C_2 
REMARK    1  A    between atoms: C_15  and  N_8 
REMARK    2  A    between atoms: C_9  and  C_15 
ROOT
ATOM      1  N   UNL d   1      56.432   0.655  33.209  0.00  0.00    -0.258 N 
ATOM      2  C   UNL d   1      56.403   0.650  32.384  0.00  0.00     0.354 C 
ATOM      3  S   UNL d   1      56.526   0.665  34.863  0.00  0.00    -0.084 SA
ATOM      4  C   UNL d   1      57.174   0.661  33.589  0.00  0.00     0.074 A 
ATOM      5  C   UNL d   1      55.742   0.654  33.645  0.00  0.00     0.074 A 
ATOM      6  C   UNL d   1      57.222   0.666  34.420  0.00  0.00     0.046 A 
ATOM      7  C   UNL d   1      55.790   0.659  34.477  0.00  0.00     0.046 A 
ATOM      8  N   UNL d   1      57.176   0.652  31.901  0.00  0.00    -0.189 NA
ATOM      9  O   UNL d   1      55.594   0.644  31.977  0.00  0.00    -0.244 OA
ATOM     10  C   UNL d   1      55.015   0.648  33.272  0.00  0.00     0.018 A 
ATOM     11  C   UNL d   1      57.862   0.662  33.148  0.00  0.00     0.018 A 
ATOM     12  C   UNL d   1      57.949   0.672  34.789  0.00  0.00     0.008 A 
ATOM     13  C   UNL d   1      55.099   0.658  34.922  0.00  0.00     0.008 A 
ATOM     14  C   UNL d   1      58.592   0.668  33.521  0.00  0.00     0.002 A 
ATOM     15  C   UNL d   1      54.321   0.647  33.717  0.00  0.00     0.002 A 
ATOM     16  C   UNL d   1      54.361   0.651  34.549  0.00  0.00     0.001 A 
ATOM     17  C   UNL d   1      58.640   0.673  34.357  0.00  0.00     0.001 A 
ENDROOT
BRANCH   8  18
ATOM     18  C   UNL d   1      57.143   0.647  31.078  0.00  0.00     0.128 C 
BRANCH  18  19
ATOM     19  C   UNL d   1      57.722   0.249  30.640  0.00  0.00     0.119 A 
ATOM     20  O   UNL d   1      57.762  -0.566  30.512  0.00  0.00    -0.304 OA
ATOM     21  C   UNL d   1      58.427  -0.721  30.048  0.00  0.00     0.123 A 
ATOM     22  C   UNL d   1      58.798  -0.002  29.887  0.00  0.00     0.029 A 
ATOM     23  C   UNL d   1      58.363   0.595  30.253  0.00  0.00     0.028 A 
ENDBRANCH  18  19
ENDBRANCH   8  18
TORSDOF 2
ENDMDL
