MODEL 1
REMARK VINA RESULT:      -5.3      0.000      0.000
REMARK  4 active torsions:
REMARK  status: ('A' for Active; 'I' for Inactive)
REMARK    1  A    between atoms: C_7  and  N_2 
REMARK    2  A    between atoms: C_15  and  C_7 
REMARK    3  A    between atoms: C_8  and  O_14 
REMARK    4  A    between atoms: O_14  and  C_15 
ROOT
ATOM      1  C   UNL d   1     -42.749-122.205 -50.457  0.00  0.00     0.296 A 
ATOM      2  N   UNL d   1     -41.978-122.481 -50.527  0.00  0.00    -0.266 N 
ATOM      3  S   UNL d   1     -43.064-122.510 -49.743  0.00  0.00    -0.025 SA
ATOM      4  C   UNL d   1     -41.811-122.953 -49.866  0.00  0.00     0.074 A 
ATOM      5  C   UNL d   1     -42.476-122.971 -49.385  0.00  0.00     0.050 A 
ATOM      6  O   UNL d   1     -43.145-121.718 -50.987  0.00  0.00    -0.259 OA
ATOM      7  C   UNL d   1     -41.128-123.367 -49.650  0.00  0.00     0.018 A 
ATOM      8  C   UNL d   1     -42.474-123.403 -48.678  0.00  0.00     0.008 A 
ATOM      9  C   UNL d   1     -41.122-123.800 -48.945  0.00  0.00     0.002 A 
ATOM     10  C   UNL d   1     -41.788-123.817 -48.464  0.00  0.00     0.001 A 
ENDROOT
BRANCH   2  11
ATOM     11  C   UNL d   1     -41.459-122.317 -51.148  0.00  0.00     0.110 C 
BRANCH  11  12
ATOM     12  C   UNL d   1     -41.713-122.375 -51.928  0.00  0.00     0.142 C 
BRANCH  12  13
ATOM     13  O   UNL d   1     -41.173-122.360 -52.555  0.00  0.00    -0.304 OA
BRANCH  13  14
ATOM     14  C   UNL d   1     -41.440-122.353 -53.335  0.00  0.00     0.100 A 
ATOM     15  C   UNL d   1     -41.303-123.006 -53.822  0.00  0.00     0.025 A 
ATOM     16  C   UNL d   1     -41.568-122.998 -54.598  0.00  0.00     0.002 A 
ATOM     17  C   UNL d   1     -41.972-122.339 -54.887  0.00  0.00     0.000 A 
ATOM     18  C   UNL d   1     -42.107-121.687 -54.395  0.00  0.00     0.002 A 
ATOM     19  C   UNL d   1     -42.239-122.335 -55.672  0.00  0.00     0.000 C 
ATOM     20  C   UNL d   1     -41.837-121.702 -53.619  0.00  0.00     0.025 A 
ENDBRANCH  13  14
ENDBRANCH  12  13
ENDBRANCH  11  12
ENDBRANCH   2  11
TORSDOF 4
ENDMDL
