MODEL 1
REMARK VINA RESULT:      -8.3      0.000      0.000
REMARK  3 active torsions:
REMARK  status: ('A' for Active; 'I' for Inactive)
REMARK       I    between atoms: C_3  and  N_1 
REMARK    1  A    between atoms: C_6  and  C_3 
REMARK    2  A    between atoms: O_9  and  C_6 
REMARK    3  A    between atoms: C_10  and  O_9 
ROOT
ATOM      1  N   UNL d   1     -46.998  13.449  22.989  0.00  0.00    -0.272 N 
ATOM      2  C   UNL d   1     -47.358  12.742  23.224  0.00  0.00     0.067 A 
ATOM      3  C   UNL d   1     -47.382  14.166  22.816  0.00  0.00     0.290 C 
ATOM      4  C   UNL d   1     -46.207  13.330  22.954  0.00  0.00     0.083 A 
ATOM      5  C   UNL d   1     -46.775  12.185  23.334  0.00  0.00     0.018 A 
ATOM      6  O   UNL d   1     -46.936  14.818  22.589  0.00  0.00    -0.264 OA
ATOM      7  C   UNL d   1     -46.050  12.538  23.168  0.00  0.00     0.021 A 
ATOM      8  C   UNL d   1     -48.140  12.533  23.353  0.00  0.00     0.018 A 
ATOM      9  C   UNL d   1     -46.965  11.416  23.572  0.00  0.00     0.002 A 
ATOM     10  C   UNL d   1     -48.339  11.781  23.587  0.00  0.00     0.002 A 
ATOM     11  C   UNL d   1     -47.738  11.212  23.698  0.00  0.00     0.000 A 
ENDROOT
BRANCH   3  12
ATOM     12  C   UNL d   1     -48.204  14.209  22.876  0.00  0.00     0.184 C 
BRANCH  12  13
ATOM     13  O   UNL d   1     -48.590  14.912  22.655  0.00  0.00    -0.300 OA
BRANCH  13  14
ATOM     14  C   UNL d   1     -49.397  14.992  22.779  0.00  0.00     0.100 A 
ATOM     15  C   UNL d   1     -49.677  15.332  23.484  0.00  0.00     0.025 A 
ATOM     16  C   UNL d   1     -50.483  15.413  23.611  0.00  0.00     0.002 A 
ATOM     17  C   UNL d   1     -51.017  15.157  23.037  0.00  0.00     0.000 A 
ATOM     18  C   UNL d   1     -50.754  14.815  22.328  0.00  0.00     0.002 A 
ATOM     19  C   UNL d   1     -49.930  14.736  22.207  0.00  0.00     0.025 A 
ENDBRANCH  13  14
ENDBRANCH  12  13
ENDBRANCH   3  12
TORSDOF 3
ENDMDL
MODEL 2
REMARK VINA RESULT:      -7.6      1.264      3.774
REMARK  3 active torsions:
REMARK  status: ('A' for Active; 'I' for Inactive)
REMARK       I    between atoms: C_3  and  N_1 
REMARK    1  A    between atoms: C_6  and  C_3 
REMARK    2  A    between atoms: O_9  and  C_6 
REMARK    3  A    between atoms: C_10  and  O_9 
ROOT
ATOM      1  N   UNL d   1     -49.598  14.580  22.548  0.00  0.00    -0.272 N 
ATOM      2  C   UNL d   1     -49.852  13.886  22.175  0.00  0.00     0.067 A 
ATOM      3  C   UNL d   1     -48.833  14.734  22.838  0.00  0.00     0.290 C 
ATOM      4  C   UNL d   1     -50.215  15.088  22.586  0.00  0.00     0.083 A 
ATOM      5  C   UNL d   1     -50.638  13.975  21.984  0.00  0.00     0.018 A 
ATOM      6  O   UNL d   1     -48.675  15.457  23.196  0.00  0.00    -0.264 OA
ATOM      7  C   UNL d   1     -50.879  14.721  22.235  0.00  0.00     0.021 A 
ATOM      8  C   UNL d   1     -49.471  13.187  21.986  0.00  0.00     0.018 A 
ATOM      9  C   UNL d   1     -51.051  13.369  21.602  0.00  0.00     0.002 A 
ATOM     10  C   UNL d   1     -49.866  12.583  21.610  0.00  0.00     0.002 A 
ATOM     11  C   UNL d   1     -50.672  12.678  21.415  0.00  0.00     0.000 A 
ENDROOT
BRANCH   3  12
ATOM     12  C   UNL d   1     -48.248  14.158  22.761  0.00  0.00     0.184 C 
BRANCH  12  13
ATOM     13  O   UNL d   1     -47.505  14.285  23.112  0.00  0.00    -0.300 OA
BRANCH  13  14
ATOM     14  C   UNL d   1     -46.900  13.744  22.998  0.00  0.00     0.100 A 
ATOM     15  C   UNL d   1     -46.316  13.890  22.424  0.00  0.00     0.025 A 
ATOM     16  C   UNL d   1     -45.709  13.351  22.306  0.00  0.00     0.002 A 
ATOM     17  C   UNL d   1     -45.678  12.661  22.759  0.00  0.00     0.000 A 
ATOM     18  C   UNL d   1     -46.253  12.501  23.335  0.00  0.00     0.002 A 
ATOM     19  C   UNL d   1     -46.868  13.057  23.449  0.00  0.00     0.025 A 
ENDBRANCH  13  14
ENDBRANCH  12  13
ENDBRANCH   3  12
TORSDOF 3
ENDMDL
MODEL 3
REMARK VINA RESULT:      -7.5      1.331      4.096
REMARK  3 active torsions:
REMARK  status: ('A' for Active; 'I' for Inactive)
REMARK       I    between atoms: C_3  and  N_1 
REMARK    1  A    between atoms: C_6  and  C_3 
REMARK    2  A    between atoms: O_9  and  C_6 
REMARK    3  A    between atoms: C_10  and  O_9 
ROOT
ATOM      1  N   UNL d   1     -49.962  13.811  21.892  0.00  0.00    -0.272 N 
ATOM      2  C   UNL d   1     -49.936  14.392  22.481  0.00  0.00     0.067 A 
ATOM      3  C   UNL d   1     -49.386  13.230  21.745  0.00  0.00     0.290 C 
ATOM      4  C   UNL d   1     -50.642  13.900  21.479  0.00  0.00     0.083 A 
ATOM      5  C   UNL d   1     -50.613  14.841  22.425  0.00  0.00     0.018 A 
ATOM      6  O   UNL d   1     -49.501  12.693  21.133  0.00  0.00    -0.264 OA
ATOM      7  C   UNL d   1     -51.063  14.545  21.803  0.00  0.00     0.021 A 
ATOM      8  C   UNL d   1     -49.385  14.570  23.061  0.00  0.00     0.018 A 
ATOM      9  C   UNL d   1     -50.746  15.471  22.945  0.00  0.00     0.002 A 
ATOM     10  C   UNL d   1     -49.505  15.186  23.578  0.00  0.00     0.002 A 
ATOM     11  C   UNL d   1     -50.200  15.644  23.516  0.00  0.00     0.000 A 
ENDROOT
BRANCH   3  12
ATOM     12  C   UNL d   1     -48.709  13.203  22.216  0.00  0.00     0.184 C 
BRANCH  12  13
ATOM     13  O   UNL d   1     -48.105  12.664  22.026  0.00  0.00    -0.300 OA
BRANCH  13  14
ATOM     14  C   UNL d   1     -47.513  12.504  22.572  0.00  0.00     0.100 A 
ATOM     15  C   UNL d   1     -46.803  12.936  22.552  0.00  0.00     0.025 A 
ATOM     16  C   UNL d   1     -46.209  12.778  23.096  0.00  0.00     0.002 A 
ATOM     17  C   UNL d   1     -46.318  12.189  23.664  0.00  0.00     0.000 A 
ATOM     18  C   UNL d   1     -47.021  11.750  23.696  0.00  0.00     0.002 A 
ATOM     19  C   UNL d   1     -47.621  11.917  23.138  0.00  0.00     0.025 A 
ENDBRANCH  13  14
ENDBRANCH  12  13
ENDBRANCH   3  12
TORSDOF 3
ENDMDL
MODEL 4
REMARK VINA RESULT:      -5.9      8.101     10.194
REMARK  3 active torsions:
REMARK  status: ('A' for Active; 'I' for Inactive)
REMARK       I    between atoms: C_3  and  N_1 
REMARK    1  A    between atoms: C_6  and  C_3 
REMARK    2  A    between atoms: O_9  and  C_6 
REMARK    3  A    between atoms: C_10  and  O_9 
ROOT
ATOM      1  N   UNL d   1     -40.566  14.584  19.881  0.00  0.00    -0.272 N 
ATOM      2  C   UNL d   1     -39.912  15.013  20.151  0.00  0.00     0.067 A 
ATOM      3  C   UNL d   1     -40.630  14.186  19.153  0.00  0.00     0.290 C 
ATOM      4  C   UNL d   1     -41.137  14.612  20.442  0.00  0.00     0.083 A 
ATOM      5  C   UNL d   1     -40.090  15.307  20.889  0.00  0.00     0.018 A 
ATOM      6  O   UNL d   1     -41.324  13.784  18.972  0.00  0.00    -0.264 OA
ATOM      7  C   UNL d   1     -40.852  15.064  21.084  0.00  0.00     0.021 A 
ATOM      8  C   UNL d   1     -39.180  15.174  19.822  0.00  0.00     0.018 A 
ATOM      9  C   UNL d   1     -39.540  15.764  21.305  0.00  0.00     0.002 A 
ATOM     10  C   UNL d   1     -38.631  15.622  20.221  0.00  0.00     0.002 A 
ATOM     11  C   UNL d   1     -38.817  15.922  20.978  0.00  0.00     0.000 A 
ENDROOT
BRANCH   3  12
ATOM     12  C   UNL d   1     -39.996  14.204  18.626  0.00  0.00     0.184 C 
BRANCH  12  13
ATOM     13  O   UNL d   1     -40.057  13.793  17.905  0.00  0.00    -0.300 OA
BRANCH  13  14
ATOM     14  C   UNL d   1     -39.416  13.767  17.394  0.00  0.00     0.100 A 
ATOM     15  C   UNL d   1     -38.846  13.167  17.474  0.00  0.00     0.025 A 
ATOM     16  C   UNL d   1     -38.204  13.137  16.965  0.00  0.00     0.002 A 
ATOM     17  C   UNL d   1     -38.124  13.704  16.371  0.00  0.00     0.000 A 
ATOM     18  C   UNL d   1     -38.684  14.309  16.278  0.00  0.00     0.002 A 
ATOM     19  C   UNL d   1     -39.336  14.332  16.801  0.00  0.00     0.025 A 
ENDBRANCH  13  14
ENDBRANCH  12  13
ENDBRANCH   3  12
TORSDOF 3
ENDMDL
MODEL 5
REMARK VINA RESULT:      -5.8      8.576     10.253
REMARK  3 active torsions:
REMARK  status: ('A' for Active; 'I' for Inactive)
REMARK       I    between atoms: C_3  and  N_1 
REMARK    1  A    between atoms: C_6  and  C_3 
REMARK    2  A    between atoms: O_9  and  C_6 
REMARK    3  A    between atoms: C_10  and  O_9 
ROOT
ATOM      1  N   UNL d   1     -39.244  14.602  17.021  0.00  0.00    -0.272 N 
ATOM      2  C   UNL d   1     -38.854  13.933  17.311  0.00  0.00     0.067 A 
ATOM      3  C   UNL d   1     -39.739  15.112  17.454  0.00  0.00     0.290 C 
ATOM      4  C   UNL d   1     -39.067  14.683  16.245  0.00  0.00     0.083 A 
ATOM      5  C   UNL d   1     -38.432  13.601  16.698  0.00  0.00     0.018 A 
ATOM      6  O   UNL d   1     -40.084  15.756  17.077  0.00  0.00    -0.264 OA
ATOM      7  C   UNL d   1     -38.556  14.059  16.026  0.00  0.00     0.021 A 
ATOM      8  C   UNL d   1     -38.828  13.582  18.050  0.00  0.00     0.018 A 
ATOM      9  C   UNL d   1     -37.981  12.918  16.818  0.00  0.00     0.002 A 
ATOM     10  C   UNL d   1     -38.388  12.910  18.180  0.00  0.00     0.002 A 
ATOM     11  C   UNL d   1     -37.957  12.574  17.550  0.00  0.00     0.000 A 
ENDROOT
BRANCH   3  12
ATOM     12  C   UNL d   1     -39.874  14.962  18.254  0.00  0.00     0.184 C 
BRANCH  12  13
ATOM     13  O   UNL d   1     -40.423  15.430  18.667  0.00  0.00    -0.300 OA
BRANCH  13  14
ATOM     14  C   UNL d   1     -40.448  15.405  19.486  0.00  0.00     0.100 A 
ATOM     15  C   UNL d   1     -40.940  14.855  19.869  0.00  0.00     0.025 A 
ATOM     16  C   UNL d   1     -40.968  14.826  20.689  0.00  0.00     0.002 A 
ATOM     17  C   UNL d   1     -40.505  15.345  21.134  0.00  0.00     0.000 A 
ATOM     18  C   UNL d   1     -40.008  15.899  20.767  0.00  0.00     0.002 A 
ATOM     19  C   UNL d   1     -39.987  15.921  19.931  0.00  0.00     0.025 A 
ENDBRANCH  13  14
ENDBRANCH  12  13
ENDBRANCH   3  12
TORSDOF 3
ENDMDL
