MODEL 1
REMARK VINA RESULT:      52.7      0.000      0.000
REMARK  2 active torsions:
REMARK  status: ('A' for Active; 'I' for Inactive)
REMARK       I    between atoms: N_2  and  C_1 
REMARK    1  A    between atoms: C_5  and  C_1 
REMARK    2  A    between atoms: C_7  and  N_2 
ROOT
ATOM      1  C   UNL d   1     -56.235 -99.626 -44.248  0.00  0.00     0.125 A 
ATOM      2  C   UNL d   1     -56.973 -99.479 -43.908  0.00  0.00     0.059 A 
ATOM      3  C   UNL d   1     -56.111 -99.505 -45.054  0.00  0.00     0.123 A 
ATOM      4  C   UNL d   1     -57.590 -99.210 -44.381  0.00  0.00     0.137 A 
ATOM      5  O   UNL d   1     -55.614 -99.897 -43.770  0.00  0.00    -0.301 OA
ATOM      6  O   UNL d   1     -55.373 -99.652 -45.397  0.00  0.00    -0.301 OA
ATOM      7  C   UNL d   1     -56.733 -99.235 -45.527  0.00  0.00     0.029 A 
ATOM      8  C   UNL d   1     -57.470 -99.087 -45.192  0.00  0.00     0.034 A 
ATOM      9  C   UNL d   1     -54.876-100.045 -44.105  0.00  0.00     0.149 A 
ATOM     10  C   UNL d   1     -54.755 -99.923 -44.916  0.00  0.00     0.149 A 
ENDROOT
BRANCH   4  11
ATOM     11  N   UNL d   1     -58.336 -99.059 -44.047  0.00  0.00    -0.365 NA
ATOM     12  C   UNL d   1     -59.066 -98.913 -43.716  0.00  0.00     0.328 C 
ATOM     13  O   UNL d   1     -59.708 -98.756 -44.196  0.00  0.00    -0.251 OA
BRANCH  12  14
ATOM     14  C   UNL d   1     -59.151 -98.923 -42.903  0.00  0.00     0.070 A 
ATOM     15  C   UNL d   1     -59.879 -99.100 -42.563  0.00  0.00     0.006 A 
ATOM     16  C   UNL d   1     -59.961 -99.110 -41.743  0.00  0.00     0.000 A 
ATOM     17  C   UNL d   1     -59.315 -98.942 -41.254  0.00  0.00     0.000 A 
ATOM     18  C   UNL d   1     -58.586 -98.765 -41.589  0.00  0.00     0.000 A 
ATOM     19  C   UNL d   1     -59.396 -98.951 -40.433  0.00  0.00     0.000 C 
ATOM     20  C   UNL d   1     -58.505 -98.755 -42.415  0.00  0.00     0.006 A 
ENDBRANCH  12  14
ENDBRANCH   4  11
TORSDOF 2
ENDMDL
