MODEL 1
REMARK VINA RESULT:      -6.3      0.000      0.000
REMARK  5 active torsions:
REMARK  status: ('A' for Active; 'I' for Inactive)
REMARK    1  A    between atoms: C_12  and  N_4 
REMARK    2  A    between atoms: C_10  and  N_6 
REMARK    3  A    between atoms: C_11  and  C_10 
REMARK       I    between atoms: N_14  and  C_11 
REMARK    4  A    between atoms: C_16  and  N_14 
REMARK    5  A    between atoms: C_17  and  C_16 
ROOT
ATOM      1  C   UNL d   1     -46.160  12.959  22.548  0.00  0.00     0.172 A 
ATOM      2  C   UNL d   1     -45.794  12.338  22.949  0.00  0.00     0.113 A 
ATOM      3  N   UNL d   1     -45.735  13.413  22.013  0.00  0.00    -0.206 NA
ATOM      4  N   UNL d   1     -46.950  12.986  22.802  0.00  0.00    -0.212 N 
ATOM      5  C   UNL d   1     -45.003  12.170  22.814  0.00  0.00     0.271 A 
ATOM      6  N   UNL d   1     -44.569  12.625  22.275  0.00  0.00    -0.251 N 
ATOM      7  N   UNL d   1     -47.057  12.388  23.349  0.00  0.00    -0.162 NA
ATOM      8  C   UNL d   1     -44.935  13.246  21.874  0.00  0.00     0.187 A 
ATOM      9  C   UNL d   1     -46.364  11.992  23.443  0.00  0.00     0.129 A 
ATOM     10  O   UNL d   1     -44.636  11.549  23.215  0.00  0.00    -0.266 OA
ENDROOT
BRANCH   6  11
ATOM     11  C   UNL d   1     -43.763  12.461  22.132  0.00  0.00     0.147 C 
BRANCH  11  12
ATOM     12  C   UNL d   1     -43.391  12.761  21.452  0.00  0.00     0.297 C 
ATOM     13  N   UNL d   1     -42.719  13.230  21.538  0.00  0.00    -0.205 NA
ATOM     14  O   UNL d   1     -43.695  12.588  20.714  0.00  0.00    -0.264 OA
BRANCH  13  15
ATOM     15  C   UNL d   1     -42.347  13.530  20.858  0.00  0.00     0.102 C 
BRANCH  15  16
ATOM     16  C   UNL d   1     -41.688  14.006  20.948  0.00  0.00     0.019 A 
ATOM     17  C   UNL d   1     -40.956  13.682  21.112  0.00  0.00     0.002 A 
ATOM     18  C   UNL d   1     -40.289  14.172  21.202  0.00  0.00     0.000 A 
ATOM     19  C   UNL d   1     -40.380  14.988  21.122  0.00  0.00     0.000 A 
ATOM     20  C   UNL d   1     -41.109  15.319  20.958  0.00  0.00     0.000 A 
ATOM     21  C   UNL d   1     -41.775  14.829  20.868  0.00  0.00     0.002 A 
ENDBRANCH  15  16
ENDBRANCH  13  15
ENDBRANCH  11  12
ENDBRANCH   6  11
BRANCH   4  22
ATOM     22  C   UNL d   1     -47.541  13.497  22.574  0.00  0.00     0.085 A 
ATOM     23  C   UNL d   1     -48.096  13.264  21.998  0.00  0.00     0.019 A 
ATOM     24  C   UNL d   1     -48.688  13.782  21.773  0.00  0.00     0.002 A 
ATOM     25  C   UNL d   1     -48.738  14.547  22.121  0.00  0.00     0.000 A 
ATOM     26  C   UNL d   1     -48.191  14.763  22.681  0.00  0.00     0.002 A 
ATOM     27  C   UNL d   1     -47.592  14.249  22.914  0.00  0.00     0.019 A 
ENDBRANCH   4  22
TORSDOF 5
ENDMDL
MODEL 2
REMARK VINA RESULT:      -6.3      2.533      3.670
REMARK  5 active torsions:
REMARK  status: ('A' for Active; 'I' for Inactive)
REMARK    1  A    between atoms: C_12  and  N_4 
REMARK    2  A    between atoms: C_10  and  N_6 
REMARK    3  A    between atoms: C_11  and  C_10 
REMARK       I    between atoms: N_14  and  C_11 
REMARK    4  A    between atoms: C_16  and  N_14 
REMARK    5  A    between atoms: C_17  and  C_16 
ROOT
ATOM      1  C   UNL d   1     -48.297  13.818  22.837  0.00  0.00     0.172 A 
ATOM      2  C   UNL d   1     -47.868  14.519  22.769  0.00  0.00     0.113 A 
ATOM      3  N   UNL d   1     -47.907  13.103  22.938  0.00  0.00    -0.206 NA
ATOM      4  N   UNL d   1     -49.102  14.013  22.783  0.00  0.00    -0.212 N 
ATOM      5  C   UNL d   1     -47.049  14.505  22.801  0.00  0.00     0.271 A 
ATOM      6  N   UNL d   1     -46.651  13.787  22.903  0.00  0.00    -0.251 N 
ATOM      7  N   UNL d   1     -49.156  14.824  22.684  0.00  0.00    -0.162 NA
ATOM      8  C   UNL d   1     -47.080  13.085  22.971  0.00  0.00     0.187 A 
ATOM      9  C   UNL d   1     -48.415  15.135  22.674  0.00  0.00     0.129 A 
ATOM     10  O   UNL d   1     -46.619  15.206  22.733  0.00  0.00    -0.266 OA
ENDROOT
BRANCH   6  11
ATOM     11  C   UNL d   1     -45.817  13.764  22.937  0.00  0.00     0.147 C 
BRANCH  11  12
ATOM     12  C   UNL d   1     -45.399  13.180  22.519  0.00  0.00     0.297 C 
ATOM     13  N   UNL d   1     -45.028  12.575  22.940  0.00  0.00    -0.205 NA
ATOM     14  O   UNL d   1     -45.361  13.213  21.703  0.00  0.00    -0.264 OA
BRANCH  13  15
ATOM     15  C   UNL d   1     -44.610  11.991  22.522  0.00  0.00     0.102 C 
BRANCH  15  16
ATOM     16  C   UNL d   1     -44.393  11.306  22.913  0.00  0.00     0.019 A 
ATOM     17  C   UNL d   1     -44.954  10.833  23.271  0.00  0.00     0.002 A 
ATOM     18  C   UNL d   1     -44.728  10.138  23.668  0.00  0.00     0.000 A 
ATOM     19  C   UNL d   1     -43.928   9.935  23.693  0.00  0.00     0.000 A 
ATOM     20  C   UNL d   1     -43.361  10.404  23.337  0.00  0.00     0.000 A 
ATOM     21  C   UNL d   1     -43.589  11.099  22.941  0.00  0.00     0.002 A 
ENDBRANCH  15  16
ENDBRANCH  13  15
ENDBRANCH  11  12
ENDBRANCH   6  11
BRANCH   4  22
ATOM     22  C   UNL d   1     -49.750  13.522  22.818  0.00  0.00     0.085 A 
ATOM     23  C   UNL d   1     -50.276  13.568  23.463  0.00  0.00     0.019 A 
ATOM     24  C   UNL d   1     -50.925  13.071  23.491  0.00  0.00     0.002 A 
ATOM     25  C   UNL d   1     -51.062  12.515  22.874  0.00  0.00     0.000 A 
ATOM     26  C   UNL d   1     -50.542  12.479  22.252  0.00  0.00     0.002 A 
ATOM     27  C   UNL d   1     -49.887  12.975  22.214  0.00  0.00     0.019 A 
ENDBRANCH   4  22
TORSDOF 5
ENDMDL
MODEL 3
REMARK VINA RESULT:      -5.8      3.004      4.114
REMARK  5 active torsions:
REMARK  status: ('A' for Active; 'I' for Inactive)
REMARK    1  A    between atoms: C_12  and  N_4 
REMARK    2  A    between atoms: C_10  and  N_6 
REMARK    3  A    between atoms: C_11  and  C_10 
REMARK       I    between atoms: N_14  and  C_11 
REMARK    4  A    between atoms: C_16  and  N_14 
REMARK    5  A    between atoms: C_17  and  C_16 
ROOT
ATOM      1  C   UNL d   1     -49.362  13.024  23.259  0.00  0.00     0.172 A 
ATOM      2  C   UNL d   1     -49.486  12.220  23.397  0.00  0.00     0.113 A 
ATOM      3  N   UNL d   1     -48.601  13.331  23.258  0.00  0.00    -0.206 NA
ATOM      4  N   UNL d   1     -50.106  13.373  23.142  0.00  0.00    -0.212 N 
ATOM      5  C   UNL d   1     -48.849  11.723  23.534  0.00  0.00     0.271 A 
ATOM      6  N   UNL d   1     -48.079  12.027  23.534  0.00  0.00    -0.251 N 
ATOM      7  N   UNL d   1     -50.671  12.785  23.209  0.00  0.00    -0.162 NA
ATOM      8  C   UNL d   1     -47.955  12.831  23.395  0.00  0.00     0.187 A 
ATOM      9  C   UNL d   1     -50.305  12.087  23.363  0.00  0.00     0.129 A 
ATOM     10  O   UNL d   1     -48.973  10.919  23.672  0.00  0.00    -0.266 OA
ENDROOT
BRANCH   6  11
ATOM     11  C   UNL d   1     -47.425  11.527  23.672  0.00  0.00     0.147 C 
BRANCH  11  12
ATOM     12  C   UNL d   1     -46.655  11.795  23.511  0.00  0.00     0.297 C 
ATOM     13  N   UNL d   1     -46.032  11.254  23.524  0.00  0.00    -0.205 NA
ATOM     14  O   UNL d   1     -46.526  12.584  23.344  0.00  0.00    -0.264 OA
BRANCH  13  15
ATOM     15  C   UNL d   1     -45.262  11.522  23.363  0.00  0.00     0.102 C 
BRANCH  15  16
ATOM     16  C   UNL d   1     -44.651  10.979  23.354  0.00  0.00     0.019 A 
ATOM     17  C   UNL d   1     -44.743  10.238  23.685  0.00  0.00     0.002 A 
ATOM     18  C   UNL d   1     -44.117   9.690  23.672  0.00  0.00     0.000 A 
ATOM     19  C   UNL d   1     -43.403   9.908  23.319  0.00  0.00     0.000 A 
ATOM     20  C   UNL d   1     -43.304  10.647  22.986  0.00  0.00     0.000 A 
ATOM     21  C   UNL d   1     -43.930  11.194  23.000  0.00  0.00     0.002 A 
ENDBRANCH  15  16
ENDBRANCH  13  15
ENDBRANCH  11  12
ENDBRANCH   6  11
BRANCH   4  22
ATOM     22  C   UNL d   1     -50.285  14.152  22.987  0.00  0.00     0.085 A 
ATOM     23  C   UNL d   1     -50.179  14.731  23.577  0.00  0.00     0.019 A 
ATOM     24  C   UNL d   1     -50.361  15.512  23.415  0.00  0.00     0.002 A 
ATOM     25  C   UNL d   1     -50.654  15.731  22.656  0.00  0.00     0.000 A 
ATOM     26  C   UNL d   1     -50.753  15.158  22.090  0.00  0.00     0.002 A 
ATOM     27  C   UNL d   1     -50.573  14.370  22.243  0.00  0.00     0.019 A 
ENDBRANCH   4  22
TORSDOF 5
ENDMDL
MODEL 4
REMARK VINA RESULT:      -4.6      2.444      5.983
REMARK  5 active torsions:
REMARK  status: ('A' for Active; 'I' for Inactive)
REMARK    1  A    between atoms: C_12  and  N_4 
REMARK    2  A    between atoms: C_10  and  N_6 
REMARK    3  A    between atoms: C_11  and  C_10 
REMARK       I    between atoms: N_14  and  C_11 
REMARK    4  A    between atoms: C_16  and  N_14 
REMARK    5  A    between atoms: C_17  and  C_16 
ROOT
ATOM      1  C   UNL d   1     -45.382  12.203  22.989  0.00  0.00     0.172 A 
ATOM      2  C   UNL d   1     -45.465  12.860  22.498  0.00  0.00     0.113 A 
ATOM      3  N   UNL d   1     -45.938  12.051  23.574  0.00  0.00    -0.206 NA
ATOM      4  N   UNL d   1     -44.690  11.807  22.760  0.00  0.00    -0.212 N 
ATOM      5  C   UNL d   1     -46.104  13.366  22.590  0.00  0.00     0.271 A 
ATOM      6  N   UNL d   1     -46.668  13.217  23.178  0.00  0.00    -0.251 N 
ATOM      7  N   UNL d   1     -44.361  12.222  22.136  0.00  0.00    -0.162 NA
ATOM      8  C   UNL d   1     -46.585  12.560  23.670  0.00  0.00     0.187 A 
ATOM      9  C   UNL d   1     -44.823  12.858  21.973  0.00  0.00     0.129 A 
ATOM     10  O   UNL d   1     -46.187  14.023  22.099  0.00  0.00    -0.266 OA
ENDROOT
BRANCH   6  11
ATOM     11  C   UNL d   1     -47.321  13.727  23.279  0.00  0.00     0.147 C 
BRANCH  11  12
ATOM     12  C   UNL d   1     -48.090  13.415  23.324  0.00  0.00     0.297 C 
ATOM     13  N   UNL d   1     -48.714  13.839  22.992  0.00  0.00    -0.205 NA
ATOM     14  O   UNL d   1     -48.216  12.697  23.694  0.00  0.00    -0.264 OA
BRANCH  13  15
ATOM     15  C   UNL d   1     -49.483  13.527  23.037  0.00  0.00     0.102 C 
BRANCH  15  16
ATOM     16  C   UNL d   1     -50.010  13.690  22.433  0.00  0.00     0.019 A 
ATOM     17  C   UNL d   1     -50.378  13.087  22.023  0.00  0.00     0.002 A 
ATOM     18  C   UNL d   1     -50.913  13.259  21.410  0.00  0.00     0.000 A 
ATOM     19  C   UNL d   1     -51.064  14.049  21.223  0.00  0.00     0.000 A 
ATOM     20  C   UNL d   1     -50.700  14.658  21.628  0.00  0.00     0.000 A 
ATOM     21  C   UNL d   1     -50.166  14.484  22.242  0.00  0.00     0.002 A 
ENDBRANCH  15  16
ENDBRANCH  13  15
ENDBRANCH  11  12
ENDBRANCH   6  11
BRANCH   4  22
ATOM     22  C   UNL d   1     -44.364  11.129  23.070  0.00  0.00     0.085 A 
ATOM     23  C   UNL d   1     -44.856  10.511  23.334  0.00  0.00     0.019 A 
ATOM     24  C   UNL d   1     -44.522   9.832  23.645  0.00  0.00     0.002 A 
ATOM     25  C   UNL d   1     -43.685   9.756  23.698  0.00  0.00     0.000 A 
ATOM     26  C   UNL d   1     -43.216  10.365  23.437  0.00  0.00     0.002 A 
ATOM     27  C   UNL d   1     -43.542  11.052  23.123  0.00  0.00     0.019 A 
ENDBRANCH   4  22
TORSDOF 5
ENDMDL
MODEL 5
REMARK VINA RESULT:      -4.6      2.154      6.208
REMARK  5 active torsions:
REMARK  status: ('A' for Active; 'I' for Inactive)
REMARK    1  A    between atoms: C_12  and  N_4 
REMARK    2  A    between atoms: C_10  and  N_6 
REMARK    3  A    between atoms: C_11  and  C_10 
REMARK       I    between atoms: N_14  and  C_11 
REMARK    4  A    between atoms: C_16  and  N_14 
REMARK    5  A    between atoms: C_17  and  C_16 
ROOT
ATOM      1  C   UNL d   1     -40.922  14.331  19.778  0.00  0.00     0.172 A 
ATOM      2  C   UNL d   1     -40.667  14.323  20.563  0.00  0.00     0.113 A 
ATOM      3  N   UNL d   1     -41.641  13.992  19.575  0.00  0.00    -0.206 NA
ATOM      4  N   UNL d   1     -40.338  14.715  19.331  0.00  0.00    -0.212 N 
ATOM      5  C   UNL d   1     -41.131  13.978  21.144  0.00  0.00     0.271 A 
ATOM      6  N   UNL d   1     -41.858  13.635  20.943  0.00  0.00    -0.251 N 
ATOM      7  N   UNL d   1     -39.738  14.936  19.842  0.00  0.00    -0.162 NA
ATOM      8  C   UNL d   1     -42.113  13.642  20.159  0.00  0.00     0.187 A 
ATOM      9  C   UNL d   1     -39.930  14.703  20.586  0.00  0.00     0.129 A 
ATOM     10  O   UNL d   1     -40.876  13.970  21.928  0.00  0.00    -0.266 OA
ENDROOT
BRANCH   6  11
ATOM     11  C   UNL d   1     -42.336  13.281  21.529  0.00  0.00     0.147 C 
BRANCH  11  12
ATOM     12  C   UNL d   1     -43.089  12.991  21.332  0.00  0.00     0.297 C 
ATOM     13  N   UNL d   1     -43.734  13.199  21.802  0.00  0.00    -0.205 NA
ATOM     14  O   UNL d   1     -43.180  12.506  20.680  0.00  0.00    -0.264 OA
BRANCH  13  15
ATOM     15  C   UNL d   1     -44.487  12.909  21.604  0.00  0.00     0.102 C 
BRANCH  15  16
ATOM     16  C   UNL d   1     -45.115  13.074  22.102  0.00  0.00     0.019 A 
ATOM     17  C   UNL d   1     -45.430  13.827  22.144  0.00  0.00     0.002 A 
ATOM     18  C   UNL d   1     -46.068  13.989  22.652  0.00  0.00     0.000 A 
ATOM     19  C   UNL d   1     -46.378  13.376  23.111  0.00  0.00     0.000 A 
ATOM     20  C   UNL d   1     -46.069  12.621  23.073  0.00  0.00     0.000 A 
ATOM     21  C   UNL d   1     -45.430  12.461  22.565  0.00  0.00     0.002 A 
ENDBRANCH  15  16
ENDBRANCH  13  15
ENDBRANCH  11  12
ENDBRANCH   6  11
BRANCH   4  22
ATOM     22  C   UNL d   1     -40.325  14.865  18.531  0.00  0.00     0.085 A 
ATOM     23  C   UNL d   1     -40.624  15.585  18.236  0.00  0.00     0.019 A 
ATOM     24  C   UNL d   1     -40.608  15.729  17.431  0.00  0.00     0.002 A 
ATOM     25  C   UNL d   1     -40.291  15.156  16.902  0.00  0.00     0.000 A 
ATOM     26  C   UNL d   1     -40.002  14.458  17.202  0.00  0.00     0.002 A 
ATOM     27  C   UNL d   1     -40.014  14.304  18.010  0.00  0.00     0.019 A 
ENDBRANCH   4  22
TORSDOF 5
ENDMDL
MODEL 6
REMARK VINA RESULT:      -4.4      5.132      7.326
REMARK  5 active torsions:
REMARK  status: ('A' for Active; 'I' for Inactive)
REMARK    1  A    between atoms: C_12  and  N_4 
REMARK    2  A    between atoms: C_10  and  N_6 
REMARK    3  A    between atoms: C_11  and  C_10 
REMARK       I    between atoms: N_14  and  C_11 
REMARK    4  A    between atoms: C_16  and  N_14 
REMARK    5  A    between atoms: C_17  and  C_16 
ROOT
ATOM      1  C   UNL d   1     -39.597  14.360  20.704  0.00  0.00     0.172 A 
ATOM      2  C   UNL d   1     -40.264  14.265  20.227  0.00  0.00     0.113 A 
ATOM      3  N   UNL d   1     -38.898  14.648  20.384  0.00  0.00    -0.206 NA
ATOM      4  N   UNL d   1     -39.805  14.120  21.470  0.00  0.00    -0.212 N 
ATOM      5  C   UNL d   1     -40.231  14.459  19.430  0.00  0.00     0.271 A 
ATOM      6  N   UNL d   1     -39.528  14.749  19.103  0.00  0.00    -0.251 N 
ATOM      7  N   UNL d   1     -40.588  13.884  21.454  0.00  0.00    -0.162 NA
ATOM      8  C   UNL d   1     -38.862  14.844  19.580  0.00  0.00     0.187 A 
ATOM      9  C   UNL d   1     -40.871  13.969  20.707  0.00  0.00     0.129 A 
ATOM     10  O   UNL d   1     -40.897  14.364  18.953  0.00  0.00    -0.266 OA
ENDROOT
BRANCH   6  11
ATOM     11  C   UNL d   1     -39.487  14.948  18.294  0.00  0.00     0.147 C 
BRANCH  11  12
ATOM     12  C   UNL d   1     -38.766  14.885  17.886  0.00  0.00     0.297 C 
ATOM     13  N   UNL d   1     -38.755  14.518  17.147  0.00  0.00    -0.205 NA
ATOM     14  O   UNL d   1     -38.083  15.184  18.219  0.00  0.00    -0.264 OA
BRANCH  13  15
ATOM     15  C   UNL d   1     -38.034  14.455  16.739  0.00  0.00     0.102 C 
BRANCH  15  16
ATOM     16  C   UNL d   1     -38.047  14.261  15.944  0.00  0.00     0.019 A 
ATOM     17  C   UNL d   1     -38.163  14.836  15.375  0.00  0.00     0.002 A 
ATOM     18  C   UNL d   1     -38.176  14.633  14.568  0.00  0.00     0.000 A 
ATOM     19  C   UNL d   1     -38.069  13.843  14.354  0.00  0.00     0.000 A 
ATOM     20  C   UNL d   1     -37.952  13.263  14.918  0.00  0.00     0.000 A 
ATOM     21  C   UNL d   1     -37.940  13.467  15.724  0.00  0.00     0.002 A 
ENDBRANCH  15  16
ENDBRANCH  13  15
ENDBRANCH  11  12
ENDBRANCH   6  11
BRANCH   4  22
ATOM     22  C   UNL d   1     -39.346  14.106  22.142  0.00  0.00     0.085 A 
ATOM     23  C   UNL d   1     -39.144  14.819  22.525  0.00  0.00     0.019 A 
ATOM     24  C   UNL d   1     -38.682  14.798  23.200  0.00  0.00     0.002 A 
ATOM     25  C   UNL d   1     -38.411  14.062  23.508  0.00  0.00     0.000 A 
ATOM     26  C   UNL d   1     -38.616  13.375  23.126  0.00  0.00     0.002 A 
ATOM     27  C   UNL d   1     -39.079  13.386  22.447  0.00  0.00     0.019 A 
ENDBRANCH   4  22
TORSDOF 5
ENDMDL
MODEL 7
REMARK VINA RESULT:      -3.6      1.553      6.216
REMARK  5 active torsions:
REMARK  status: ('A' for Active; 'I' for Inactive)
REMARK    1  A    between atoms: C_12  and  N_4 
REMARK    2  A    between atoms: C_10  and  N_6 
REMARK    3  A    between atoms: C_11  and  C_10 
REMARK       I    between atoms: N_14  and  C_11 
REMARK    4  A    between atoms: C_16  and  N_14 
REMARK    5  A    between atoms: C_17  and  C_16 
ROOT
ATOM      1  C   UNL d   1     -40.711  14.257  21.092  0.00  0.00     0.172 A 
ATOM      2  C   UNL d   1     -40.984  14.128  20.324  0.00  0.00     0.113 A 
ATOM      3  N   UNL d   1     -41.153  14.004  21.735  0.00  0.00    -0.206 NA
ATOM      4  N   UNL d   1     -39.982  14.650  21.033  0.00  0.00    -0.212 N 
ATOM      5  C   UNL d   1     -41.699  13.747  20.200  0.00  0.00     0.271 A 
ATOM      6  N   UNL d   1     -42.149  13.490  20.845  0.00  0.00    -0.251 N 
ATOM      7  N   UNL d   1     -39.819  14.756  20.238  0.00  0.00    -0.162 NA
ATOM      8  C   UNL d   1     -41.875  13.618  21.613  0.00  0.00     0.187 A 
ATOM      9  C   UNL d   1     -40.419  14.444  19.805  0.00  0.00     0.129 A 
ATOM     10  O   UNL d   1     -41.972  13.618  19.432  0.00  0.00    -0.266 OA
ENDROOT
BRANCH   6  11
ATOM     11  C   UNL d   1     -42.877  13.100  20.727  0.00  0.00     0.147 C 
BRANCH  11  12
ATOM     12  C   UNL d   1     -43.267  12.743  21.368  0.00  0.00     0.297 C 
ATOM     13  N   UNL d   1     -44.032  12.988  21.558  0.00  0.00    -0.205 NA
ATOM     14  O   UNL d   1     -42.891  12.159  21.798  0.00  0.00    -0.264 OA
BRANCH  13  15
ATOM     15  C   UNL d   1     -44.422  12.631  22.199  0.00  0.00     0.102 C 
BRANCH  15  16
ATOM     16  C   UNL d   1     -45.163  12.905  22.411  0.00  0.00     0.019 A 
ATOM     17  C   UNL d   1     -45.386  13.675  22.254  0.00  0.00     0.002 A 
ATOM     18  C   UNL d   1     -46.140  13.948  22.472  0.00  0.00     0.000 A 
ATOM     19  C   UNL d   1     -46.659  13.428  22.850  0.00  0.00     0.000 A 
ATOM     20  C   UNL d   1     -46.443  12.657  23.011  0.00  0.00     0.000 A 
ATOM     21  C   UNL d   1     -45.688  12.385  22.792  0.00  0.00     0.002 A 
ENDBRANCH  15  16
ENDBRANCH  13  15
ENDBRANCH  11  12
ENDBRANCH   6  11
BRANCH   4  22
ATOM     22  C   UNL d   1     -39.489  14.901  21.630  0.00  0.00     0.085 A 
ATOM     23  C   UNL d   1     -38.913  14.385  21.940  0.00  0.00     0.019 A 
ATOM     24  C   UNL d   1     -38.420  14.644  22.540  0.00  0.00     0.002 A 
ATOM     25  C   UNL d   1     -38.493  15.426  22.843  0.00  0.00     0.000 A 
ATOM     26  C   UNL d   1     -39.059  15.919  22.532  0.00  0.00     0.002 A 
ATOM     27  C   UNL d   1     -39.559  15.668  21.929  0.00  0.00     0.019 A 
ENDBRANCH   4  22
TORSDOF 5
ENDMDL
