MODEL 1
REMARK VINA RESULT:      28.5      0.000      0.000
REMARK  3 active torsions:
REMARK  status: ('A' for Active; 'I' for Inactive)
REMARK    1  A    between atoms: S_3  and  C_1 
REMARK    2  A    between atoms: C_7  and  N_2 
REMARK    3  A    between atoms: C_13  and  C_7 
ROOT
ATOM      1  C   UNL d   1     -51.262  24.539  33.465  0.00  0.00     0.255 A 
ATOM      2  N   UNL d   1     -51.429  25.346  33.549  0.00  0.00    -0.278 N 
ATOM      3  N   UNL d   1     -50.471  24.425  33.369  0.00  0.00    -0.215 NA
ATOM      4  C   UNL d   1     -50.705  25.757  33.502  0.00  0.00     0.084 A 
ATOM      5  C   UNL d   1     -50.114  25.189  33.391  0.00  0.00     0.100 A 
ATOM      6  C   UNL d   1     -50.501  26.556  33.544  0.00  0.00     0.019 A 
ATOM      7  C   UNL d   1     -49.323  25.424  33.323  0.00  0.00     0.021 A 
ATOM      8  C   UNL d   1     -49.714  26.793  33.476  0.00  0.00     0.002 A 
ATOM      9  C   UNL d   1     -49.124  26.225  33.365  0.00  0.00     0.002 A 
ENDROOT
BRANCH   1  10
ATOM     10  S   UNL d   1     -51.834  23.942  33.480  0.00  0.00     0.174 S 
ATOM     11  O   UNL d   1     -51.247  23.385  33.653  0.00  0.00    -0.589 OA
ATOM     12  O   UNL d   1     -52.405  23.345  33.495  0.00  0.00    -0.589 OA
ATOM     13  O   UNL d   1     -52.419  24.497  33.308  0.00  0.00    -0.589 OA
ENDBRANCH   1  10
BRANCH   2  14
ATOM     14  C   UNL d   1     -52.156  25.699  33.657  0.00  0.00     0.082 C 
BRANCH  14  15
ATOM     15  C   UNL d   1     -52.168  26.399  34.080  0.00  0.00     0.018 C 
ATOM     16  C   UNL d   1     -52.179  27.130  33.698  0.00  0.00     0.002 C 
ATOM     17  C   UNL d   1     -52.171  26.407  34.900  0.00  0.00     0.002 C 
ENDBRANCH  14  15
ENDBRANCH   2  14
TORSDOF 3
ENDMDL
MODEL 2
REMARK VINA RESULT:      30.9      0.669      2.074
REMARK  3 active torsions:
REMARK  status: ('A' for Active; 'I' for Inactive)
REMARK    1  A    between atoms: S_3  and  C_1 
REMARK    2  A    between atoms: C_7  and  N_2 
REMARK    3  A    between atoms: C_13  and  C_7 
ROOT
ATOM      1  C   UNL d   1     -51.464  24.945  33.512  0.00  0.00     0.255 A 
ATOM      2  N   UNL d   1     -50.697  25.253  33.483  0.00  0.00    -0.278 N 
ATOM      3  N   UNL d   1     -52.007  25.539  33.471  0.00  0.00    -0.215 NA
ATOM      4  C   UNL d   1     -50.762  26.083  33.421  0.00  0.00     0.084 A 
ATOM      5  C   UNL d   1     -51.570  26.259  33.413  0.00  0.00     0.100 A 
ATOM      6  C   UNL d   1     -50.209  26.694  33.370  0.00  0.00     0.019 A 
ATOM      7  C   UNL d   1     -51.821  27.046  33.356  0.00  0.00     0.021 A 
ATOM      8  C   UNL d   1     -50.457  27.479  33.313  0.00  0.00     0.002 A 
ATOM      9  C   UNL d   1     -51.264  27.655  33.306  0.00  0.00     0.002 A 
ENDROOT
BRANCH   1  10
ATOM     10  S   UNL d   1     -51.641  24.139  33.574  0.00  0.00     0.174 S 
ATOM     11  O   UNL d   1     -52.401  24.326  33.839  0.00  0.00    -0.589 OA
ATOM     12  O   UNL d   1     -51.817  23.335  33.636  0.00  0.00    -0.589 OA
ATOM     13  O   UNL d   1     -50.882  23.953  33.310  0.00  0.00    -0.589 OA
ENDBRANCH   1  10
BRANCH   2  14
ATOM     14  C   UNL d   1     -49.992  24.845  33.508  0.00  0.00     0.082 C 
BRANCH  14  15
ATOM     15  C   UNL d   1     -49.307  25.290  33.562  0.00  0.00     0.018 C 
ATOM     16  C   UNL d   1     -48.586  24.945  33.764  0.00  0.00     0.002 C 
ATOM     17  C   UNL d   1     -49.306  26.098  33.418  0.00  0.00     0.002 C 
ENDBRANCH  14  15
ENDBRANCH   2  14
TORSDOF 3
ENDMDL
