MODEL 1
REMARK VINA RESULT:      -3.3      0.000      0.000
REMARK  3 active torsions:
REMARK  status: ('A' for Active; 'I' for Inactive)
REMARK    1  A    between atoms: S_6  and  C_1 
REMARK    2  A    between atoms: C_9  and  S_6 
REMARK    3  A    between atoms: C_7  and  C_9 
REMARK       I    between atoms: N_8  and  C_7 
ROOT
ATOM      1  C   UNL d   1      57.370   0.466  32.135  0.00  0.00     0.049 A 
ATOM      2  N   UNL d   1      57.675   0.454  33.437  0.00  0.00    -0.245 NA
ATOM      3  C   UNL d   1      57.987   0.541  32.676  0.00  0.00     0.087 A 
ATOM      4  C   UNL d   1      56.673   0.332  32.549  0.00  0.00     0.025 A 
ATOM      5  C   UNL d   1      56.855   0.323  33.354  0.00  0.00     0.082 A 
ATOM      6  C   UNL d   1      58.776   0.680  32.483  0.00  0.00     0.021 C 
ATOM      7  C   UNL d   1      55.896   0.215  32.307  0.00  0.00     0.002 A 
ATOM      8  C   UNL d   1      56.261   0.199  33.915  0.00  0.00     0.019 A 
ATOM      9  C   UNL d   1      55.295   0.091  32.856  0.00  0.00     0.000 A 
ATOM     10  C   UNL d   1      55.488   0.084  33.670  0.00  0.00     0.002 A 
ENDROOT
BRANCH   1  11
ATOM     11  S   UNL d   1      57.436   0.515  31.306  0.00  0.00    -0.080 SA
BRANCH  11  12
ATOM     12  C   UNL d   1      57.738  -0.130  30.883  0.00  0.00     0.097 C 
BRANCH  12  13
ATOM     13  C   UNL d   1      57.906  -0.042  30.076  0.00  0.00     0.272 C 
ATOM     14  N   UNL d   1      58.270  -0.670  29.668  0.00  0.00    -0.267 N 
ATOM     15  C   UNL d   1      58.439  -0.585  28.863  0.00  0.00     0.110 A 
ATOM     16  C   UNL d   1      58.461  -1.375  30.062  0.00  0.00     0.110 A 
ATOM     17  C   UNL d   1      58.800  -1.209  28.455  0.00  0.00     0.142 A 
ATOM     18  O   UNL d   1      58.993  -1.915  28.846  0.00  0.00    -0.300 OA
ATOM     19  C   UNL d   1      58.819  -1.992  29.655  0.00  0.00     0.142 A 
ATOM     20  O   UNL d   1      57.717   0.661  29.677  0.00  0.00    -0.266 OA
ENDBRANCH  12  13
ENDBRANCH  11  12
ENDBRANCH   1  11
TORSDOF 3
ENDMDL
MODEL 2
REMARK VINA RESULT:      -2.9      1.534      2.334
REMARK  3 active torsions:
REMARK  status: ('A' for Active; 'I' for Inactive)
REMARK    1  A    between atoms: S_6  and  C_1 
REMARK    2  A    between atoms: C_9  and  S_6 
REMARK    3  A    between atoms: C_7  and  C_9 
REMARK       I    between atoms: N_8  and  C_7 
ROOT
ATOM      1  C   UNL d   1      57.860  -0.532  30.394  0.00  0.00     0.049 A 
ATOM      2  N   UNL d   1      57.884   0.682  30.954  0.00  0.00    -0.245 NA
ATOM      3  C   UNL d   1      58.154   0.233  30.315  0.00  0.00     0.087 A 
ATOM      4  C   UNL d   1      57.407  -0.569  31.078  0.00  0.00     0.025 A 
ATOM      5  C   UNL d   1      57.418   0.178  31.429  0.00  0.00     0.082 A 
ATOM      6  C   UNL d   1      58.635   0.498  29.700  0.00  0.00     0.021 C 
ATOM      7  C   UNL d   1      56.985  -1.179  31.434  0.00  0.00     0.002 A 
ATOM      8  C   UNL d   1      57.007   0.314  32.133  0.00  0.00     0.019 A 
ATOM      9  C   UNL d   1      56.571  -1.055  32.135  0.00  0.00     0.000 A 
ATOM     10  C   UNL d   1      56.587  -0.295  32.484  0.00  0.00     0.002 A 
ENDROOT
BRANCH   1  11
ATOM     11  S   UNL d   1      57.996  -1.166  29.871  0.00  0.00    -0.080 SA
BRANCH  11  12
ATOM     12  C   UNL d   1      58.747  -1.514  29.843  0.00  0.00     0.097 C 
BRANCH  12  13
ATOM     13  C   UNL d   1      58.843  -2.236  29.445  0.00  0.00     0.272 C 
ATOM     14  N   UNL d   1      59.610  -2.479  29.228  0.00  0.00    -0.267 N 
ATOM     15  C   UNL d   1      59.709  -3.198  28.832  0.00  0.00     0.110 A 
ATOM     16  C   UNL d   1      60.268  -2.007  29.406  0.00  0.00     0.110 A 
ATOM     17  C   UNL d   1      60.471  -3.441  28.615  0.00  0.00     0.142 A 
ATOM     18  O   UNL d   1      61.131  -2.972  28.791  0.00  0.00    -0.300 OA
ATOM     19  C   UNL d   1      61.023  -2.250  29.190  0.00  0.00     0.142 A 
ATOM     20  O   UNL d   1      58.188  -2.712  29.265  0.00  0.00    -0.266 OA
ENDBRANCH  12  13
ENDBRANCH  11  12
ENDBRANCH   1  11
TORSDOF 3
ENDMDL
MODEL 3
REMARK VINA RESULT:      -2.6      8.820      9.527
REMARK  3 active torsions:
REMARK  status: ('A' for Active; 'I' for Inactive)
REMARK    1  A    between atoms: S_6  and  C_1 
REMARK    2  A    between atoms: C_9  and  S_6 
REMARK    3  A    between atoms: C_7  and  C_9 
REMARK       I    between atoms: N_8  and  C_7 
ROOT
ATOM      1  C   UNL d   1      59.872  -8.916  35.090  0.00  0.00     0.049 A 
ATOM      2  N   UNL d   1      61.038  -8.520  35.609  0.00  0.00    -0.245 NA
ATOM      3  C   UNL d   1      60.663  -9.123  35.187  0.00  0.00     0.087 A 
ATOM      4  C   UNL d   1      59.746  -8.187  35.448  0.00  0.00     0.025 A 
ATOM      5  C   UNL d   1      60.463  -7.937  35.771  0.00  0.00     0.082 A 
ATOM      6  C   UNL d   1      61.012  -9.816  34.908  0.00  0.00     0.021 C 
ATOM      7  C   UNL d   1      59.079  -7.713  35.526  0.00  0.00     0.002 A 
ATOM      8  C   UNL d   1      60.513  -7.215  36.170  0.00  0.00     0.019 A 
ATOM      9  C   UNL d   1      59.115  -6.992  35.922  0.00  0.00     0.000 A 
ATOM     10  C   UNL d   1      59.846  -6.746  36.246  0.00  0.00     0.002 A 
ENDROOT
BRANCH   1  11
ATOM     11  S   UNL d   1      59.292  -9.366  34.697  0.00  0.00    -0.080 SA
BRANCH  11  12
ATOM     12  C   UNL d   1      59.294  -9.396  33.869  0.00  0.00     0.097 C 
BRANCH  12  13
ATOM     13  C   UNL d   1      58.585  -9.551  33.468  0.00  0.00     0.272 C 
ATOM     14  N   UNL d   1      58.595  -9.607  32.637  0.00  0.00    -0.267 N 
ATOM     15  C   UNL d   1      57.889  -9.761  32.234  0.00  0.00     0.110 A 
ATOM     16  C   UNL d   1      59.303  -9.511  32.216  0.00  0.00     0.110 A 
ATOM     17  C   UNL d   1      57.896  -9.818  31.408  0.00  0.00     0.142 A 
ATOM     18  O   UNL d   1      58.603  -9.722  30.983  0.00  0.00    -0.300 OA
ATOM     19  C   UNL d   1      59.308  -9.568  31.396  0.00  0.00     0.142 A 
ATOM     20  O   UNL d   1      57.874  -9.648  33.885  0.00  0.00    -0.266 OA
ENDBRANCH  12  13
ENDBRANCH  11  12
ENDBRANCH   1  11
TORSDOF 3
ENDMDL
MODEL 4
REMARK VINA RESULT:      -0.5      1.685      4.422
REMARK  3 active torsions:
REMARK  status: ('A' for Active; 'I' for Inactive)
REMARK    1  A    between atoms: S_6  and  C_1 
REMARK    2  A    between atoms: C_9  and  S_6 
REMARK    3  A    between atoms: C_7  and  C_9 
REMARK       I    between atoms: N_8  and  C_7 
ROOT
ATOM      1  C   UNL d   1      57.616  -0.272  31.002  0.00  0.00     0.049 A 
ATOM      2  N   UNL d   1      57.775  -1.373  30.260  0.00  0.00    -0.245 NA
ATOM      3  C   UNL d   1      57.423  -1.071  30.944  0.00  0.00     0.087 A 
ATOM      4  C   UNL d   1      58.086  -0.069  30.359  0.00  0.00     0.025 A 
ATOM      5  C   UNL d   1      58.188  -0.745  29.897  0.00  0.00     0.082 A 
ATOM      6  C   UNL d   1      56.959  -1.490  31.481  0.00  0.00     0.021 C 
ATOM      7  C   UNL d   1      58.437   0.638  30.128  0.00  0.00     0.002 A 
ATOM      8  C   UNL d   1      58.640  -0.714  29.205  0.00  0.00     0.019 A 
ATOM      9  C   UNL d   1      58.889   0.682  29.441  0.00  0.00     0.000 A 
ATOM     10  C   UNL d   1      58.988  -0.008  28.978  0.00  0.00     0.002 A 
ENDROOT
BRANCH   1  11
ATOM     11  S   UNL d   1      57.377   0.247  31.607  0.00  0.00    -0.080 SA
BRANCH  11  12
ATOM     12  C   UNL d   1      56.901  -0.038  32.222  0.00  0.00     0.097 C 
BRANCH  12  13
ATOM     13  C   UNL d   1      56.961   0.307  32.974  0.00  0.00     0.272 C 
ATOM     14  N   UNL d   1      56.290   0.322  33.467  0.00  0.00    -0.267 N 
ATOM     15  C   UNL d   1      56.347   0.666  34.217  0.00  0.00     0.110 A 
ATOM     16  C   UNL d   1      55.571  -0.003  33.211  0.00  0.00     0.110 A 
ATOM     17  C   UNL d   1      55.681   0.682  34.709  0.00  0.00     0.142 A 
ATOM     18  O   UNL d   1      54.960   0.358  34.457  0.00  0.00    -0.300 OA
ATOM     19  C   UNL d   1      54.912   0.014  33.701  0.00  0.00     0.142 A 
ATOM     20  O   UNL d   1      57.678   0.634  33.234  0.00  0.00    -0.266 OA
ENDBRANCH  12  13
ENDBRANCH  11  12
ENDBRANCH   1  11
TORSDOF 3
ENDMDL
MODEL 5
REMARK VINA RESULT:      -0.3      9.439      9.724
REMARK  3 active torsions:
REMARK  status: ('A' for Active; 'I' for Inactive)
REMARK    1  A    between atoms: S_6  and  C_1 
REMARK    2  A    between atoms: C_9  and  S_6 
REMARK    3  A    between atoms: C_7  and  C_9 
REMARK       I    between atoms: N_8  and  C_7 
ROOT
ATOM      1  C   UNL d   1      59.574  -9.477  33.356  0.00  0.00     0.049 A 
ATOM      2  N   UNL d   1      58.657  -9.022  34.215  0.00  0.00    -0.245 NA
ATOM      3  C   UNL d   1      58.765  -9.383  33.480  0.00  0.00     0.087 A 
ATOM      4  C   UNL d   1      59.975  -9.177  34.007  0.00  0.00     0.025 A 
ATOM      5  C   UNL d   1      59.415  -8.895  34.542  0.00  0.00     0.082 A 
ATOM      6  C   UNL d   1      58.173  -9.614  32.956  0.00  0.00     0.021 C 
ATOM      7  C   UNL d   1      60.775  -9.122  34.191  0.00  0.00     0.002 A 
ATOM      8  C   UNL d   1      59.652  -8.557  35.258  0.00  0.00     0.019 A 
ATOM      9  C   UNL d   1      61.025  -8.787  34.900  0.00  0.00     0.000 A 
ATOM     10  C   UNL d   1      60.450  -8.503  35.437  0.00  0.00     0.002 A 
ENDROOT
BRANCH   1  11
ATOM     11  S   UNL d   1      59.931  -9.818  32.685  0.00  0.00    -0.080 SA
BRANCH  11  12
ATOM     12  C   UNL d   1      59.679  -9.587  31.930  0.00  0.00     0.097 C 
BRANCH  12  13
ATOM     13  C   UNL d   1      60.193  -9.684  31.286  0.00  0.00     0.272 C 
ATOM     14  N   UNL d   1      59.875  -9.700  30.516  0.00  0.00    -0.267 N 
ATOM     15  C   UNL d   1      60.385  -9.796  29.871  0.00  0.00     0.110 A 
ATOM     16  C   UNL d   1      59.059  -9.621  30.394  0.00  0.00     0.110 A 
ATOM     17  C   UNL d   1      60.071  -9.813  29.104  0.00  0.00     0.142 A 
ATOM     18  O   UNL d   1      59.255  -9.734  28.979  0.00  0.00    -0.300 OA
ATOM     19  C   UNL d   1      58.750  -9.638  29.632  0.00  0.00     0.142 A 
ATOM     20  O   UNL d   1      61.010  -9.763  31.402  0.00  0.00    -0.266 OA
ENDBRANCH  12  13
ENDBRANCH  11  12
ENDBRANCH   1  11
TORSDOF 3
ENDMDL
