MODEL 1
REMARK VINA RESULT:      59.4      0.000      0.000
REMARK  10 active torsions:
REMARK  status: ('A' for Active; 'I' for Inactive)
REMARK    1  A    between atoms: C_2  and  S_1 
REMARK    2  A    between atoms: N_3  and  S_1 
REMARK    3  A    between atoms: C_19  and  N_3 
REMARK    4  A    between atoms: C_4  and  C_8 
REMARK       I    between atoms: N_14  and  C_4 
REMARK    5  A    between atoms: O_27  and  C_7 
REMARK    6  A    between atoms: O_28  and  C_11 
REMARK    7  A    between atoms: C_29  and  N_14 
REMARK    8  A    between atoms: C_22  and  C_19 
REMARK    9  A    between atoms: C_21  and  C_30 
REMARK   10  A    between atoms: C_30  and  C_29 
ROOT
ATOM      1  C   UNL d   1     -55.055-100.846 -43.318  0.00  0.00     0.058 A 
ATOM      2  C   UNL d   1     -55.198-101.602 -43.601  0.00  0.00     0.005 A 
ATOM      3  C   UNL d   1     -54.879-100.739 -42.512  0.00  0.00     0.005 A 
ATOM      4  C   UNL d   1     -54.993-102.142 -42.288  0.00  0.00     0.020 A 
ATOM      5  C   UNL d   1     -55.167-102.255 -43.083  0.00  0.00     0.002 A 
ATOM      6  C   UNL d   1     -54.850-101.390 -42.001  0.00  0.00     0.002 A 
ENDROOT
BRANCH   1   7
ATOM      7  C   UNL d   1     -55.084-100.201 -43.821  0.00  0.00     0.279 C 
ATOM      8  O   UNL d   1     -54.955-100.306 -44.633  0.00  0.00    -0.265 OA
ATOM      9  N   UNL d   1     -55.239 -99.451 -43.523  0.00  0.00    -0.206 NA
BRANCH   9  10
ATOM     10  C   UNL d   1     -55.267 -98.803 -44.034  0.00  0.00     0.102 C 
BRANCH  10  11
ATOM     11  C   UNL d   1     -55.739 -98.841 -44.699  0.00  0.00     0.021 C 
BRANCH  11  12
ATOM     12  C   UNL d   1     -56.544 -98.924 -44.617  0.00  0.00     0.004 A 
ATOM     13  C   UNL d   1     -56.882 -99.036 -43.872  0.00  0.00     0.026 A 
ATOM     14  C   UNL d   1     -57.691 -99.119 -43.798  0.00  0.00     0.116 A 
ATOM     15  C   UNL d   1     -58.177 -99.090 -44.476  0.00  0.00     0.116 A 
ATOM     16  C   UNL d   1     -57.846 -98.980 -45.211  0.00  0.00     0.026 A 
ATOM     17  C   UNL d   1     -57.026 -98.896 -45.285  0.00  0.00     0.002 A 
BRANCH  14  18
ATOM     18  O   UNL d   1     -58.027 -99.230 -43.053  0.00  0.00    -0.326 OA
ATOM     19  C   UNL d   1     -58.656 -98.758 -42.674  0.00  0.00     0.181 C 
ENDBRANCH  14  18
BRANCH  15  20
ATOM     20  O   UNL d   1     -58.981 -99.170 -44.420  0.00  0.00    -0.326 OA
ATOM     21  C   UNL d   1     -59.466 -98.839 -44.979  0.00  0.00     0.181 C 
ENDBRANCH  15  20
ENDBRANCH  11  12
ENDBRANCH  10  11
ENDBRANCH   9  10
ENDBRANCH   1   7
BRANCH   4  22
ATOM     22  C   UNL d   1     -54.964-102.793 -41.777  0.00  0.00     0.112 C 
BRANCH  22  23
ATOM     23  N   UNL d   1     -54.761-102.683 -40.997  0.00  0.00    -0.157 NA
BRANCH  23  24
ATOM     24  S   UNL d   1     -55.346-102.730 -40.404  0.00  0.00     0.285 S 
ATOM     25  O   UNL d   1     -54.764-102.636 -39.828  0.00  0.00    -0.198 OA
ATOM     26  O   UNL d   1     -55.924-102.824 -40.986  0.00  0.00    -0.198 OA
BRANCH  24  27
ATOM     27  C   UNL d   1     -55.927-102.778 -39.829  0.00  0.00     0.105 A 
ATOM     28  C   UNL d   1     -55.726-102.811 -39.039  0.00  0.00     0.012 A 
ATOM     29  C   UNL d   1     -56.316-102.859 -38.460  0.00  0.00     0.001 A 
ATOM     30  C   UNL d   1     -54.924-102.794 -38.823  0.00  0.00     0.001 C 
ATOM     31  C   UNL d   1     -57.115-102.875 -38.680  0.00  0.00     0.000 A 
ATOM     32  C   UNL d   1     -57.320-102.843 -39.483  0.00  0.00     0.001 A 
ATOM     33  C   UNL d   1     -56.726-102.794 -40.062  0.00  0.00     0.013 A 
ATOM     34  C   UNL d   1     -58.110-102.859 -39.706  0.00  0.00     0.000 C 
ENDBRANCH  24  27
ENDBRANCH  23  24
ENDBRANCH  22  23
ENDBRANCH   4  22
TORSDOF 10
ENDMDL
