MODEL 1
REMARK VINA RESULT:      -8.6      0.000      0.000
REMARK  4 active torsions:
REMARK  status: ('A' for Active; 'I' for Inactive)
REMARK    1  A    between atoms: C_11  and  C_3 
REMARK    2  A    between atoms: N_10  and  C_4 
REMARK    3  A    between atoms: C_12  and  N_10 
REMARK    4  A    between atoms: C_13  and  C_12 
ROOT
ATOM      1  C   UNL d   1      52.651  33.923  53.738  0.00  0.00     0.167 A 
ATOM      2  N   UNL d   1      52.025  34.387  53.470  0.00  0.00    -0.195 N 
ATOM      3  C   UNL d   1      53.163  34.407  54.153  0.00  0.00     0.057 A 
ATOM      4  C   UNL d   1      51.418  34.046  53.031  0.00  0.00     0.167 A 
ATOM      5  N   UNL d   1      52.157  35.154  53.723  0.00  0.00    -0.161 NA
ATOM      6  N   UNL d   1      52.670  33.118  53.566  0.00  0.00    -0.227 NA
ATOM      7  C   UNL d   1      51.439  33.236  52.860  0.00  0.00     0.058 A 
ATOM      8  C   UNL d   1      52.850  35.171  54.140  0.00  0.00     0.124 A 
ATOM      9  C   UNL d   1      52.059  32.777  53.125  0.00  0.00     0.086 A 
ATOM     10  C   UNL d   1      52.058  31.972  52.942  0.00  0.00     0.021 C 
ENDROOT
BRANCH   4  11
ATOM     11  N   UNL d   1      50.792  34.511  52.764  0.00  0.00    -0.225 NA
BRANCH  11  12
ATOM     12  C   UNL d   1      50.057  34.169  52.626  0.00  0.00     0.101 C 
BRANCH  12  13
ATOM     13  C   UNL d   1      49.418  34.642  52.378  0.00  0.00     0.019 A 
ATOM     14  C   UNL d   1      49.051  35.160  52.912  0.00  0.00     0.002 A 
ATOM     15  C   UNL d   1      48.422  35.625  52.669  0.00  0.00     0.000 A 
ATOM     16  C   UNL d   1      48.149  35.582  51.888  0.00  0.00     0.000 A 
ATOM     17  C   UNL d   1      48.515  35.066  51.358  0.00  0.00     0.000 A 
ATOM     18  C   UNL d   1      49.151  34.596  51.604  0.00  0.00     0.002 A 
ENDBRANCH  12  13
ENDBRANCH  11  12
ENDBRANCH   4  11
BRANCH   3  19
ATOM     19  C   UNL d   1      53.852  34.101  54.493  0.00  0.00     0.004 A 
ATOM     20  C   UNL d   1      53.828  33.821  55.272  0.00  0.00     0.000 A 
ATOM     21  C   UNL d   1      54.507  33.515  55.616  0.00  0.00     0.000 A 
ATOM     22  C   UNL d   1      55.218  33.488  55.185  0.00  0.00     0.000 A 
ATOM     23  C   UNL d   1      55.233  33.770  54.411  0.00  0.00     0.000 A 
ATOM     24  C   UNL d   1      54.548  34.076  54.067  0.00  0.00     0.000 A 
ENDBRANCH   3  19
TORSDOF 4
ENDMDL
MODEL 2
REMARK VINA RESULT:      -7.9      2.135      3.374
REMARK  4 active torsions:
REMARK  status: ('A' for Active; 'I' for Inactive)
REMARK    1  A    between atoms: C_11  and  C_3 
REMARK    2  A    between atoms: N_10  and  C_4 
REMARK    3  A    between atoms: C_12  and  N_10 
REMARK    4  A    between atoms: C_13  and  C_12 
ROOT
ATOM      1  C   UNL d   1      53.165  31.198  53.681  0.00  0.00     0.167 A 
ATOM      2  N   UNL d   1      52.769  31.694  53.156  0.00  0.00    -0.195 N 
ATOM      3  C   UNL d   1      52.972  30.426  53.491  0.00  0.00     0.057 A 
ATOM      4  C   UNL d   1      52.858  32.510  53.213  0.00  0.00     0.167 A 
ATOM      5  N   UNL d   1      52.335  31.224  52.647  0.00  0.00    -0.161 NA
ATOM      6  N   UNL d   1      53.651  31.517  54.264  0.00  0.00    -0.227 NA
ATOM      7  C   UNL d   1      53.348  32.830  53.800  0.00  0.00     0.058 A 
ATOM      8  C   UNL d   1      52.455  30.449  52.848  0.00  0.00     0.124 A 
ATOM      9  C   UNL d   1      53.739  32.339  54.320  0.00  0.00     0.086 A 
ATOM     10  C   UNL d   1      54.222  32.680  54.897  0.00  0.00     0.021 C 
ENDROOT
BRANCH   4  11
ATOM     11  N   UNL d   1      52.462  33.006  52.688  0.00  0.00    -0.225 NA
BRANCH  11  12
ATOM     12  C   UNL d   1      52.134  33.710  52.956  0.00  0.00     0.101 C 
BRANCH  12  13
ATOM     13  C   UNL d   1      51.429  33.997  52.617  0.00  0.00     0.019 A 
ATOM     14  C   UNL d   1      50.765  34.139  53.091  0.00  0.00     0.002 A 
ATOM     15  C   UNL d   1      50.072  34.421  52.758  0.00  0.00     0.000 A 
ATOM     16  C   UNL d   1      50.031  34.566  51.943  0.00  0.00     0.000 A 
ATOM     17  C   UNL d   1      50.694  34.425  51.472  0.00  0.00     0.000 A 
ATOM     18  C   UNL d   1      51.394  34.140  51.809  0.00  0.00     0.002 A 
ENDBRANCH  12  13
ENDBRANCH  11  12
ENDBRANCH   4  11
BRANCH   3  19
ATOM     19  C   UNL d   1      53.285  29.794  53.923  0.00  0.00     0.004 A 
ATOM     20  C   UNL d   1      52.881  29.520  54.591  0.00  0.00     0.000 A 
ATOM     21  C   UNL d   1      53.185  28.893  55.024  0.00  0.00     0.000 A 
ATOM     22  C   UNL d   1      53.899  28.533  54.792  0.00  0.00     0.000 A 
ATOM     23  C   UNL d   1      54.294  28.812  54.125  0.00  0.00     0.000 A 
ATOM     24  C   UNL d   1      53.985  29.443  53.692  0.00  0.00     0.000 A 
ENDBRANCH   3  19
TORSDOF 4
ENDMDL
MODEL 3
REMARK VINA RESULT:      -6.9      0.950      1.713
REMARK  4 active torsions:
REMARK  status: ('A' for Active; 'I' for Inactive)
REMARK    1  A    between atoms: C_11  and  C_3 
REMARK    2  A    between atoms: N_10  and  C_4 
REMARK    3  A    between atoms: C_12  and  N_10 
REMARK    4  A    between atoms: C_13  and  C_12 
ROOT
ATOM      1  C   UNL d   1      52.340  33.626  53.423  0.00  0.00     0.167 A 
ATOM      2  N   UNL d   1      51.640  33.570  52.992  0.00  0.00    -0.195 N 
ATOM      3  C   UNL d   1      52.728  32.908  53.367  0.00  0.00     0.057 A 
ATOM      4  C   UNL d   1      51.131  34.215  52.947  0.00  0.00     0.167 A 
ATOM      5  N   UNL d   1      51.602  32.817  52.674  0.00  0.00    -0.161 NA
ATOM      6  N   UNL d   1      52.531  34.327  53.809  0.00  0.00    -0.227 NA
ATOM      7  C   UNL d   1      51.325  34.920  53.336  0.00  0.00     0.058 A 
ATOM      8  C   UNL d   1      52.264  32.409  52.901  0.00  0.00     0.124 A 
ATOM      9  C   UNL d   1      52.018  34.975  53.762  0.00  0.00     0.086 A 
ATOM     10  C   UNL d   1      52.190  35.688  54.142  0.00  0.00     0.021 C 
ENDROOT
BRANCH   4  11
ATOM     11  N   UNL d   1      50.431  34.158  52.516  0.00  0.00    -0.225 NA
BRANCH  11  12
ATOM     12  C   UNL d   1      49.898  34.784  52.514  0.00  0.00     0.101 C 
BRANCH  12  13
ATOM     13  C   UNL d   1      49.270  34.794  51.967  0.00  0.00     0.019 A 
ATOM     14  C   UNL d   1      49.369  34.471  51.211  0.00  0.00     0.002 A 
ATOM     15  C   UNL d   1      48.752  34.481  50.674  0.00  0.00     0.000 A 
ATOM     16  C   UNL d   1      48.023  34.815  50.882  0.00  0.00     0.000 A 
ATOM     17  C   UNL d   1      47.925  35.137  51.636  0.00  0.00     0.000 A 
ATOM     18  C   UNL d   1      48.550  35.126  52.179  0.00  0.00     0.002 A 
ENDBRANCH  12  13
ENDBRANCH  11  12
ENDBRANCH   4  11
BRANCH   3  19
ATOM     19  C   UNL d   1      53.453  32.789  53.745  0.00  0.00     0.004 A 
ATOM     20  C   UNL d   1      53.463  32.521  54.528  0.00  0.00     0.000 A 
ATOM     21  C   UNL d   1      54.180  32.401  54.909  0.00  0.00     0.000 A 
ATOM     22  C   UNL d   1      54.895  32.548  54.511  0.00  0.00     0.000 A 
ATOM     23  C   UNL d   1      54.876  32.814  53.731  0.00  0.00     0.000 A 
ATOM     24  C   UNL d   1      54.153  32.934  53.350  0.00  0.00     0.000 A 
ENDBRANCH   3  19
TORSDOF 4
ENDMDL
MODEL 4
REMARK VINA RESULT:      -6.8      1.449      5.608
REMARK  4 active torsions:
REMARK  status: ('A' for Active; 'I' for Inactive)
REMARK    1  A    between atoms: C_11  and  C_3 
REMARK    2  A    between atoms: N_10  and  C_4 
REMARK    3  A    between atoms: C_12  and  N_10 
REMARK    4  A    between atoms: C_13  and  C_12 
ROOT
ATOM      1  C   UNL d   1      48.373  35.325  52.509  0.00  0.00     0.167 A 
ATOM      2  N   UNL d   1      49.089  35.230  52.906  0.00  0.00    -0.195 N 
ATOM      3  C   UNL d   1      47.880  35.772  52.985  0.00  0.00     0.057 A 
ATOM      4  C   UNL d   1      49.699  34.801  52.559  0.00  0.00     0.167 A 
ATOM      5  N   UNL d   1      49.031  35.620  53.623  0.00  0.00    -0.161 NA
ATOM      6  N   UNL d   1      48.267  34.990  51.765  0.00  0.00    -0.227 NA
ATOM      7  C   UNL d   1      49.589  34.464  51.810  0.00  0.00     0.058 A 
ATOM      8  C   UNL d   1      48.294  35.953  53.675  0.00  0.00     0.124 A 
ATOM      9  C   UNL d   1      48.881  34.557  51.417  0.00  0.00     0.086 A 
ATOM     10  C   UNL d   1      48.795  34.212  50.672  0.00  0.00     0.021 C 
ENDROOT
BRANCH   4  11
ATOM     11  N   UNL d   1      50.415  34.706  52.955  0.00  0.00    -0.225 NA
BRANCH  11  12
ATOM     12  C   UNL d   1      51.031  34.295  52.599  0.00  0.00     0.101 C 
BRANCH  12  13
ATOM     13  C   UNL d   1      51.748  34.184  53.007  0.00  0.00     0.019 A 
ATOM     14  C   UNL d   1      51.951  33.435  53.297  0.00  0.00     0.002 A 
ATOM     15  C   UNL d   1      52.657  33.326  53.699  0.00  0.00     0.000 A 
ATOM     16  C   UNL d   1      53.172  33.963  53.817  0.00  0.00     0.000 A 
ATOM     17  C   UNL d   1      52.969  34.709  53.527  0.00  0.00     0.000 A 
ATOM     18  C   UNL d   1      52.255  34.819  53.121  0.00  0.00     0.002 A 
ENDBRANCH  12  13
ENDBRANCH  11  12
ENDBRANCH   4  11
BRANCH   3  19
ATOM     19  C   UNL d   1      47.114  35.964  52.737  0.00  0.00     0.004 A 
ATOM     20  C   UNL d   1      46.469  35.584  53.089  0.00  0.00     0.000 A 
ATOM     21  C   UNL d   1      45.706  35.769  52.849  0.00  0.00     0.000 A 
ATOM     22  C   UNL d   1      45.581  36.336  52.254  0.00  0.00     0.000 A 
ATOM     23  C   UNL d   1      46.230  36.709  51.909  0.00  0.00     0.000 A 
ATOM     24  C   UNL d   1      46.996  36.522  52.152  0.00  0.00     0.000 A 
ENDBRANCH   3  19
TORSDOF 4
ENDMDL
MODEL 5
REMARK VINA RESULT:      -6.6      2.165      4.627
REMARK  4 active torsions:
REMARK  status: ('A' for Active; 'I' for Inactive)
REMARK    1  A    between atoms: C_11  and  C_3 
REMARK    2  A    between atoms: N_10  and  C_4 
REMARK    3  A    between atoms: C_12  and  N_10 
REMARK    4  A    between atoms: C_13  and  C_12 
ROOT
ATOM      1  C   UNL d   1      53.213  33.142  53.943  0.00  0.00     0.167 A 
ATOM      2  N   UNL d   1      53.526  32.386  54.036  0.00  0.00    -0.195 N 
ATOM      3  C   UNL d   1      53.644  33.653  54.416  0.00  0.00     0.057 A 
ATOM      4  C   UNL d   1      53.201  31.752  53.625  0.00  0.00     0.167 A 
ATOM      5  N   UNL d   1      54.148  32.436  54.565  0.00  0.00    -0.161 NA
ATOM      6  N   UNL d   1      52.574  33.265  53.439  0.00  0.00    -0.227 NA
ATOM      7  C   UNL d   1      52.558  31.878  53.118  0.00  0.00     0.058 A 
ATOM      8  C   UNL d   1      54.224  33.208  54.799  0.00  0.00     0.124 A 
ATOM      9  C   UNL d   1      52.248  32.626  53.026  0.00  0.00     0.086 A 
ATOM     10  C   UNL d   1      51.607  32.727  52.514  0.00  0.00     0.021 C 
ENDROOT
BRANCH   4  11
ATOM     11  N   UNL d   1      53.514  30.996  53.718  0.00  0.00    -0.225 NA
BRANCH  11  12
ATOM     12  C   UNL d   1      53.018  30.340  53.701  0.00  0.00     0.101 C 
BRANCH  12  13
ATOM     13  C   UNL d   1      53.234  29.644  54.105  0.00  0.00     0.019 A 
ATOM     14  C   UNL d   1      52.938  29.494  54.865  0.00  0.00     0.002 A 
ATOM     15  C   UNL d   1      53.150  28.810  55.262  0.00  0.00     0.000 A 
ATOM     16  C   UNL d   1      53.662  28.264  54.907  0.00  0.00     0.000 A 
ATOM     17  C   UNL d   1      53.956  28.415  54.151  0.00  0.00     0.000 A 
ATOM     18  C   UNL d   1      53.741  29.107  53.750  0.00  0.00     0.002 A 
ENDBRANCH  12  13
ENDBRANCH  11  12
ENDBRANCH   4  11
BRANCH   3  19
ATOM     19  C   UNL d   1      53.462  34.459  54.443  0.00  0.00     0.004 A 
ATOM     20  C   UNL d   1      53.012  34.750  55.073  0.00  0.00     0.000 A 
ATOM     21  C   UNL d   1      52.827  35.550  55.107  0.00  0.00     0.000 A 
ATOM     22  C   UNL d   1      53.091  36.065  54.510  0.00  0.00     0.000 A 
ATOM     23  C   UNL d   1      53.539  35.766  53.886  0.00  0.00     0.000 A 
ATOM     24  C   UNL d   1      53.723  34.962  53.855  0.00  0.00     0.000 A 
ENDBRANCH   3  19
TORSDOF 4
ENDMDL
MODEL 6
REMARK VINA RESULT:      -6.3      0.943      4.849
REMARK  4 active torsions:
REMARK  status: ('A' for Active; 'I' for Inactive)
REMARK    1  A    between atoms: C_11  and  C_3 
REMARK    2  A    between atoms: N_10  and  C_4 
REMARK    3  A    between atoms: C_12  and  N_10 
REMARK    4  A    between atoms: C_13  and  C_12 
ROOT
ATOM      1  C   UNL d   1      51.448  33.607  52.768  0.00  0.00     0.167 A 
ATOM      2  N   UNL d   1      52.245  33.694  52.956  0.00  0.00    -0.195 N 
ATOM      3  C   UNL d   1      51.170  34.333  52.511  0.00  0.00     0.057 A 
ATOM      4  C   UNL d   1      52.675  33.050  53.232  0.00  0.00     0.167 A 
ATOM      5  N   UNL d   1      52.452  34.473  52.815  0.00  0.00    -0.161 NA
ATOM      6  N   UNL d   1      51.081  32.876  52.855  0.00  0.00    -0.227 NA
ATOM      7  C   UNL d   1      52.304  32.314  53.320  0.00  0.00     0.058 A 
ATOM      8  C   UNL d   1      51.799  34.867  52.543  0.00  0.00     0.124 A 
ATOM      9  C   UNL d   1      51.515  32.229  53.133  0.00  0.00     0.086 A 
ATOM     10  C   UNL d   1      51.166  31.486  53.228  0.00  0.00     0.021 C 
ENDROOT
BRANCH   4  11
ATOM     11  N   UNL d   1      53.473  33.136  53.421  0.00  0.00    -0.225 NA
BRANCH  11  12
ATOM     12  C   UNL d   1      53.783  32.755  54.080  0.00  0.00     0.101 C 
BRANCH  12  13
ATOM     13  C   UNL d   1      54.389  33.116  54.523  0.00  0.00     0.019 A 
ATOM     14  C   UNL d   1      55.080  33.378  54.149  0.00  0.00     0.002 A 
ATOM     15  C   UNL d   1      55.676  33.733  54.585  0.00  0.00     0.000 A 
ATOM     16  C   UNL d   1      55.591  33.832  55.403  0.00  0.00     0.000 A 
ATOM     17  C   UNL d   1      54.902  33.570  55.774  0.00  0.00     0.000 A 
ATOM     18  C   UNL d   1      54.300  33.211  55.333  0.00  0.00     0.002 A 
ENDBRANCH  12  13
ENDBRANCH  11  12
ENDBRANCH   4  11
BRANCH   3  19
ATOM     19  C   UNL d   1      50.382  34.427  52.280  0.00  0.00     0.004 A 
ATOM     20  C   UNL d   1      49.829  34.705  52.829  0.00  0.00     0.000 A 
ATOM     21  C   UNL d   1      49.045  34.800  52.607  0.00  0.00     0.000 A 
ATOM     22  C   UNL d   1      48.805  34.617  51.831  0.00  0.00     0.000 A 
ATOM     23  C   UNL d   1      49.363  34.340  51.290  0.00  0.00     0.000 A 
ATOM     24  C   UNL d   1      50.151  34.246  51.517  0.00  0.00     0.000 A 
ENDBRANCH   3  19
TORSDOF 4
ENDMDL
MODEL 7
REMARK VINA RESULT:      -5.7      1.448      4.943
REMARK  4 active torsions:
REMARK  status: ('A' for Active; 'I' for Inactive)
REMARK    1  A    between atoms: C_11  and  C_3 
REMARK    2  A    between atoms: N_10  and  C_4 
REMARK    3  A    between atoms: C_12  and  N_10 
REMARK    4  A    between atoms: C_13  and  C_12 
ROOT
ATOM      1  C   UNL d   1      51.034  33.950  53.029  0.00  0.00     0.167 A 
ATOM      2  N   UNL d   1      51.372  33.244  53.285  0.00  0.00    -0.195 N 
ATOM      3  C   UNL d   1      50.226  33.836  52.974  0.00  0.00     0.057 A 
ATOM      4  C   UNL d   1      52.186  33.192  53.391  0.00  0.00     0.167 A 
ATOM      5  N   UNL d   1      50.769  32.700  53.386  0.00  0.00    -0.161 NA
ATOM      6  N   UNL d   1      51.510  34.605  52.879  0.00  0.00    -0.227 NA
ATOM      7  C   UNL d   1      52.664  33.852  53.240  0.00  0.00     0.058 A 
ATOM      8  C   UNL d   1      50.068  33.058  53.198  0.00  0.00     0.124 A 
ATOM      9  C   UNL d   1      52.330  34.550  52.987  0.00  0.00     0.086 A 
ATOM     10  C   UNL d   1      52.825  35.195  52.842  0.00  0.00     0.021 C 
ENDROOT
BRANCH   4  11
ATOM     11  N   UNL d   1      52.525  32.485  53.647  0.00  0.00    -0.225 NA
BRANCH  11  12
ATOM     12  C   UNL d   1      53.052  32.082  53.162  0.00  0.00     0.101 C 
BRANCH  12  13
ATOM     13  C   UNL d   1      53.219  31.279  53.305  0.00  0.00     0.019 A 
ATOM     14  C   UNL d   1      52.930  30.695  52.794  0.00  0.00     0.002 A 
ATOM     15  C   UNL d   1      53.094  29.905  52.935  0.00  0.00     0.000 A 
ATOM     16  C   UNL d   1      53.552  29.685  53.590  0.00  0.00     0.000 A 
ATOM     17  C   UNL d   1      53.839  30.268  54.098  0.00  0.00     0.000 A 
ATOM     18  C   UNL d   1      53.673  31.066  53.955  0.00  0.00     0.002 A 
ENDBRANCH  12  13
ENDBRANCH  11  12
ENDBRANCH   4  11
BRANCH   3  19
ATOM     19  C   UNL d   1      49.728  34.450  52.730  0.00  0.00     0.004 A 
ATOM     20  C   UNL d   1      49.513  34.502  51.932  0.00  0.00     0.000 A 
ATOM     21  C   UNL d   1      49.019  35.108  51.682  0.00  0.00     0.000 A 
ATOM     22  C   UNL d   1      48.736  35.669  52.227  0.00  0.00     0.000 A 
ATOM     23  C   UNL d   1      48.956  35.609  53.019  0.00  0.00     0.000 A 
ATOM     24  C   UNL d   1      49.453  34.998  53.268  0.00  0.00     0.000 A 
ENDBRANCH   3  19
TORSDOF 4
ENDMDL
