MODEL 1
REMARK VINA RESULT:      -0.0      0.000      0.000
REMARK  5 active torsions:
REMARK  status: ('A' for Active; 'I' for Inactive)
REMARK    1  A    between atoms: N_2  and  S_1 
REMARK    2  A    between atoms: C_10  and  S_1 
REMARK    3  A    between atoms: C_4  and  C_3 
REMARK       I    between atoms: N_5  and  C_4 
REMARK    4  A    between atoms: C_6  and  N_5 
REMARK    5  A    between atoms: O_24  and  C_21 
ROOT
ATOM      1  N   UNL d   1      57.719  -1.153  30.740  0.00  0.00    -0.226 N 
ATOM      2  C   UNL d   1      57.892  -0.344  30.625  0.00  0.00     0.133 A 
ATOM      3  C   UNL d   1      57.157  -1.378  31.296  0.00  0.00     0.092 A 
ATOM      4  C   UNL d   1      57.501   0.232  31.067  0.00  0.00     0.023 A 
ATOM      5  C   UNL d   1      56.761  -0.806  31.742  0.00  0.00     0.018 A 
ATOM      6  C   UNL d   1      56.937   0.003  31.624  0.00  0.00     0.003 A 
ATOM      7  C   UNL d   1      56.199  -1.026  32.299  0.00  0.00     0.002 A 
ATOM      8  C   UNL d   1      56.542   0.575  32.071  0.00  0.00     0.000 A 
ATOM      9  C   UNL d   1      55.810  -0.456  32.738  0.00  0.00     0.000 A 
ATOM     10  C   UNL d   1      55.980   0.340  32.625  0.00  0.00     0.000 A 
ENDROOT
BRANCH   1  11
ATOM     11  S   UNL d   1      58.121  -1.728  30.287  0.00  0.00     0.271 S 
ATOM     12  O   UNL d   1      58.540  -1.948  30.955  0.00  0.00    -0.200 OA
ATOM     13  O   UNL d   1      57.696  -1.499  29.629  0.00  0.00    -0.200 OA
BRANCH  11  14
ATOM     14  C   UNL d   1      58.517  -2.293  29.845  0.00  0.00     0.104 A 
ATOM     15  C   UNL d   1      59.169  -2.686  30.168  0.00  0.00     0.015 A 
ATOM     16  C   UNL d   1      59.565  -3.251  29.725  0.00  0.00     0.025 A 
ATOM     17  C   UNL d   1      59.317  -3.431  28.958  0.00  0.00     0.094 A 
ATOM     18  C   UNL d   1      58.667  -3.036  28.642  0.00  0.00     0.025 A 
ATOM     19  C   UNL d   1      58.262  -2.465  29.082  0.00  0.00     0.015 A 
BRANCH  17  20
ATOM     20  O   UNL d   1      59.713  -3.996  28.515  0.00  0.00    -0.328 OA
ATOM     21  C   UNL d   1      60.540  -4.025  28.531  0.00  0.00     0.181 C 
ENDBRANCH  17  20
ENDBRANCH  11  14
ENDBRANCH   1  11
BRANCH   2  22
ATOM     22  C   UNL d   1      58.461  -0.121  30.062  0.00  0.00     0.298 C 
ATOM     23  N   UNL d   1      59.234   0.029  30.301  0.00  0.00    -0.181 NA
ATOM     24  O   UNL d   1      58.247  -0.052  29.266  0.00  0.00    -0.264 OA
BRANCH  23  25
ATOM     25  C   UNL d   1      59.800   0.250  29.747  0.00  0.00     0.197 A 
ATOM     26  N   UNL d   1      59.795   0.335  28.837  0.00  0.00    -0.219 NA
ATOM     27  C   UNL d   1      60.604   0.599  28.584  0.00  0.00     0.108 A 
ATOM     28  C   UNL d   1      61.122   0.682  29.320  0.00  0.00     0.059 A 
ATOM     29  S   UNL d   1      60.628   0.467  30.039  0.00  0.00    -0.046 SA
ENDBRANCH  23  25
ENDBRANCH   2  22
TORSDOF 5
ENDMDL
