MODEL 1
REMARK VINA RESULT:      50.7      0.000      0.000
REMARK  1 active torsions:
REMARK  status: ('A' for Active; 'I' for Inactive)
REMARK    1  A    between atoms: C_13  and  C_7 
ROOT
ATOM      1  C   UNL d   1      57.539  49.704  52.191  0.00  0.00     0.120 A 
ATOM      2  C   UNL d   1      58.277  49.694  51.823  0.00  0.00     0.058 A 
ATOM      3  N   UNL d   1      57.666  49.707  53.005  0.00  0.00    -0.195 NA
ATOM      4  S   UNL d   1      56.857  49.708  51.742  0.00  0.00    -0.072 SA
ATOM      5  C   UNL d   1      56.907  49.703  50.925  0.00  0.00     0.009 A 
ATOM      6  C   UNL d   1      57.645  49.694  50.553  0.00  0.00    -0.015 A 
ATOM      7  C   UNL d   1      58.327  49.689  51.007  0.00  0.00     0.005 A 
ATOM      8  C   UNL d   1      58.483  49.699  53.143  0.00  0.00     0.311 A 
ATOM      9  S   UNL d   1      58.856  49.692  52.403  0.00  0.00    -0.024 SA
ATOM     10  C   UNL d   1      57.693  49.689  49.729  0.00  0.00     0.045 A 
ATOM     11  C   UNL d   1      56.217  49.707  50.472  0.00  0.00     0.050 A 
ATOM     12  C   UNL d   1      57.030  49.699  50.337  0.00  0.00     0.018 A 
ATOM     13  O   UNL d   1      58.859  49.700  53.880  0.00  0.00    -0.258 OA
ATOM     14  C   UNL d   1      57.003  49.693  49.276  0.00  0.00    -0.026 A 
ATOM     15  C   UNL d   1      56.266  49.702  49.648  0.00  0.00    -0.026 A 
ENDROOT
BRANCH   7  16
ATOM     16  C   UNL d   1      59.061  49.680  50.640  0.00  0.00     0.001 A 
ATOM     17  C   UNL d   1      59.752  49.705  51.099  0.00  0.00     0.003 A 
ATOM     18  C   UNL d   1      60.482  49.696  50.734  0.00  0.00     0.042 A 
ATOM     19  C   UNL d   1      60.538  49.662  49.904  0.00  0.00     0.196 A 
ATOM     20  C   UNL d   1      59.840  49.637  49.454  0.00  0.00     0.042 A 
ATOM     21  O   UNL d   1      61.276  49.652  49.537  0.00  0.00    -0.287 OA
ATOM     22  C   UNL d   1      59.111  49.647  49.824  0.00  0.00     0.003 A 
ENDBRANCH   7  16
TORSDOF 1
ENDMDL
MODEL 2
REMARK VINA RESULT:      51.2      1.471      3.083
REMARK  1 active torsions:
REMARK  status: ('A' for Active; 'I' for Inactive)
REMARK    1  A    between atoms: C_13  and  C_7 
ROOT
ATOM      1  C   UNL d   1      60.655  49.658  51.793  0.00  0.00     0.120 A 
ATOM      2  C   UNL d   1      59.837  49.631  51.687  0.00  0.00     0.058 A 
ATOM      3  N   UNL d   1      60.800  49.683  52.604  0.00  0.00    -0.195 NA
ATOM      4  S   UNL d   1      61.152  49.657  51.146  0.00  0.00    -0.072 SA
ATOM      5  C   UNL d   1      60.838  49.628  50.391  0.00  0.00     0.009 A 
ATOM      6  C   UNL d   1      60.020  49.601  50.280  0.00  0.00    -0.015 A 
ATOM      7  C   UNL d   1      59.524  49.602  50.932  0.00  0.00     0.005 A 
ATOM      8  C   UNL d   1      60.073  49.672  53.001  0.00  0.00     0.311 A 
ATOM      9  S   UNL d   1      59.479  49.639  52.424  0.00  0.00    -0.024 SA
ATOM     10  C   UNL d   1      59.706  49.572  49.517  0.00  0.00     0.045 A 
ATOM     11  C   UNL d   1      61.343  49.627  49.737  0.00  0.00     0.050 A 
ATOM     12  C   UNL d   1      60.531  49.606  49.875  0.00  0.00     0.018 A 
ATOM     13  O   UNL d   1      59.958  49.689  53.820  0.00  0.00    -0.258 OA
ATOM     14  C   UNL d   1      60.210  49.570  48.864  0.00  0.00    -0.026 A 
ATOM     15  C   UNL d   1      61.028  49.598  48.974  0.00  0.00    -0.026 A 
ENDROOT
BRANCH   7  16
ATOM     16  C   UNL d   1      58.710  49.575  50.825  0.00  0.00     0.001 A 
ATOM     17  C   UNL d   1      58.390  49.663  50.064  0.00  0.00     0.003 A 
ATOM     18  C   UNL d   1      57.580  49.635  49.960  0.00  0.00     0.042 A 
ATOM     19  C   UNL d   1      57.075  49.520  50.611  0.00  0.00     0.196 A 
ATOM     20  C   UNL d   1      57.406  49.434  51.368  0.00  0.00     0.042 A 
ATOM     21  O   UNL d   1      56.258  49.493  50.503  0.00  0.00    -0.287 OA
ATOM     22  C   UNL d   1      58.217  49.462  51.468  0.00  0.00     0.003 A 
ENDBRANCH   7  16
TORSDOF 1
ENDMDL
