MODEL 1
REMARK VINA RESULT:      -2.9      0.000      0.000
REMARK  5 active torsions:
REMARK  status: ('A' for Active; 'I' for Inactive)
REMARK    1  A    between atoms: C_11  and  N_2 
REMARK    2  A    between atoms: C_5  and  C_3 
REMARK    3  A    between atoms: C_7  and  C_5 
REMARK    4  A    between atoms: C_8  and  C_7 
REMARK    5  A    between atoms: C_10  and  C_8 
ROOT
ATOM      1  C   UNL d   1      31.276  16.685 -23.869  0.00  0.00     0.006 C 
ENDROOT
BRANCH   1   2
ATOM      2  C   UNL d   1      30.471  16.562 -23.985  0.00  0.00     0.039 A 
ATOM      3  C   UNL d   1      29.917  16.931 -24.468  0.00  0.00     0.122 A 
ATOM      4  N   UNL d   1      29.190  16.567 -24.347  0.00  0.00    -0.164 NA
ATOM      5  N   UNL d   1      29.290  15.975 -23.791  0.00  0.00    -0.228 N 
ATOM      6  C   UNL d   1      30.085  15.969 -23.564  0.00  0.00     0.085 A 
ATOM      7  C   UNL d   1      30.427  15.453 -23.008  0.00  0.00     0.021 C 
BRANCH   5   8
ATOM      8  C   UNL d   1      28.698  15.475 -23.511  0.00  0.00     0.101 C 
ATOM      9  C   UNL d   1      27.928  15.540 -23.805  0.00  0.00     0.022 C 
ENDBRANCH   5   8
ENDBRANCH   1   2
BRANCH   1  10
ATOM     10  C   UNL d   1      31.594  17.442 -23.953  0.00  0.00     0.042 C 
BRANCH  10  11
ATOM     11  C   UNL d   1      32.407  17.568 -23.848  0.00  0.00     0.196 C 
ATOM     12  O   UNL d   1      32.939  16.951 -23.968  0.00  0.00    -0.287 OA
BRANCH  11  13
ATOM     13  C   UNL d   1      32.686  18.318 -23.622  0.00  0.00     0.039 A 
ATOM     14  C   UNL d   1      32.888  18.873 -24.201  0.00  0.00     0.003 A 
ATOM     15  C   UNL d   1      33.165  19.617 -23.982  0.00  0.00     0.000 A 
ATOM     16  C   UNL d   1      33.241  19.811 -23.182  0.00  0.00     0.000 A 
ATOM     17  C   UNL d   1      33.039  19.256 -22.606  0.00  0.00     0.000 A 
ATOM     18  C   UNL d   1      32.763  18.513 -22.828  0.00  0.00     0.003 A 
ENDBRANCH  11  13
ENDBRANCH  10  11
ENDBRANCH   1  10
TORSDOF 5
ENDMDL
MODEL 2
REMARK VINA RESULT:      -2.6      1.586      4.317
REMARK  5 active torsions:
REMARK  status: ('A' for Active; 'I' for Inactive)
REMARK    1  A    between atoms: C_11  and  N_2 
REMARK    2  A    between atoms: C_5  and  C_3 
REMARK    3  A    between atoms: C_7  and  C_5 
REMARK    4  A    between atoms: C_8  and  C_7 
REMARK    5  A    between atoms: C_10  and  C_8 
ROOT
ATOM      1  C   UNL d   1      31.587  17.070 -23.843  0.00  0.00     0.006 C 
ENDROOT
BRANCH   1   2
ATOM      2  C   UNL d   1      31.902  17.717 -24.243  0.00  0.00     0.039 A 
ATOM      3  C   UNL d   1      31.760  18.032 -24.990  0.00  0.00     0.122 A 
ATOM      4  N   UNL d   1      32.244  18.688 -25.086  0.00  0.00    -0.164 NA
ATOM      5  N   UNL d   1      32.685  18.783 -24.405  0.00  0.00    -0.228 N 
ATOM      6  C   UNL d   1      32.476  18.181 -23.877  0.00  0.00     0.085 A 
ATOM      7  C   UNL d   1      32.792  18.071 -23.117  0.00  0.00     0.021 C 
BRANCH   5   8
ATOM      8  C   UNL d   1      33.241  19.377 -24.272  0.00  0.00     0.101 C 
ATOM      9  C   UNL d   1      33.130  20.128 -24.598  0.00  0.00     0.022 C 
ENDBRANCH   5   8
ENDBRANCH   1   2
BRANCH   1  10
ATOM     10  C   UNL d   1      30.903  16.705 -24.126  0.00  0.00     0.042 C 
BRANCH  10  11
ATOM     11  C   UNL d   1      30.620  16.013 -23.765  0.00  0.00     0.196 C 
ATOM     12  O   UNL d   1      31.139  15.511 -23.371  0.00  0.00    -0.287 OA
BRANCH  11  13
ATOM     13  C   UNL d   1      29.810  15.827 -23.802  0.00  0.00     0.039 A 
ATOM     14  C   UNL d   1      29.465  15.638 -24.530  0.00  0.00     0.003 A 
ATOM     15  C   UNL d   1      28.664  15.453 -24.572  0.00  0.00     0.000 A 
ATOM     16  C   UNL d   1      28.202  15.455 -23.886  0.00  0.00     0.000 A 
ATOM     17  C   UNL d   1      28.548  15.644 -23.161  0.00  0.00     0.000 A 
ATOM     18  C   UNL d   1      29.349  15.829 -23.122  0.00  0.00     0.003 A 
ENDBRANCH  11  13
ENDBRANCH  10  11
ENDBRANCH   1  10
TORSDOF 5
ENDMDL
MODEL 3
REMARK VINA RESULT:      -2.0      2.236      4.492
REMARK  5 active torsions:
REMARK  status: ('A' for Active; 'I' for Inactive)
REMARK    1  A    between atoms: C_11  and  N_2 
REMARK    2  A    between atoms: C_5  and  C_3 
REMARK    3  A    between atoms: C_7  and  C_5 
REMARK    4  A    between atoms: C_8  and  C_7 
REMARK    5  A    between atoms: C_10  and  C_8 
ROOT
ATOM      1  C   UNL d   1      32.978  18.404 -22.940  0.00  0.00     0.006 C 
ENDROOT
BRANCH   1   2
ATOM      2  C   UNL d   1      33.074  19.214 -23.049  0.00  0.00     0.039 A 
ATOM      3  C   UNL d   1      33.168  19.676 -23.723  0.00  0.00     0.122 A 
ATOM      4  N   UNL d   1      33.239  20.459 -23.487  0.00  0.00    -0.164 NA
ATOM      5  N   UNL d   1      33.190  20.487 -22.671  0.00  0.00    -0.228 N 
ATOM      6  C   UNL d   1      33.088  19.714 -22.395  0.00  0.00     0.085 A 
ATOM      7  C   UNL d   1      33.013  19.490 -21.598  0.00  0.00     0.021 C 
BRANCH   5   8
ATOM      8  C   UNL d   1      33.236  21.168 -22.211  0.00  0.00     0.101 C 
ATOM      9  C   UNL d   1      33.054  21.904 -22.539  0.00  0.00     0.022 C 
ENDBRANCH   5   8
ENDBRANCH   1   2
BRANCH   1  10
ATOM     10  C   UNL d   1      32.796  17.920 -23.583  0.00  0.00     0.042 C 
BRANCH  10  11
ATOM     11  C   UNL d   1      32.723  17.100 -23.481  0.00  0.00     0.196 C 
ATOM     12  O   UNL d   1      33.237  16.699 -22.979  0.00  0.00    -0.287 OA
BRANCH  11  13
ATOM     13  C   UNL d   1      32.130  16.682 -23.888  0.00  0.00     0.039 A 
ATOM     14  C   UNL d   1      31.368  16.632 -23.566  0.00  0.00     0.003 A 
ATOM     15  C   UNL d   1      30.778  16.219 -23.965  0.00  0.00     0.000 A 
ATOM     16  C   UNL d   1      30.944  15.854 -24.687  0.00  0.00     0.000 A 
ATOM     17  C   UNL d   1      31.703  15.905 -25.006  0.00  0.00     0.000 A 
ATOM     18  C   UNL d   1      32.292  16.318 -24.606  0.00  0.00     0.003 A 
ENDBRANCH  11  13
ENDBRANCH  10  11
ENDBRANCH   1  10
TORSDOF 5
ENDMDL
MODEL 4
REMARK VINA RESULT:      -1.5      1.755      2.654
REMARK  5 active torsions:
REMARK  status: ('A' for Active; 'I' for Inactive)
REMARK    1  A    between atoms: C_11  and  N_2 
REMARK    2  A    between atoms: C_5  and  C_3 
REMARK    3  A    between atoms: C_7  and  C_5 
REMARK    4  A    between atoms: C_8  and  C_7 
REMARK    5  A    between atoms: C_10  and  C_8 
ROOT
ATOM      1  C   UNL d   1      32.806  18.434 -23.307  0.00  0.00     0.006 C 
ENDROOT
BRANCH   1   2
ATOM      2  C   UNL d   1      32.356  18.157 -23.938  0.00  0.00     0.039 A 
ATOM      3  C   UNL d   1      31.974  18.540 -24.558  0.00  0.00     0.122 A 
ATOM      4  N   UNL d   1      31.608  17.970 -25.022  0.00  0.00    -0.164 NA
ATOM      5  N   UNL d   1      31.760  17.236 -24.695  0.00  0.00    -0.228 N 
ATOM      6  C   UNL d   1      32.226  17.348 -24.020  0.00  0.00     0.085 A 
ATOM      7  C   UNL d   1      32.507  16.747 -23.520  0.00  0.00     0.021 C 
BRANCH   5   8
ATOM      8  C   UNL d   1      31.494  16.515 -24.991  0.00  0.00     0.101 C 
ATOM      9  C   UNL d   1      30.688  16.335 -24.982  0.00  0.00     0.022 C 
ENDBRANCH   5   8
ENDBRANCH   1   2
BRANCH   1  10
ATOM     10  C   UNL d   1      32.722  19.214 -23.053  0.00  0.00     0.042 C 
BRANCH  10  11
ATOM     11  C   UNL d   1      32.994  19.440 -22.302  0.00  0.00     0.196 C 
ATOM     12  O   UNL d   1      33.241  18.869 -21.763  0.00  0.00    -0.287 OA
BRANCH  11  13
ATOM     13  C   UNL d   1      33.018  20.245 -22.093  0.00  0.00     0.039 A 
ATOM     14  C   UNL d   1      33.216  20.812 -22.663  0.00  0.00     0.003 A 
ATOM     15  C   UNL d   1      33.241  21.609 -22.461  0.00  0.00     0.000 A 
ATOM     16  C   UNL d   1      33.067  21.846 -21.689  0.00  0.00     0.000 A 
ATOM     17  C   UNL d   1      32.870  21.280 -21.122  0.00  0.00     0.000 A 
ATOM     18  C   UNL d   1      32.846  20.483 -21.326  0.00  0.00     0.003 A 
ENDBRANCH  11  13
ENDBRANCH  10  11
ENDBRANCH   1  10
TORSDOF 5
ENDMDL
