MODEL 1
REMARK VINA RESULT:     136.7      0.000      0.000
REMARK  5 active torsions:
REMARK  status: ('A' for Active; 'I' for Inactive)
REMARK    1  A    between atoms: C_10  and  N_3 
REMARK    2  A    between atoms: C_14  and  N_6 
REMARK    3  A    between atoms: C_9  and  C_7 
REMARK    4  A    between atoms: O_23  and  C_20 
REMARK    5  A    between atoms: C_26  and  O_23 
ROOT
ATOM      1  C   UNL d   1     -57.933 -99.082 -43.591  0.00  0.00     0.105 A 
ATOM      2  C   UNL d   1     -58.735 -98.927 -43.787  0.00  0.00     0.186 A 
ATOM      3  N   UNL d   1     -58.653 -99.028 -42.465  0.00  0.00    -0.240 N 
ATOM      4  C   UNL d   1     -59.147 -98.899 -43.098  0.00  0.00     0.292 A 
ATOM      5  C   UNL d   1     -57.883 -99.144 -42.778  0.00  0.00     0.271 A 
ATOM      6  N   UNL d   1     -58.013 -98.980 -44.933  0.00  0.00    -0.212 N 
ATOM      7  C   UNL d   1     -57.526 -99.108 -44.301  0.00  0.00     0.100 A 
ATOM      8  O   UNL d   1     -58.796 -98.863 -44.611  0.00  0.00    -0.223 OA
ATOM      9  O   UNL d   1     -57.182 -99.295 -42.362  0.00  0.00    -0.266 OA
ATOM     10  O   UNL d   1     -59.960 -98.760 -43.040  0.00  0.00    -0.264 OA
ENDROOT
BRANCH   3  11
ATOM     11  C   UNL d   1     -58.881 -99.039 -41.671  0.00  0.00     0.070 A 
ATOM     12  C   UNL d   1     -58.306 -99.000 -41.088  0.00  0.00     0.020 A 
ATOM     13  C   UNL d   1     -58.519 -99.010 -40.285  0.00  0.00     0.026 A 
ATOM     14  C   UNL d   1     -59.327 -99.061 -40.083  0.00  0.00     0.100 A 
ATOM     15  C   UNL d   1     -59.895 -99.100 -40.663  0.00  0.00     0.026 A 
ATOM     16  C   UNL d   1     -59.662 -99.088 -41.449  0.00  0.00     0.020 A 
BRANCH  14  17
ATOM     17  O   UNL d   1     -59.561 -99.073 -39.294  0.00  0.00    -0.305 OA
BRANCH  17  18
ATOM     18  C   UNL d   1     -59.121 -99.512 -38.751  0.00  0.00     0.123 C 
ATOM     19  C   UNL d   1     -58.676 -99.140 -38.175  0.00  0.00     0.029 C 
ENDBRANCH  17  18
ENDBRANCH  14  17
ENDBRANCH   3  11
BRANCH   7  20
ATOM     20  C   UNL d   1     -56.714 -99.247 -44.359  0.00  0.00     0.048 A 
ATOM     21  S   UNL d   1     -56.263 -99.868 -43.984  0.00  0.00    -0.085 SA
ATOM     22  C   UNL d   1     -55.489 -99.766 -44.216  0.00  0.00     0.035 A 
ATOM     23  C   UNL d   1     -55.412 -99.134 -44.706  0.00  0.00     0.007 A 
ATOM     24  C   UNL d   1     -56.188 -98.793 -44.805  0.00  0.00     0.009 A 
ENDBRANCH   7  20
BRANCH   6  25
ATOM     25  C   UNL d   1     -57.780 -98.970 -45.729  0.00  0.00     0.088 A 
ATOM     26  C   UNL d   1     -58.340 -98.930 -46.329  0.00  0.00     0.020 A 
ATOM     27  C   UNL d   1     -58.109 -98.919 -47.133  0.00  0.00     0.002 A 
ATOM     28  C   UNL d   1     -57.302 -98.949 -47.319  0.00  0.00     0.000 A 
ATOM     29  C   UNL d   1     -56.738 -98.990 -46.710  0.00  0.00     0.002 A 
ATOM     30  C   UNL d   1     -56.988 -99.000 -45.918  0.00  0.00     0.020 A 
ENDBRANCH   6  25
TORSDOF 5
ENDMDL
