MODEL 1
REMARK VINA RESULT:      73.4      0.000      0.000
REMARK  9 active torsions:
REMARK  status: ('A' for Active; 'I' for Inactive)
REMARK    1  A    between atoms: C_9  and  N_1 
REMARK    2  A    between atoms: C_6  and  C_2 
REMARK    3  A    between atoms: S_11  and  C_3 
REMARK    4  A    between atoms: C_7  and  C_6 
REMARK    5  A    between atoms: C_20  and  C_9 
REMARK       I    between atoms: N_10  and  C_12 
REMARK    6  A    between atoms: C_13  and  N_10 
REMARK    7  A    between atoms: C_19  and  S_11 
REMARK    8  A    between atoms: C_12  and  C_19 
REMARK    9  A    between atoms: C_23  and  C_20 
ROOT
ATOM      1  N   UNL d   1     -55.889 -99.304 -43.799  0.00  0.00    -0.268 N 
ATOM      2  C   UNL d   1     -56.596 -99.084 -44.164  0.00  0.00     0.172 A 
ATOM      3  C   UNL d   1     -56.022 -99.353 -42.987  0.00  0.00     0.201 A 
ATOM      4  N   UNL d   1     -57.167 -98.997 -43.580  0.00  0.00    -0.128 NA
ATOM      5  N   UNL d   1     -56.818 -99.162 -42.850  0.00  0.00    -0.121 NA
ENDROOT
BRANCH   3   6
ATOM      6  S   UNL d   1     -55.471 -99.554 -42.414  0.00  0.00    -0.043 SA
BRANCH   6   7
ATOM      7  C   UNL d   1     -54.907-100.137 -42.565  0.00  0.00     0.101 C 
BRANCH   7   8
ATOM      8  C   UNL d   1     -54.851-100.796 -42.070  0.00  0.00     0.286 C 
ATOM      9  N   UNL d   1     -54.902-100.691 -41.252  0.00  0.00    -0.205 NA
ATOM     10  O   UNL d   1     -54.746-101.547 -42.385  0.00  0.00    -0.265 OA
BRANCH   9  11
ATOM     11  C   UNL d   1     -54.848-101.336 -40.763  0.00  0.00     0.112 A 
ATOM     12  C   UNL d   1     -54.785-101.219 -39.949  0.00  0.00     0.158 A 
ATOM     13  F   UNL d   1     -54.778-100.454 -39.631  0.00  0.00    -0.203 F 
ATOM     14  C   UNL d   1     -54.729-101.863 -39.438  0.00  0.00     0.031 A 
ATOM     15  C   UNL d   1     -54.736-102.632 -39.755  0.00  0.00     0.002 A 
ATOM     16  C   UNL d   1     -54.799-102.745 -40.571  0.00  0.00     0.002 A 
ATOM     17  C   UNL d   1     -54.855-102.090 -41.074  0.00  0.00     0.021 A 
ENDBRANCH   9  11
ENDBRANCH   7   8
ENDBRANCH   6   7
ENDBRANCH   3   6
BRANCH   1  18
ATOM     18  C   UNL d   1     -55.172 -99.450 -44.182  0.00  0.00     0.084 C 
BRANCH  18  19
ATOM     19  C   UNL d   1     -54.728-100.128 -43.987  0.00  0.00     0.019 C 
BRANCH  19  20
ATOM     20  C   UNL d   1     -54.856-100.840 -44.393  0.00  0.00     0.002 A 
ATOM     21  C   UNL d   1     -55.076-100.820 -45.181  0.00  0.00     0.000 A 
ATOM     22  C   UNL d   1     -55.202-101.530 -45.580  0.00  0.00     0.000 A 
ATOM     23  C   UNL d   1     -55.106-102.252 -45.183  0.00  0.00     0.000 A 
ATOM     24  C   UNL d   1     -54.883-102.264 -44.386  0.00  0.00     0.000 A 
ATOM     25  C   UNL d   1     -54.759-101.547 -43.997  0.00  0.00     0.000 A 
ENDBRANCH  19  20
ENDBRANCH  18  19
ENDBRANCH   1  18
BRANCH   2  26
ATOM     26  C   UNL d   1     -56.712 -98.972 -44.975  0.00  0.00     0.057 C 
BRANCH  26  27
ATOM     27  C   UNL d   1     -57.472 -98.907 -45.280  0.00  0.00     0.067 A 
ATOM     28  N   UNL d   1     -58.172 -98.856 -44.844  0.00  0.00    -0.303 N 
ATOM     29  C   UNL d   1     -58.802 -98.798 -45.375  0.00  0.00     0.080 A 
ATOM     30  C   UNL d   1     -58.227 -98.861 -44.022  0.00  0.00     0.100 C 
ATOM     31  C   UNL d   1     -58.497 -98.814 -46.139  0.00  0.00     0.021 A 
ATOM     32  C   UNL d   1     -57.678 -98.881 -46.084  0.00  0.00     0.019 A 
ENDBRANCH  26  27
ENDBRANCH   2  26
TORSDOF 9
ENDMDL
