MODEL 1
REMARK VINA RESULT:      40.8      0.000      0.000
REMARK  6 active torsions:
REMARK  status: ('A' for Active; 'I' for Inactive)
REMARK    1  A    between atoms: C_6  and  C_1 
REMARK    2  A    between atoms: C_8  and  C_6 
REMARK    3  A    between atoms: O_14  and  C_10 
REMARK    4  A    between atoms: C_12  and  C_20 
REMARK    5  A    between atoms: O_21  and  C_12 
REMARK    6  A    between atoms: C_20  and  O_14 
ROOT
ATOM      1  C   UNL d   1     -54.742-102.369 -38.768  0.00  0.00     0.141 A 
ATOM      2  C   UNL d   1     -54.738-102.106 -40.083  0.00  0.00     0.105 A 
ATOM      3  O   UNL d   1     -54.749-102.722 -39.517  0.00  0.00    -0.304 OA
ATOM      4  C   UNL d   1     -54.726-101.388 -39.686  0.00  0.00     0.064 A 
ATOM      5  C   UNL d   1     -54.728-101.539 -38.864  0.00  0.00     0.220 A 
ATOM      6  C   UNL d   1     -54.739-102.122 -40.912  0.00  0.00     0.046 A 
ATOM      7  C   UNL d   1     -54.714-100.678 -40.114  0.00  0.00     0.007 A 
ATOM      8  C   UNL d   1     -54.728-101.416 -41.331  0.00  0.00     0.102 A 
ATOM      9  O   UNL d   1     -54.718-100.977 -38.261  0.00  0.00    -0.284 OA
ATOM     10  C   UNL d   1     -54.715-100.699 -40.935  0.00  0.00     0.025 A 
ATOM     11  C   UNL d   1     -54.752-102.844 -41.311  0.00  0.00     0.004 C 
ENDROOT
BRANCH   1  12
ATOM     12  C   UNL d   1     -54.748-102.770 -38.042  0.00  0.00     0.053 C 
BRANCH  12  13
ATOM     13  C   UNL d   1     -55.380-102.680 -37.529  0.00  0.00     0.102 A 
ATOM     14  O   UNL d   1     -56.169-102.612 -37.745  0.00  0.00    -0.305 OA
ATOM     15  C   UNL d   1     -56.617-102.531 -37.057  0.00  0.00     0.123 A 
ATOM     16  C   UNL d   1     -56.097-102.550 -36.412  0.00  0.00     0.029 A 
ATOM     17  C   UNL d   1     -55.340-102.642 -36.706  0.00  0.00     0.027 A 
ENDBRANCH  12  13
ENDBRANCH   1  12
BRANCH   8  18
ATOM     18  O   UNL d   1     -54.728-101.429 -42.154  0.00  0.00    -0.300 OA
BRANCH  18  19
ATOM     19  C   UNL d   1     -54.735-100.724 -42.585  0.00  0.00     0.191 C 
BRANCH  19  20
ATOM     20  C   UNL d   1     -55.144-100.677 -43.305  0.00  0.00     0.321 C 
ATOM     21  O   UNL d   1     -55.343-101.366 -43.713  0.00  0.00    -0.257 OA
BRANCH  20  22
ATOM     22  O   UNL d   1     -55.352 -99.950 -43.613  0.00  0.00    -0.294 OA
ATOM     23  C   UNL d   1     -55.506 -99.864 -44.414  0.00  0.00     0.185 C 
ENDBRANCH  20  22
ENDBRANCH  19  20
ENDBRANCH  18  19
ENDBRANCH   8  18
TORSDOF 6
ENDMDL
