MODEL 1
REMARK VINA RESULT:      -7.3      0.000      0.000
REMARK  3 active torsions:
REMARK  status: ('A' for Active; 'I' for Inactive)
REMARK    1  A    between atoms: C_9  and  C_1 
REMARK    2  A    between atoms: C_11  and  N_5 
REMARK    3  A    between atoms: N_8  and  C_9 
ROOT
ATOM      1  N   UNL d   1     -48.149  14.365  22.532  0.00  0.00    -0.301 N 
ATOM      2  N   UNL d   1     -46.675  13.640  22.325  0.00  0.00    -0.300 N 
ATOM      3  C   UNL d   1     -47.476  14.672  22.910  0.00  0.00     0.100 A 
ATOM      4  C   UNL d   1     -48.080  13.694  22.050  0.00  0.00     0.100 A 
ATOM      5  C   UNL d   1     -46.731  14.308  22.807  0.00  0.00     0.100 A 
ATOM      6  C   UNL d   1     -47.349  13.344  21.954  0.00  0.00     0.100 A 
ENDROOT
BRANCH   2   7
ATOM      7  C   UNL d   1     -45.941  13.273  22.216  0.00  0.00     0.084 C 
BRANCH   7   8
ATOM      8  C   UNL d   1     -45.804  12.554  22.586  0.00  0.00     0.059 A 
ATOM      9  C   UNL d   1     -45.034  12.249  22.586  0.00  0.00     0.214 A 
ATOM     10  C   UNL d   1     -44.887  11.518  22.960  0.00  0.00     0.121 A 
ATOM     11  O   UNL d   1     -44.420  12.651  22.227  0.00  0.00    -0.285 OA
ATOM     12  N   UNL d   1     -44.117  11.213  22.960  0.00  0.00    -0.241 NA
ATOM     13  C   UNL d   1     -45.502  11.106  23.325  0.00  0.00     0.032 A 
ATOM     14  C   UNL d   1     -43.973  10.485  23.333  0.00  0.00     0.099 A 
ATOM     15  C   UNL d   1     -44.587  10.073  23.698  0.00  0.00     0.021 A 
ATOM     16  C   UNL d   1     -45.346  10.388  23.689  0.00  0.00     0.004 A 
ATOM     17  C   UNL d   1     -46.258  11.418  23.318  0.00  0.00     0.059 A 
ATOM     18  C   UNL d   1     -46.419  12.141  22.951  0.00  0.00     0.016 A 
ATOM     19 CL   UNL d   1     -46.879  11.002  23.686  0.00  0.00    -0.082 Cl
ENDBRANCH   7   8
ENDBRANCH   2   7
BRANCH   1  20
ATOM     20  C   UNL d   1     -48.874  14.725  22.637  0.00  0.00     0.064 A 
ATOM     21  C   UNL d   1     -48.907  15.486  22.952  0.00  0.00     0.020 A 
ATOM     22  C   UNL d   1     -49.640  15.859  23.062  0.00  0.00     0.031 A 
ATOM     23  C   UNL d   1     -50.342  15.463  22.853  0.00  0.00     0.140 A 
ATOM     24  C   UNL d   1     -50.298  14.701  22.538  0.00  0.00     0.031 A 
ATOM     25  F   UNL d   1     -51.064  15.835  22.963  0.00  0.00    -0.204 F 
ATOM     26  C   UNL d   1     -49.565  14.335  22.432  0.00  0.00     0.020 A 
ENDBRANCH   1  20
TORSDOF 3
ENDMDL
MODEL 2
REMARK VINA RESULT:      -7.2      2.521      5.221
REMARK  3 active torsions:
REMARK  status: ('A' for Active; 'I' for Inactive)
REMARK    1  A    between atoms: C_9  and  C_1 
REMARK    2  A    between atoms: C_11  and  N_5 
REMARK    3  A    between atoms: N_8  and  C_9 
ROOT
ATOM      1  N   UNL d   1     -45.723  12.937  22.612  0.00  0.00    -0.301 N 
ATOM      2  N   UNL d   1     -47.234  13.232  23.221  0.00  0.00    -0.300 N 
ATOM      3  C   UNL d   1     -46.162  12.321  22.956  0.00  0.00     0.100 A 
ATOM      4  C   UNL d   1     -46.045  13.701  22.573  0.00  0.00     0.100 A 
ATOM      5  C   UNL d   1     -46.925  12.468  23.265  0.00  0.00     0.100 A 
ATOM      6  C   UNL d   1     -46.791  13.836  22.877  0.00  0.00     0.100 A 
ENDROOT
BRANCH   2   7
ATOM      7  C   UNL d   1     -47.989  13.386  23.524  0.00  0.00     0.084 C 
BRANCH   7   8
ATOM      8  C   UNL d   1     -48.626  13.389  23.006  0.00  0.00     0.059 A 
ATOM      9  C   UNL d   1     -49.127  14.048  23.000  0.00  0.00     0.214 A 
ATOM     10  C   UNL d   1     -49.777  14.060  22.477  0.00  0.00     0.121 A 
ATOM     11  O   UNL d   1     -48.996  14.684  23.497  0.00  0.00    -0.285 OA
ATOM     12  N   UNL d   1     -50.278  14.718  22.471  0.00  0.00    -0.241 NA
ATOM     13  C   UNL d   1     -49.917  13.422  21.973  0.00  0.00     0.032 A 
ATOM     14  C   UNL d   1     -50.925  14.728  21.949  0.00  0.00     0.099 A 
ATOM     15  C   UNL d   1     -51.064  14.090  21.445  0.00  0.00     0.021 A 
ATOM     16  C   UNL d   1     -50.558  13.442  21.463  0.00  0.00     0.004 A 
ATOM     17  C   UNL d   1     -49.413  12.776  21.989  0.00  0.00     0.059 A 
ATOM     18  C   UNL d   1     -48.766  12.751  22.502  0.00  0.00     0.016 A 
ATOM     19 CL   UNL d   1     -49.554  12.132  21.480  0.00  0.00    -0.082 Cl
ENDBRANCH   7   8
ENDBRANCH   2   7
BRANCH   1  20
ATOM     20  C   UNL d   1     -44.979  12.788  22.313  0.00  0.00     0.064 A 
ATOM     21  C   UNL d   1     -44.664  13.287  21.738  0.00  0.00     0.020 A 
ATOM     22  C   UNL d   1     -43.908  13.141  21.429  0.00  0.00     0.031 A 
ATOM     23  C   UNL d   1     -43.467  12.489  21.701  0.00  0.00     0.140 A 
ATOM     24  C   UNL d   1     -43.792  11.995  22.278  0.00  0.00     0.031 A 
ATOM     25  F   UNL d   1     -42.721  12.348  21.394  0.00  0.00    -0.204 F 
ATOM     26  C   UNL d   1     -44.546  12.145  22.581  0.00  0.00     0.020 A 
ENDBRANCH   1  20
TORSDOF 3
ENDMDL
MODEL 3
REMARK VINA RESULT:      -6.5      8.328      9.495
REMARK  3 active torsions:
REMARK  status: ('A' for Active; 'I' for Inactive)
REMARK    1  A    between atoms: C_9  and  C_1 
REMARK    2  A    between atoms: C_11  and  N_5 
REMARK    3  A    between atoms: N_8  and  C_9 
ROOT
ATOM      1  N   UNL d   1     -39.248  14.534  18.104  0.00  0.00    -0.301 N 
ATOM      2  N   UNL d   1     -39.841  14.772  19.631  0.00  0.00    -0.300 N 
ATOM      3  C   UNL d   1     -39.842  14.036  18.404  0.00  0.00     0.100 A 
ATOM      4  C   UNL d   1     -38.953  15.151  18.573  0.00  0.00     0.100 A 
ATOM      5  C   UNL d   1     -40.143  14.155  19.175  0.00  0.00     0.100 A 
ATOM      6  C   UNL d   1     -39.251  15.261  19.325  0.00  0.00     0.100 A 
ENDROOT
BRANCH   2   7
ATOM      7  C   UNL d   1     -40.133  14.897  20.396  0.00  0.00     0.084 C 
BRANCH   7   8
ATOM      8  C   UNL d   1     -39.657  14.700  21.035  0.00  0.00     0.059 A 
ATOM      9  C   UNL d   1     -39.636  15.212  21.685  0.00  0.00     0.214 A 
ATOM     10  C   UNL d   1     -39.154  15.019  22.338  0.00  0.00     0.121 A 
ATOM     11  O   UNL d   1     -40.077  15.900  21.696  0.00  0.00    -0.285 OA
ATOM     12  N   UNL d   1     -39.133  15.531  22.989  0.00  0.00    -0.241 NA
ATOM     13  C   UNL d   1     -38.706  14.326  22.334  0.00  0.00     0.032 A 
ATOM     14  C   UNL d   1     -38.653  15.336  23.638  0.00  0.00     0.099 A 
ATOM     15  C   UNL d   1     -38.205  14.644  23.634  0.00  0.00     0.021 A 
ATOM     16  C   UNL d   1     -38.236  14.146  22.981  0.00  0.00     0.004 A 
ATOM     17  C   UNL d   1     -38.736  13.829  21.685  0.00  0.00     0.059 A 
ATOM     18  C   UNL d   1     -39.209  14.008  21.031  0.00  0.00     0.016 A 
ATOM     19 CL   UNL d   1     -38.283  13.130  21.681  0.00  0.00    -0.082 Cl
ENDBRANCH   7   8
ENDBRANCH   2   7
BRANCH   1  20
ATOM     20  C   UNL d   1     -38.958  14.413  17.351  0.00  0.00     0.064 A 
ATOM     21  C   UNL d   1     -38.505  13.743  17.193  0.00  0.00     0.020 A 
ATOM     22  C   UNL d   1     -38.207  13.613  16.429  0.00  0.00     0.031 A 
ATOM     23  C   UNL d   1     -38.368  14.161  15.823  0.00  0.00     0.140 A 
ATOM     24  C   UNL d   1     -38.823  14.829  15.992  0.00  0.00     0.031 A 
ATOM     25  F   UNL d   1     -38.072  14.029  15.070  0.00  0.00    -0.204 F 
ATOM     26  C   UNL d   1     -39.117  14.952  16.754  0.00  0.00     0.020 A 
ENDBRANCH   1  20
TORSDOF 3
ENDMDL
MODEL 4
REMARK VINA RESULT:      -6.2      2.612      5.383
REMARK  3 active torsions:
REMARK  status: ('A' for Active; 'I' for Inactive)
REMARK    1  A    between atoms: C_9  and  C_1 
REMARK    2  A    between atoms: C_11  and  N_5 
REMARK    3  A    between atoms: N_8  and  C_9 
ROOT
ATOM      1  N   UNL d   1     -45.784  12.743  22.453  0.00  0.00    -0.301 N 
ATOM      2  N   UNL d   1     -47.354  12.832  22.969  0.00  0.00    -0.300 N 
ATOM      3  C   UNL d   1     -46.406  12.709  21.903  0.00  0.00     0.100 A 
ATOM      4  C   UNL d   1     -45.951  12.822  23.261  0.00  0.00     0.100 A 
ATOM      5  C   UNL d   1     -47.200  12.754  22.163  0.00  0.00     0.100 A 
ATOM      6  C   UNL d   1     -46.729  12.865  23.506  0.00  0.00     0.100 A 
ENDROOT
BRANCH   2   7
ATOM      7  C   UNL d   1     -48.137  12.878  23.235  0.00  0.00     0.084 C 
BRANCH   7   8
ATOM      8  C   UNL d   1     -48.540  13.586  23.148  0.00  0.00     0.059 A 
ATOM      9  C   UNL d   1     -49.346  13.609  23.336  0.00  0.00     0.214 A 
ATOM     10  C   UNL d   1     -49.763  14.326  23.250  0.00  0.00     0.121 A 
ATOM     11  O   UNL d   1     -49.736  12.943  23.603  0.00  0.00    -0.285 OA
ATOM     12  N   UNL d   1     -50.569  14.349  23.439  0.00  0.00    -0.241 NA
ATOM     13  C   UNL d   1     -49.376  15.003  22.981  0.00  0.00     0.032 A 
ATOM     14  C   UNL d   1     -50.983  15.064  23.352  0.00  0.00     0.099 A 
ATOM     15  C   UNL d   1     -50.596  15.741  23.083  0.00  0.00     0.021 A 
ATOM     16  C   UNL d   1     -49.795  15.703  22.900  0.00  0.00     0.004 A 
ATOM     17  C   UNL d   1     -48.579  14.967  22.798  0.00  0.00     0.059 A 
ATOM     18  C   UNL d   1     -48.153  14.263  22.878  0.00  0.00     0.016 A 
ATOM     19 CL   UNL d   1     -48.189  15.651  22.526  0.00  0.00    -0.082 Cl
ENDBRANCH   7   8
ENDBRANCH   2   7
BRANCH   1  20
ATOM     20  C   UNL d   1     -45.011  12.699  22.193  0.00  0.00     0.064 A 
ATOM     21  C   UNL d   1     -44.742  13.233  21.626  0.00  0.00     0.020 A 
ATOM     22  C   UNL d   1     -43.958  13.194  21.357  0.00  0.00     0.031 A 
ATOM     23  C   UNL d   1     -43.443  12.614  21.662  0.00  0.00     0.140 A 
ATOM     24  C   UNL d   1     -43.723  12.084  22.230  0.00  0.00     0.031 A 
ATOM     25  F   UNL d   1     -42.669  12.580  21.394  0.00  0.00    -0.204 F 
ATOM     26  C   UNL d   1     -44.505  12.128  22.493  0.00  0.00     0.020 A 
ENDBRANCH   1  20
TORSDOF 3
ENDMDL
MODEL 5
REMARK VINA RESULT:      -5.5      7.957      9.460
REMARK  3 active torsions:
REMARK  status: ('A' for Active; 'I' for Inactive)
REMARK    1  A    between atoms: C_9  and  C_1 
REMARK    2  A    between atoms: C_11  and  N_5 
REMARK    3  A    between atoms: N_8  and  C_9 
ROOT
ATOM      1  N   UNL d   1     -39.493  14.463  21.354  0.00  0.00    -0.301 N 
ATOM      2  N   UNL d   1     -40.265  15.382  20.214  0.00  0.00    -0.300 N 
ATOM      3  C   UNL d   1     -40.127  14.145  20.922  0.00  0.00     0.100 A 
ATOM      4  C   UNL d   1     -39.247  15.242  21.213  0.00  0.00     0.100 A 
ATOM      5  C   UNL d   1     -40.518  14.607  20.345  0.00  0.00     0.100 A 
ATOM      6  C   UNL d   1     -39.635  15.687  20.649  0.00  0.00     0.100 A 
ENDROOT
BRANCH   2   7
ATOM      7  C   UNL d   1     -40.647  15.847  19.645  0.00  0.00     0.084 C 
BRANCH   7   8
ATOM      8  C   UNL d   1     -40.350  15.853  18.880  0.00  0.00     0.059 A 
ATOM      9  C   UNL d   1     -40.885  15.880  18.249  0.00  0.00     0.214 A 
ATOM     10  C   UNL d   1     -40.591  15.887  17.468  0.00  0.00     0.121 A 
ATOM     11  O   UNL d   1     -41.691  15.901  18.379  0.00  0.00    -0.285 OA
ATOM     12  N   UNL d   1     -41.126  15.914  16.836  0.00  0.00    -0.241 NA
ATOM     13  C   UNL d   1     -39.778  15.866  17.329  0.00  0.00     0.032 A 
ATOM     14  C   UNL d   1     -40.832  15.920  16.060  0.00  0.00     0.099 A 
ATOM     15  C   UNL d   1     -40.019  15.900  15.921  0.00  0.00     0.021 A 
ATOM     16  C   UNL d   1     -39.500  15.873  16.558  0.00  0.00     0.004 A 
ATOM     17  C   UNL d   1     -39.261  15.839  17.962  0.00  0.00     0.059 A 
ATOM     18  C   UNL d   1     -39.537  15.832  18.741  0.00  0.00     0.016 A 
ATOM     19 CL   UNL d   1     -38.440  15.818  17.822  0.00  0.00    -0.082 Cl
ENDBRANCH   7   8
ENDBRANCH   2   7
BRANCH   1  20
ATOM     20  C   UNL d   1     -39.115  14.006  21.915  0.00  0.00     0.064 A 
ATOM     21  C   UNL d   1     -38.429  13.598  21.712  0.00  0.00     0.020 A 
ATOM     22  C   UNL d   1     -38.039  13.131  22.277  0.00  0.00     0.031 A 
ATOM     23  C   UNL d   1     -38.343  13.077  23.050  0.00  0.00     0.140 A 
ATOM     24  C   UNL d   1     -39.031  13.490  23.244  0.00  0.00     0.031 A 
ATOM     25  F   UNL d   1     -37.955  12.615  23.605  0.00  0.00    -0.204 F 
ATOM     26  C   UNL d   1     -39.414  13.952  22.677  0.00  0.00     0.020 A 
ENDBRANCH   1  20
TORSDOF 3
ENDMDL
MODEL 6
REMARK VINA RESULT:      -5.3      1.291      1.645
REMARK  3 active torsions:
REMARK  status: ('A' for Active; 'I' for Inactive)
REMARK    1  A    between atoms: C_9  and  C_1 
REMARK    2  A    between atoms: C_11  and  N_5 
REMARK    3  A    between atoms: N_8  and  C_9 
ROOT
ATOM      1  N   UNL d   1     -48.598  13.602  23.083  0.00  0.00    -0.301 N 
ATOM      2  N   UNL d   1     -47.348  12.528  23.242  0.00  0.00    -0.300 N 
ATOM      3  C   UNL d   1     -47.979  13.757  23.616  0.00  0.00     0.100 A 
ATOM      4  C   UNL d   1     -48.587  12.907  22.631  0.00  0.00     0.100 A 
ATOM      5  C   UNL d   1     -47.347  13.216  23.698  0.00  0.00     0.100 A 
ATOM      6  C   UNL d   1     -47.966  12.383  22.716  0.00  0.00     0.100 A 
ENDROOT
BRANCH   2   7
ATOM      7  C   UNL d   1     -46.726  11.986  23.317  0.00  0.00     0.084 C 
BRANCH   7   8
ATOM      8  C   UNL d   1     -46.012  12.157  22.951  0.00  0.00     0.059 A 
ATOM      9  C   UNL d   1     -45.361  11.669  23.106  0.00  0.00     0.214 A 
ATOM     10  C   UNL d   1     -44.631  11.835  22.738  0.00  0.00     0.121 A 
ATOM     11  O   UNL d   1     -45.423  11.030  23.612  0.00  0.00    -0.285 OA
ATOM     12  N   UNL d   1     -43.981  11.347  22.893  0.00  0.00    -0.241 NA
ATOM     13  C   UNL d   1     -44.561  12.478  22.225  0.00  0.00     0.032 A 
ATOM     14  C   UNL d   1     -43.255  11.515  22.525  0.00  0.00     0.099 A 
ATOM     15  C   UNL d   1     -43.184  12.158  22.013  0.00  0.00     0.021 A 
ATOM     16  C   UNL d   1     -43.840  12.633  21.869  0.00  0.00     0.004 A 
ATOM     17  C   UNL d   1     -45.212  12.953  22.081  0.00  0.00     0.059 A 
ATOM     18  C   UNL d   1     -45.941  12.800  22.439  0.00  0.00     0.016 A 
ATOM     19 CL   UNL d   1     -45.141  13.602  21.564  0.00  0.00    -0.082 Cl
ENDBRANCH   7   8
ENDBRANCH   2   7
BRANCH   1  20
ATOM     20  C   UNL d   1     -49.212  14.134  23.008  0.00  0.00     0.064 A 
ATOM     21  C   UNL d   1     -49.069  14.875  22.677  0.00  0.00     0.020 A 
ATOM     22  C   UNL d   1     -49.688  15.421  22.598  0.00  0.00     0.031 A 
ATOM     23  C   UNL d   1     -50.455  15.219  22.853  0.00  0.00     0.140 A 
ATOM     24  C   UNL d   1     -50.587  14.475  23.184  0.00  0.00     0.031 A 
ATOM     25  F   UNL d   1     -51.064  15.762  22.773  0.00  0.00    -0.204 F 
ATOM     26  C   UNL d   1     -49.966  13.935  23.260  0.00  0.00     0.020 A 
ENDBRANCH   1  20
TORSDOF 3
ENDMDL
MODEL 7
REMARK VINA RESULT:      -5.3      9.020     10.674
REMARK  3 active torsions:
REMARK  status: ('A' for Active; 'I' for Inactive)
REMARK    1  A    between atoms: C_9  and  C_1 
REMARK    2  A    between atoms: C_11  and  N_5 
REMARK    3  A    between atoms: N_8  and  C_9 
ROOT
ATOM      1  N   UNL d   1     -38.029  14.524  16.319  0.00  0.00    -0.301 N 
ATOM      2  N   UNL d   1     -38.075  14.990  17.907  0.00  0.00    -0.300 N 
ATOM      3  C   UNL d   1     -38.134  15.325  16.517  0.00  0.00     0.100 A 
ATOM      4  C   UNL d   1     -37.947  13.959  16.920  0.00  0.00     0.100 A 
ATOM      5  C   UNL d   1     -38.158  15.562  17.318  0.00  0.00     0.100 A 
ATOM      6  C   UNL d   1     -37.971  14.199  17.701  0.00  0.00     0.100 A 
ENDROOT
BRANCH   2   7
ATOM      7  C   UNL d   1     -38.097  15.216  18.704  0.00  0.00     0.084 C 
BRANCH   7   8
ATOM      8  C   UNL d   1     -38.823  15.236  19.086  0.00  0.00     0.059 A 
ATOM      9  C   UNL d   1     -38.860  15.555  19.849  0.00  0.00     0.214 A 
ATOM     10  C   UNL d   1     -39.594  15.579  20.244  0.00  0.00     0.121 A 
ATOM     11  O   UNL d   1     -38.191  15.846  20.218  0.00  0.00    -0.285 OA
ATOM     12  N   UNL d   1     -39.631  15.899  21.006  0.00  0.00    -0.241 NA
ATOM     13  C   UNL d   1     -40.273  15.288  19.877  0.00  0.00     0.032 A 
ATOM     14  C   UNL d   1     -40.363  15.922  21.398  0.00  0.00     0.099 A 
ATOM     15  C   UNL d   1     -41.043  15.630  21.032  0.00  0.00     0.021 A 
ATOM     16  C   UNL d   1     -40.990  15.316  20.274  0.00  0.00     0.004 A 
ATOM     17  C   UNL d   1     -40.223  14.974  19.123  0.00  0.00     0.059 A 
ATOM     18  C   UNL d   1     -39.502  14.944  18.720  0.00  0.00     0.016 A 
ATOM     19 CL   UNL d   1     -40.909  14.680  18.753  0.00  0.00    -0.082 Cl
ENDBRANCH   7   8
ENDBRANCH   2   7
BRANCH   1  20
ATOM     20  C   UNL d   1     -38.007  14.299  15.535  0.00  0.00     0.064 A 
ATOM     21  C   UNL d   1     -38.021  14.876  14.947  0.00  0.00     0.020 A 
ATOM     22  C   UNL d   1     -37.999  14.655  14.147  0.00  0.00     0.031 A 
ATOM     23  C   UNL d   1     -37.962  13.849  13.941  0.00  0.00     0.140 A 
ATOM     24  C   UNL d   1     -37.948  13.279  14.538  0.00  0.00     0.031 A 
ATOM     25  F   UNL d   1     -37.940  13.635  13.150  0.00  0.00    -0.204 F 
ATOM     26  C   UNL d   1     -37.970  13.506  15.332  0.00  0.00     0.020 A 
ENDBRANCH   1  20
TORSDOF 3
ENDMDL
MODEL 8
REMARK VINA RESULT:      -5.3      8.578      9.915
REMARK  3 active torsions:
REMARK  status: ('A' for Active; 'I' for Inactive)
REMARK    1  A    between atoms: C_9  and  C_1 
REMARK    2  A    between atoms: C_11  and  N_5 
REMARK    3  A    between atoms: N_8  and  C_9 
ROOT
ATOM      1  N   UNL d   1     -39.827  14.785  19.382  0.00  0.00    -0.301 N 
ATOM      2  N   UNL d   1     -38.666  15.082  18.240  0.00  0.00    -0.300 N 
ATOM      3  C   UNL d   1     -39.050  14.513  19.496  0.00  0.00     0.100 A 
ATOM      4  C   UNL d   1     -40.020  15.206  18.694  0.00  0.00     0.100 A 
ATOM      5  C   UNL d   1     -38.463  14.662  18.920  0.00  0.00     0.100 A 
ATOM      6  C   UNL d   1     -39.440  15.348  18.137  0.00  0.00     0.100 A 
ENDROOT
BRANCH   2   7
ATOM      7  C   UNL d   1     -38.091  15.234  17.664  0.00  0.00     0.084 C 
BRANCH   7   8
ATOM      8  C   UNL d   1     -38.061  14.751  17.002  0.00  0.00     0.059 A 
ATOM      9  C   UNL d   1     -38.031  15.105  16.254  0.00  0.00     0.214 A 
ATOM     10  C   UNL d   1     -38.000  14.620  15.576  0.00  0.00     0.121 A 
ATOM     11  O   UNL d   1     -38.030  15.918  16.172  0.00  0.00    -0.285 OA
ATOM     12  N   UNL d   1     -37.970  14.974  14.828  0.00  0.00    -0.241 NA
ATOM     13  C   UNL d   1     -38.000  13.799  15.651  0.00  0.00     0.032 A 
ATOM     14  C   UNL d   1     -37.940  14.490  14.154  0.00  0.00     0.099 A 
ATOM     15  C   UNL d   1     -37.940  13.668  14.230  0.00  0.00     0.021 A 
ATOM     16  C   UNL d   1     -37.970  13.331  14.979  0.00  0.00     0.004 A 
ATOM     17  C   UNL d   1     -38.030  13.461  16.397  0.00  0.00     0.059 A 
ATOM     18  C   UNL d   1     -38.061  13.929  17.077  0.00  0.00     0.016 A 
ATOM     19 CL   UNL d   1     -38.030  12.632  16.473  0.00  0.00    -0.082 Cl
ENDBRANCH   7   8
ENDBRANCH   2   7
BRANCH   1  20
ATOM     20  C   UNL d   1     -40.396  14.636  19.948  0.00  0.00     0.064 A 
ATOM     21  C   UNL d   1     -40.747  15.266  20.346  0.00  0.00     0.020 A 
ATOM     22  C   UNL d   1     -41.327  15.123  20.923  0.00  0.00     0.031 A 
ATOM     23  C   UNL d   1     -41.552  14.340  21.099  0.00  0.00     0.140 A 
ATOM     24  C   UNL d   1     -41.193  13.716  20.694  0.00  0.00     0.031 A 
ATOM     25  F   UNL d   1     -42.124  14.203  21.669  0.00  0.00    -0.204 F 
ATOM     26  C   UNL d   1     -40.618  13.866  20.121  0.00  0.00     0.020 A 
ENDBRANCH   1  20
TORSDOF 3
ENDMDL
MODEL 9
REMARK VINA RESULT:      -4.8      2.852      5.509
REMARK  3 active torsions:
REMARK  status: ('A' for Active; 'I' for Inactive)
REMARK    1  A    between atoms: C_9  and  C_1 
REMARK    2  A    between atoms: C_11  and  N_5 
REMARK    3  A    between atoms: N_8  and  C_9 
ROOT
ATOM      1  N   UNL d   1     -45.577  11.210  23.398  0.00  0.00    -0.301 N 
ATOM      2  N   UNL d   1     -47.153  11.676  23.597  0.00  0.00    -0.300 N 
ATOM      3  C   UNL d   1     -46.190  10.660  23.294  0.00  0.00     0.100 A 
ATOM      4  C   UNL d   1     -45.756  11.994  23.602  0.00  0.00     0.100 A 
ATOM      5  C   UNL d   1     -46.987  10.893  23.394  0.00  0.00     0.100 A 
ATOM      6  C   UNL d   1     -46.536  12.214  23.698  0.00  0.00     0.100 A 
ENDROOT
BRANCH   2   7
ATOM      7  C   UNL d   1     -47.939  11.915  23.698  0.00  0.00     0.084 C 
BRANCH   7   8
ATOM      8  C   UNL d   1     -48.310  12.313  23.084  0.00  0.00     0.059 A 
ATOM      9  C   UNL d   1     -49.058  12.055  22.839  0.00  0.00     0.214 A 
ATOM     10  C   UNL d   1     -49.441  12.455  22.215  0.00  0.00     0.121 A 
ATOM     11  O   UNL d   1     -49.423  11.419  23.199  0.00  0.00    -0.285 OA
ATOM     12  N   UNL d   1     -50.189  12.197  21.971  0.00  0.00    -0.241 NA
ATOM     13  C   UNL d   1     -49.078  13.098  21.848  0.00  0.00     0.032 A 
ATOM     14  C   UNL d   1     -50.569  12.596  21.350  0.00  0.00     0.099 A 
ATOM     15  C   UNL d   1     -50.206  13.239  20.982  0.00  0.00     0.021 A 
ATOM     16  C   UNL d   1     -49.464  13.483  21.236  0.00  0.00     0.004 A 
ATOM     17  C   UNL d   1     -48.339  13.343  22.099  0.00  0.00     0.059 A 
ATOM     18  C   UNL d   1     -47.947  12.957  22.716  0.00  0.00     0.016 A 
ATOM     19 CL   UNL d   1     -47.972  13.992  21.728  0.00  0.00    -0.082 Cl
ENDBRANCH   7   8
ENDBRANCH   2   7
BRANCH   1  20
ATOM     20  C   UNL d   1     -44.801  10.976  23.299  0.00  0.00     0.064 A 
ATOM     21  C   UNL d   1     -44.525  10.308  23.694  0.00  0.00     0.020 A 
ATOM     22  C   UNL d   1     -43.737  10.064  23.598  0.00  0.00     0.031 A 
ATOM     23  C   UNL d   1     -43.227  10.496  23.102  0.00  0.00     0.140 A 
ATOM     24  C   UNL d   1     -43.514  11.164  22.710  0.00  0.00     0.031 A 
ATOM     25  F   UNL d   1     -42.450  10.251  23.010  0.00  0.00    -0.204 F 
ATOM     26  C   UNL d   1     -44.298  11.401  22.810  0.00  0.00     0.020 A 
ENDBRANCH   1  20
TORSDOF 3
ENDMDL
