MODEL 1
REMARK VINA RESULT:      -3.4      0.000      0.000
REMARK  6 active torsions:
REMARK  status: ('A' for Active; 'I' for Inactive)
REMARK    1  A    between atoms: C_6  and  N_1 
REMARK    2  A    between atoms: C_13  and  C_6 
REMARK    3  A    between atoms: N_12  and  C_22 
REMARK    4  A    between atoms: C_23  and  N_12 
REMARK    5  A    between atoms: C_22  and  C_13 
REMARK    6  A    between atoms: C_20  and  C_23 
ROOT
ATOM      1  N   UNL d   1      58.474  -0.984  29.606  0.00  0.00    -0.303 N 
ATOM      2  C   UNL d   1      59.661  -0.949  29.001  0.00  0.00     0.018 A 
ATOM      3  C   UNL d   1      59.410  -1.740  29.022  0.00  0.00     0.018 A 
ATOM      4  C   UNL d   1      59.084  -0.483  29.362  0.00  0.00     0.064 A 
ATOM      5  C   UNL d   1      58.671  -1.752  29.399  0.00  0.00     0.064 A 
ATOM      6  C   UNL d   1      58.276  -2.463  29.504  0.00  0.00     0.018 A 
ATOM      7  C   UNL d   1      59.192   0.329  29.418  0.00  0.00     0.018 A 
ATOM      8  C   UNL d   1      59.749  -2.439  28.752  0.00  0.00     0.008 A 
ATOM      9  C   UNL d   1      60.346  -0.603  28.697  0.00  0.00     0.008 A 
ATOM     10  C   UNL d   1      60.448   0.213  28.757  0.00  0.00     0.035 A 
ATOM     11  C   UNL d   1      59.354  -3.161  28.855  0.00  0.00     0.035 A 
ATOM     12  C   UNL d   1      58.613  -3.177  29.233  0.00  0.00     0.008 A 
ATOM     13  C   UNL d   1      59.871   0.680  29.117  0.00  0.00     0.008 A 
ATOM     14 BR   UNL d   1      61.129   0.561  28.455  0.00  0.00    -0.049 Br
ATOM     15 BR   UNL d   1      59.693  -3.860  28.585  0.00  0.00    -0.049 Br
ENDROOT
BRANCH   1  16
ATOM     16  C   UNL d   1      57.786  -0.742  29.992  0.00  0.00     0.124 C 
BRANCH  16  17
ATOM     17  C   UNL d   1      57.773  -0.659  30.810  0.00  0.00     0.232 C 
ATOM     18  O   UNL d   1      58.366  -0.218  31.189  0.00  0.00    -0.283 OA
BRANCH  17  19
ATOM     19  C   UNL d   1      57.175  -1.011  31.258  0.00  0.00     0.142 C 
BRANCH  19  20
ATOM     20  N   UNL d   1      56.864  -0.611  31.910  0.00  0.00    -0.237 NA
BRANCH  20  21
ATOM     21  C   UNL d   1      56.177  -0.884  32.276  0.00  0.00     0.124 C 
BRANCH  21  22
ATOM     22  C   UNL d   1      55.811  -0.438  32.853  0.00  0.00     0.119 A 
ATOM     23  O   UNL d   1      55.630   0.371  32.798  0.00  0.00    -0.304 OA
ATOM     24  C   UNL d   1      55.261   0.596  33.507  0.00  0.00     0.123 A 
ATOM     25  C   UNL d   1      55.218  -0.071  33.992  0.00  0.00     0.029 A 
ATOM     26  C   UNL d   1      55.554  -0.704  33.591  0.00  0.00     0.028 A 
ENDBRANCH  21  22
ENDBRANCH  20  21
ENDBRANCH  19  20
ENDBRANCH  17  19
ENDBRANCH  16  17
ENDBRANCH   1  16
TORSDOF 6
ENDMDL
MODEL 2
REMARK VINA RESULT:      -0.5      2.885      5.803
REMARK  6 active torsions:
REMARK  status: ('A' for Active; 'I' for Inactive)
REMARK    1  A    between atoms: C_6  and  N_1 
REMARK    2  A    between atoms: C_13  and  C_6 
REMARK    3  A    between atoms: N_12  and  C_22 
REMARK    4  A    between atoms: C_23  and  N_12 
REMARK    5  A    between atoms: C_22  and  C_13 
REMARK    6  A    between atoms: C_20  and  C_23 
ROOT
ATOM      1  N   UNL d   1      56.425   0.671  33.060  0.00  0.00    -0.303 N 
ATOM      2  C   UNL d   1      56.531   0.669  34.388  0.00  0.00     0.018 A 
ATOM      3  C   UNL d   1      55.724   0.663  34.198  0.00  0.00     0.018 A 
ATOM      4  C   UNL d   1      56.964   0.673  33.685  0.00  0.00     0.064 A 
ATOM      5  C   UNL d   1      55.667   0.665  33.370  0.00  0.00     0.064 A 
ATOM      6  C   UNL d   1      54.930   0.661  33.010  0.00  0.00     0.018 A 
ATOM      7  C   UNL d   1      57.785   0.679  33.712  0.00  0.00     0.018 A 
ATOM      8  C   UNL d   1      55.043   0.658  34.659  0.00  0.00     0.008 A 
ATOM      9  C   UNL d   1      56.920   0.670  35.116  0.00  0.00     0.008 A 
ATOM     10  C   UNL d   1      57.744   0.675  35.135  0.00  0.00     0.035 A 
ATOM     11  C   UNL d   1      54.295   0.653  34.301  0.00  0.00     0.035 A 
ATOM     12  C   UNL d   1      54.234   0.655  33.471  0.00  0.00     0.008 A 
ATOM     13  C   UNL d   1      58.177   0.680  34.433  0.00  0.00     0.008 A 
ATOM     14 BR   UNL d   1      58.134   0.676  35.860  0.00  0.00    -0.049 Br
ATOM     15 BR   UNL d   1      53.615   0.647  34.762  0.00  0.00    -0.049 Br
ENDROOT
BRANCH   1  16
ATOM     16  C   UNL d   1      56.626   0.674  32.259  0.00  0.00     0.124 C 
BRANCH  16  17
ATOM     17  C   UNL d   1      56.783  -0.030  31.865  0.00  0.00     0.232 C 
ATOM     18  O   UNL d   1      56.231  -0.650  31.893  0.00  0.00    -0.283 OA
BRANCH  17  19
ATOM     19  C   UNL d   1      57.485  -0.125  31.441  0.00  0.00     0.142 C 
BRANCH  19  20
ATOM     20  N   UNL d   1      57.465  -0.475  30.693  0.00  0.00    -0.237 NA
BRANCH  20  21
ATOM     21  C   UNL d   1      57.931  -0.174  30.081  0.00  0.00     0.124 C 
BRANCH  21  22
ATOM     22  C   UNL d   1      58.416  -0.669  29.649  0.00  0.00     0.119 A 
ATOM     23  O   UNL d   1      58.172  -1.171  29.034  0.00  0.00    -0.304 OA
ATOM     24  C   UNL d   1      58.844  -1.570  28.753  0.00  0.00     0.123 A 
ATOM     25  C   UNL d   1      59.493  -1.313  29.194  0.00  0.00     0.029 A 
ATOM     26  C   UNL d   1      59.231  -0.761  29.742  0.00  0.00     0.028 A 
ENDBRANCH  21  22
ENDBRANCH  20  21
ENDBRANCH  19  20
ENDBRANCH  17  19
ENDBRANCH  16  17
ENDBRANCH   1  16
TORSDOF 6
ENDMDL
