MODEL 1
REMARK VINA RESULT:      -0.8      0.000      0.000
REMARK  4 active torsions:
REMARK  status: ('A' for Active; 'I' for Inactive)
REMARK    1  A    between atoms: N_2  and  S_1 
REMARK    2  A    between atoms: C_4  and  S_1 
REMARK       I    between atoms: C_3  and  N_7 
REMARK    3  A    between atoms: C_6  and  C_3 
REMARK    4  A    between atoms: N_7  and  C_12 
ROOT
ATOM      1  N   UNL d   1      32.425  22.882 -21.782  0.00  0.00    -0.230 N 
ATOM      2  C   UNL d   1      32.586  22.097 -21.587  0.00  0.00     0.076 A 
ATOM      3  C   UNL d   1      32.794  21.554 -22.169  0.00  0.00     0.037 A 
ATOM      4  C   UNL d   1      32.954  20.765 -21.958  0.00  0.00     0.086 A 
ATOM      5  C   UNL d   1      32.537  21.850 -20.792  0.00  0.00     0.017 A 
ATOM      6  C   UNL d   1      32.696  21.064 -20.585  0.00  0.00     0.003 A 
ATOM      7  C   UNL d   1      32.216  23.422 -21.190  0.00  0.00     0.092 A 
ATOM      8  C   UNL d   1      32.904  20.528 -21.174  0.00  0.00     0.019 A 
ATOM      9  C   UNL d   1      32.167  23.182 -20.403  0.00  0.00     0.020 A 
ATOM     10  C   UNL d   1      32.327  22.398 -20.204  0.00  0.00     0.003 A 
ENDROOT
BRANCH   4  11
ATOM     11  N   UNL d   1      33.163  20.220 -22.543  0.00  0.00    -0.208 NA
ATOM     12  C   UNL d   1      32.619  19.658 -22.796  0.00  0.00     0.282 C 
ATOM     13  O   UNL d   1      31.859  19.629 -22.471  0.00  0.00    -0.265 OA
BRANCH  12  14
ATOM     14  C   UNL d   1      32.814  19.115 -23.372  0.00  0.00     0.096 A 
ATOM     15  C   UNL d   1      32.885  18.307 -23.171  0.00  0.00     0.065 A 
ATOM     16 CL   UNL d   1      32.758  18.070 -22.392  0.00  0.00    -0.082 Cl
ATOM     17  C   UNL d   1      33.081  17.756 -23.750  0.00  0.00     0.012 A 
ATOM     18  C   UNL d   1      33.208  18.003 -24.532  0.00  0.00     0.003 A 
ATOM     19  C   UNL d   1      33.137  18.802 -24.730  0.00  0.00     0.030 A 
ATOM     20  C   UNL d   1      32.941  19.350 -24.148  0.00  0.00     0.146 A 
ATOM     21  F   UNL d   1      32.872  20.140 -24.349  0.00  0.00    -0.204 F 
ENDBRANCH  12  14
ENDBRANCH   4  11
BRANCH   1  22
ATOM     22  S   UNL d   1      32.477  23.117 -22.576  0.00  0.00     0.277 S 
ATOM     23  O   UNL d   1      31.815  22.644 -22.739  0.00  0.00    -0.199 OA
ATOM     24  O   UNL d   1      33.127  23.581 -22.409  0.00  0.00    -0.199 OA
BRANCH  22  25
ATOM     25  C   UNL d   1      32.516  23.341 -23.364  0.00  0.00     0.133 A 
ATOM     26  S   UNL d   1      31.874  23.480 -23.862  0.00  0.00    -0.074 SA
ATOM     27  C   UNL d   1      32.160  23.691 -24.600  0.00  0.00     0.036 A 
ATOM     28  C   UNL d   1      32.984  23.685 -24.569  0.00  0.00     0.008 A 
ATOM     29  C   UNL d   1      33.203  23.468 -23.799  0.00  0.00     0.020 A 
ENDBRANCH  22  25
ENDBRANCH   1  22
TORSDOF 4
ENDMDL
MODEL 2
REMARK VINA RESULT:       0.7      3.878      5.922
REMARK  4 active torsions:
REMARK  status: ('A' for Active; 'I' for Inactive)
REMARK    1  A    between atoms: N_2  and  S_1 
REMARK    2  A    between atoms: C_4  and  S_1 
REMARK       I    between atoms: C_3  and  N_7 
REMARK    3  A    between atoms: C_6  and  C_3 
REMARK    4  A    between atoms: N_7  and  C_12 
ROOT
ATOM      1  N   UNL d   1      32.558  17.066 -24.189  0.00  0.00    -0.230 N 
ATOM      2  C   UNL d   1      31.870  16.612 -24.239  0.00  0.00     0.076 A 
ATOM      3  C   UNL d   1      31.187  16.842 -23.841  0.00  0.00     0.037 A 
ATOM      4  C   UNL d   1      30.501  16.375 -23.901  0.00  0.00     0.086 A 
ATOM      5  C   UNL d   1      31.867  15.915 -24.695  0.00  0.00     0.017 A 
ATOM      6  C   UNL d   1      31.182  15.453 -24.752  0.00  0.00     0.003 A 
ATOM      7  C   UNL d   1      33.241  16.828 -24.592  0.00  0.00     0.092 A 
ATOM      8  C   UNL d   1      30.503  15.689 -24.352  0.00  0.00     0.019 A 
ATOM      9  C   UNL d   1      33.241  16.139 -25.045  0.00  0.00     0.020 A 
ATOM     10  C   UNL d   1      32.556  15.684 -25.097  0.00  0.00     0.003 A 
ENDROOT
BRANCH   4  11
ATOM     11  N   UNL d   1      29.814  16.605 -23.501  0.00  0.00    -0.208 NA
ATOM     12  C   UNL d   1      29.090  16.602 -23.890  0.00  0.00     0.282 C 
ATOM     13  O   UNL d   1      29.036  16.368 -24.682  0.00  0.00    -0.265 OA
BRANCH  12  14
ATOM     14  C   UNL d   1      28.407  16.827 -23.507  0.00  0.00     0.096 A 
ATOM     15  C   UNL d   1      28.160  17.625 -23.538  0.00  0.00     0.065 A 
ATOM     16 CL   UNL d   1      28.612  18.173 -23.956  0.00  0.00    -0.082 Cl
ATOM     17  C   UNL d   1      27.471  17.856 -23.153  0.00  0.00     0.012 A 
ATOM     18  C   UNL d   1      27.022  17.297 -22.735  0.00  0.00     0.003 A 
ATOM     19  C   UNL d   1      27.266  16.509 -22.705  0.00  0.00     0.030 A 
ATOM     20  C   UNL d   1      27.957  16.282 -23.091  0.00  0.00     0.146 A 
ATOM     21  F   UNL d   1      28.194  15.500 -23.058  0.00  0.00    -0.204 F 
ENDBRANCH  12  14
ENDBRANCH   4  11
BRANCH   1  22
ATOM     22  S   UNL d   1      32.550  17.757 -23.732  0.00  0.00     0.277 S 
ATOM     23  O   UNL d   1      32.224  18.160 -24.379  0.00  0.00    -0.199 OA
ATOM     24  O   UNL d   1      32.872  17.356 -23.098  0.00  0.00    -0.199 OA
BRANCH  22  25
ATOM     25  C   UNL d   1      32.537  18.449 -23.291  0.00  0.00     0.133 A 
ATOM     26  S   UNL d   1      33.030  18.629 -22.655  0.00  0.00    -0.074 SA
ATOM     27  C   UNL d   1      32.830  19.373 -22.376  0.00  0.00     0.036 A 
ATOM     28  C   UNL d   1      32.210  19.664 -22.836  0.00  0.00     0.008 A 
ATOM     29  C   UNL d   1      32.029  19.087 -23.404  0.00  0.00     0.020 A 
ENDBRANCH  22  25
ENDBRANCH   1  22
TORSDOF 4
ENDMDL
