MODEL 1
REMARK VINA RESULT:      27.8      0.000      0.000
REMARK  4 active torsions:
REMARK  status: ('A' for Active; 'I' for Inactive)
REMARK    1  A    between atoms: C_7  and  N_1 
REMARK    2  A    between atoms: C_6  and  C_4 
REMARK    3  A    between atoms: C_12  and  C_6 
REMARK    4  A    between atoms: C_8  and  C_7 
ROOT
ATOM      1  N   UNL d   1     -55.033-100.624 -44.193  0.00  0.00    -0.229 N 
ATOM      2  C   UNL d   1     -55.013-100.204 -43.483  0.00  0.00     0.299 A 
ATOM      3  C   UNL d   1     -55.384-100.143 -44.776  0.00  0.00     0.274 A 
ATOM      4  C   UNL d   1     -55.583 -99.417 -44.422  0.00  0.00     0.090 A 
ATOM      5  S   UNL d   1     -55.355 -99.455 -43.625  0.00  0.00    -0.022 SA
ATOM      6  O   UNL d   1     -54.712-100.473 -42.761  0.00  0.00    -0.259 OA
ATOM      7  O   UNL d   1     -55.509-100.354 -45.565  0.00  0.00    -0.266 OA
ENDROOT
BRANCH   4   8
ATOM      8  C   UNL d   1     -55.942 -98.777 -44.794  0.00  0.00     0.011 C 
BRANCH   8   9
ATOM      9  C   UNL d   1     -56.758 -98.774 -44.661  0.00  0.00     0.001 A 
ATOM     10  C   UNL d   1     -57.280 -98.760 -45.303  0.00  0.00     0.003 A 
ATOM     11  C   UNL d   1     -58.092 -98.757 -45.168  0.00  0.00     0.042 A 
ATOM     12  C   UNL d   1     -58.385 -98.767 -44.398  0.00  0.00     0.196 A 
ATOM     13  C   UNL d   1     -57.861 -98.781 -43.764  0.00  0.00     0.042 A 
ATOM     14  O   UNL d   1     -59.203 -98.764 -44.261  0.00  0.00    -0.287 OA
ATOM     15  C   UNL d   1     -57.051 -98.784 -43.890  0.00  0.00     0.003 A 
ENDBRANCH   8   9
ENDBRANCH   4   8
BRANCH   1  16
ATOM     16  C   UNL d   1     -54.711-101.381 -44.134  0.00  0.00     0.157 C 
BRANCH  16  17
ATOM     17  C   UNL d   1     -55.087-102.023 -44.500  0.00  0.00     0.230 C 
ATOM     18  O   UNL d   1     -55.836-102.267 -44.246  0.00  0.00    -0.643 OA
ATOM     19  O   UNL d   1     -54.715-102.423 -45.118  0.00  0.00    -0.643 OA
ENDBRANCH  16  17
ENDBRANCH   1  16
TORSDOF 4
ENDMDL
