MODEL 1
REMARK VINA RESULT:      71.5      0.000      0.000
REMARK  3 active torsions:
REMARK  status: ('A' for Active; 'I' for Inactive)
REMARK    1  A    between atoms: C_11  and  N_1 
REMARK    2  A    between atoms: C_3  and  C_6 
REMARK    3  A    between atoms: C_6  and  N_5 
ROOT
ATOM      1  N   UNL d   1     -55.665-100.845 -43.441  0.00  0.00    -0.301 N 
ATOM      2  N   UNL d   1     -56.430 -99.465 -43.963  0.00  0.00    -0.300 N 
ATOM      3  C   UNL d   1     -55.986-100.302 -42.886  0.00  0.00     0.100 A 
ATOM      4  C   UNL d   1     -55.735-100.685 -44.247  0.00  0.00     0.100 A 
ATOM      5  C   UNL d   1     -56.109-100.009 -44.518  0.00  0.00     0.100 A 
ATOM      6  C   UNL d   1     -56.369 -99.611 -43.152  0.00  0.00     0.100 A 
ENDROOT
BRANCH   2   7
ATOM      7  C   UNL d   1     -56.812 -98.774 -44.229  0.00  0.00     0.080 C 
BRANCH   7   8
ATOM      8  C   UNL d   1     -57.492 -98.830 -44.693  0.00  0.00     0.019 A 
ATOM      9  C   UNL d   1     -58.248 -98.828 -44.329  0.00  0.00     0.022 A 
ATOM     10  C   UNL d   1     -58.927 -98.883 -44.792  0.00  0.00     0.120 A 
ATOM     11  C   UNL d   1     -58.303 -98.770 -43.513  0.00  0.00     0.003 A 
ATOM     12  N   UNL d   1     -59.671 -98.882 -44.447  0.00  0.00    -0.241 NA
ATOM     13  C   UNL d   1     -58.860 -98.942 -45.627  0.00  0.00     0.213 A 
ATOM     14  C   UNL d   1     -59.739 -98.823 -43.611  0.00  0.00     0.099 A 
ATOM     15  C   UNL d   1     -59.060 -98.767 -43.148  0.00  0.00     0.021 A 
ATOM     16  C   UNL d   1     -58.108 -98.944 -45.986  0.00  0.00     0.044 A 
ATOM     17  O   UNL d   1     -59.539 -98.998 -46.090  0.00  0.00    -0.285 OA
ATOM     18  C   UNL d   1     -57.429 -98.889 -45.522  0.00  0.00     0.005 A 
ENDBRANCH   7   8
ENDBRANCH   2   7
BRANCH   1  19
ATOM     19  C   UNL d   1     -55.335-101.453 -42.973  0.00  0.00     0.064 A 
ATOM     20  C   UNL d   1     -55.030-101.463 -42.217  0.00  0.00     0.018 A 
ATOM     21  C   UNL d   1     -54.732-102.197 -41.906  0.00  0.00     0.002 A 
ATOM     22  C   UNL d   1     -54.749-102.868 -42.343  0.00  0.00     0.000 A 
ATOM     23  C   UNL d   1     -55.062-102.847 -43.114  0.00  0.00     0.002 A 
ATOM     24  C   UNL d   1     -55.352-102.144 -43.424  0.00  0.00     0.018 A 
ENDBRANCH   1  19
TORSDOF 3
ENDMDL
