MODEL 1
REMARK VINA RESULT:      56.2      0.000      0.000
REMARK  7 active torsions:
REMARK  status: ('A' for Active; 'I' for Inactive)
REMARK    1  A    between atoms: S_8  and  C_3 
REMARK    2  A    between atoms: C_4  and  C_15 
REMARK       I    between atoms: N_7  and  C_4 
REMARK    3  A    between atoms: C_13  and  C_5 
REMARK    4  A    between atoms: C_6  and  C_9 
REMARK    5  A    between atoms: C_9  and  N_7 
REMARK    6  A    between atoms: C_15  and  S_8 
REMARK    7  A    between atoms: O_17  and  C_11 
ROOT
ATOM      1  S   UNL d   1     -49.182  28.146  33.528  0.00  0.00    -0.061 SA
ENDROOT
BRANCH   1   2
ATOM      2  C   UNL d   1     -49.728  27.518  33.490  0.00  0.00     0.133 A 
ATOM      3  N   UNL d   1     -50.534  27.666  33.382  0.00  0.00    -0.141 NA
ATOM      4  N   UNL d   1     -51.069  27.031  33.346  0.00  0.00    -0.148 NA
ATOM      5  C   UNL d   1     -50.798  26.256  33.417  0.00  0.00     0.103 A 
ATOM      6  C   UNL d   1     -49.992  26.108  33.524  0.00  0.00     0.023 A 
ATOM      7  C   UNL d   1     -49.458  26.734  33.561  0.00  0.00     0.029 A 
BRANCH   5   8
ATOM      8  C   UNL d   1     -51.332  25.629  33.380  0.00  0.00     0.022 A 
ATOM      9  C   UNL d   1     -51.053  24.854  33.351  0.00  0.00     0.022 A 
ATOM     10  C   UNL d   1     -51.588  24.223  33.314  0.00  0.00     0.099 A 
ATOM     11  N   UNL d   1     -52.405  24.372  33.307  0.00  0.00    -0.242 NA
ATOM     12  C   UNL d   1     -52.682  25.151  33.336  0.00  0.00     0.099 A 
ATOM     13  C   UNL d   1     -52.148  25.778  33.373  0.00  0.00     0.022 A 
ENDBRANCH   5   8
ENDBRANCH   1   2
BRANCH   1  14
ATOM     14  C   UNL d   1     -49.413  28.884  33.819  0.00  0.00     0.099 C 
BRANCH  14  15
ATOM     15  C   UNL d   1     -48.869  29.355  34.220  0.00  0.00     0.286 C 
ATOM     16  N   UNL d   1     -48.898  30.185  34.144  0.00  0.00    -0.206 NA
ATOM     17  O   UNL d   1     -48.292  29.004  34.699  0.00  0.00    -0.265 OA
BRANCH  16  18
ATOM     18  C   UNL d   1     -48.353  30.655  34.545  0.00  0.00     0.104 C 
BRANCH  18  19
ATOM     19  C   UNL d   1     -48.215  31.435  34.297  0.00  0.00     0.042 A 
ATOM     20  C   UNL d   1     -47.570  31.854  34.591  0.00  0.00     0.096 A 
ATOM     21  C   UNL d   1     -47.432  32.630  34.344  0.00  0.00     0.024 A 
ATOM     22  C   UNL d   1     -47.940  32.987  33.802  0.00  0.00     0.002 A 
ATOM     23  C   UNL d   1     -48.586  32.568  33.508  0.00  0.00     0.000 A 
ATOM     24  C   UNL d   1     -48.723  31.792  33.755  0.00  0.00     0.004 A 
BRANCH  20  25
ATOM     25  O   UNL d   1     -47.053  31.485  35.144  0.00  0.00    -0.328 OA
ATOM     26  C   UNL d   1     -47.277  31.422  35.936  0.00  0.00     0.181 C 
ENDBRANCH  20  25
ENDBRANCH  18  19
ENDBRANCH  16  18
ENDBRANCH  14  15
ENDBRANCH   1  14
TORSDOF 7
ENDMDL
MODEL 2
REMARK VINA RESULT:      58.1      1.708      6.586
REMARK  7 active torsions:
REMARK  status: ('A' for Active; 'I' for Inactive)
REMARK    1  A    between atoms: S_8  and  C_3 
REMARK    2  A    between atoms: C_4  and  C_15 
REMARK       I    between atoms: N_7  and  C_4 
REMARK    3  A    between atoms: C_13  and  C_5 
REMARK    4  A    between atoms: C_6  and  C_9 
REMARK    5  A    between atoms: C_9  and  N_7 
REMARK    6  A    between atoms: C_15  and  S_8 
REMARK    7  A    between atoms: O_17  and  C_11 
ROOT
ATOM      1  S   UNL d   1     -49.170  27.500  34.851  0.00  0.00    -0.061 SA
ENDROOT
BRANCH   1   2
ATOM      2  C   UNL d   1     -48.776  28.228  34.946  0.00  0.00     0.133 A 
ATOM      3  N   UNL d   1     -48.942  28.865  34.448  0.00  0.00    -0.141 NA
ATOM      4  N   UNL d   1     -48.542  29.587  34.552  0.00  0.00    -0.148 NA
ATOM      5  C   UNL d   1     -47.982  29.666  35.151  0.00  0.00     0.103 A 
ATOM      6  C   UNL d   1     -47.815  29.029  35.650  0.00  0.00     0.023 A 
ATOM      7  C   UNL d   1     -48.209  28.312  35.549  0.00  0.00     0.029 A 
BRANCH   5   8
ATOM      8  C   UNL d   1     -47.587  30.383  35.252  0.00  0.00     0.022 A 
ATOM      9  C   UNL d   1     -47.033  30.466  35.856  0.00  0.00     0.022 A 
ATOM     10  C   UNL d   1     -46.636  31.185  35.958  0.00  0.00     0.099 A 
ATOM     11  N   UNL d   1     -46.797  31.822  35.451  0.00  0.00    -0.242 NA
ATOM     12  C   UNL d   1     -47.353  31.737  34.845  0.00  0.00     0.099 A 
ATOM     13  C   UNL d   1     -47.747  31.021  34.744  0.00  0.00     0.022 A 
ENDBRANCH   5   8
ENDBRANCH   1   2
BRANCH   1  14
ATOM     14  C   UNL d   1     -49.747  27.410  34.267  0.00  0.00     0.099 C 
BRANCH  14  15
ATOM     15  C   UNL d   1     -49.802  26.700  33.852  0.00  0.00     0.286 C 
ATOM     16  N   UNL d   1     -50.448  26.189  33.981  0.00  0.00    -0.206 NA
ATOM     17  O   UNL d   1     -49.215  26.494  33.306  0.00  0.00    -0.265 OA
BRANCH  16  18
ATOM     18  C   UNL d   1     -50.503  25.480  33.566  0.00  0.00     0.104 C 
BRANCH  18  19
ATOM     19  C   UNL d   1     -51.213  25.049  33.570  0.00  0.00     0.042 A 
ATOM     20  C   UNL d   1     -51.222  24.270  33.839  0.00  0.00     0.096 A 
ATOM     21  C   UNL d   1     -51.928  23.842  33.843  0.00  0.00     0.024 A 
ATOM     22  C   UNL d   1     -52.626  24.193  33.579  0.00  0.00     0.002 A 
ATOM     23  C   UNL d   1     -52.617  24.972  33.310  0.00  0.00     0.000 A 
ATOM     24  C   UNL d   1     -51.910  25.400  33.306  0.00  0.00     0.004 A 
BRANCH  20  25
ATOM     25  O   UNL d   1     -50.507  23.916  34.108  0.00  0.00    -0.328 OA
ATOM     26  C   UNL d   1     -50.263  23.195  33.792  0.00  0.00     0.181 C 
ENDBRANCH  20  25
ENDBRANCH  18  19
ENDBRANCH  16  18
ENDBRANCH  14  15
ENDBRANCH   1  14
TORSDOF 7
ENDMDL
