MODEL 1
REMARK VINA RESULT:       5.3      0.000      0.000
REMARK  6 active torsions:
REMARK  status: ('A' for Active; 'I' for Inactive)
REMARK    1  A    between atoms: C_13  and  C_4 
REMARK    2  A    between atoms: N_16  and  C_5 
REMARK    3  A    between atoms: N_11  and  C_18 
REMARK    4  A    between atoms: C_21  and  N_16 
REMARK    5  A    between atoms: C_18  and  C_19 
REMARK    6  A    between atoms: C_19  and  C_21 
ROOT
ATOM      1  N   UNL d   1     -42.905-122.172 -50.875  0.00  0.00    -0.195 N 
ATOM      2  C   UNL d   1     -42.643-122.698 -50.297  0.00  0.00     0.167 A 
ATOM      3  N   UNL d   1     -43.489-121.701 -50.545  0.00  0.00    -0.163 NA
ATOM      4  C   UNL d   1     -43.067-122.548 -49.613  0.00  0.00     0.055 A 
ATOM      5  C   UNL d   1     -42.576-122.191 -51.630  0.00  0.00     0.167 A 
ATOM      6  C   UNL d   1     -43.589-121.935 -49.762  0.00  0.00     0.104 A 
ATOM      7  N   UNL d   1     -42.053-123.243 -50.472  0.00  0.00    -0.227 NA
ATOM      8  C   UNL d   1     -41.980-122.739 -51.810  0.00  0.00     0.058 A 
ATOM      9  C   UNL d   1     -41.719-123.265 -51.232  0.00  0.00     0.086 A 
ATOM     10  C   UNL d   1     -44.119-121.613 -49.218  0.00  0.00     0.023 C 
ATOM     11  C   UNL d   1     -41.123-123.817 -51.403  0.00  0.00     0.021 C 
ENDROOT
BRANCH   5  12
ATOM     12  N   UNL d   1     -42.838-121.665 -52.208  0.00  0.00    -0.225 NA
BRANCH  12  13
ATOM     13  C   UNL d   1     -42.471-121.645 -52.943  0.00  0.00     0.102 C 
BRANCH  13  14
ATOM     14  C   UNL d   1     -42.927-121.617 -53.635  0.00  0.00     0.040 C 
BRANCH  14  15
ATOM     15  C   UNL d   1     -42.643-121.225 -54.300  0.00  0.00     0.083 C 
BRANCH  15  16
ATOM     16  N   UNL d   1     -42.510-121.646 -55.007  0.00  0.00    -0.285 N 
ATOM     17  C   UNL d   1     -43.024-122.017 -55.536  0.00  0.00     0.183 A 
ATOM     18  N   UNL d   1     -42.577-122.343 -56.137  0.00  0.00    -0.222 NA
ATOM     19  C   UNL d   1     -41.788-122.179 -55.987  0.00  0.00     0.120 A 
ATOM     20  C   UNL d   1     -41.744-121.748 -55.289  0.00  0.00     0.102 A 
ENDBRANCH  15  16
ENDBRANCH  14  15
ENDBRANCH  13  14
ENDBRANCH  12  13
ENDBRANCH   5  12
BRANCH   4  21
ATOM     21  C   UNL d   1     -43.045-122.898 -48.861  0.00  0.00     0.004 A 
ATOM     22  C   UNL d   1     -42.431-122.712 -48.341  0.00  0.00     0.000 A 
ATOM     23  C   UNL d   1     -42.408-123.062 -47.589  0.00  0.00     0.000 A 
ATOM     24  C   UNL d   1     -42.997-123.593 -47.361  0.00  0.00     0.000 A 
ATOM     25  C   UNL d   1     -43.612-123.777 -47.885  0.00  0.00     0.000 A 
ATOM     26  C   UNL d   1     -43.634-123.428 -48.634  0.00  0.00     0.000 A 
ENDBRANCH   4  21
TORSDOF 6
ENDMDL
