MODEL 1
REMARK VINA RESULT:      -9.4      0.000      0.000
REMARK  3 active torsions:
REMARK  status: ('A' for Active; 'I' for Inactive)
REMARK    1  A    between atoms: C_8  and  C_6 
REMARK    2  A    between atoms: C_9  and  C_8 
REMARK       I    between atoms: N_10  and  C_9 
REMARK    3  A    between atoms: C_14  and  N_10 
ROOT
ATOM      1  C   UNL d   1      53.047  30.375  53.032  0.00  0.00     0.085 A 
ATOM      2  C   UNL d   1      53.194  29.215  54.192  0.00  0.00     0.094 A 
ATOM      3  C   UNL d   1      52.382  29.964  53.290  0.00  0.00     0.021 A 
ATOM      4  C   UNL d   1      53.786  30.209  53.352  0.00  0.00     0.021 A 
ATOM      5  C   UNL d   1      53.865  29.631  53.931  0.00  0.00     0.026 A 
ATOM      6  C   UNL d   1      52.455  29.384  53.869  0.00  0.00     0.026 A 
ATOM      7  O   UNL d   1      53.267  28.646  54.761  0.00  0.00    -0.328 OA
ATOM      8  C   UNL d   1      53.343  28.069  55.339  0.00  0.00     0.181 C 
ENDROOT
BRANCH   1   9
ATOM      9  N   UNL d   1      52.976  30.957  52.451  0.00  0.00    -0.208 NA
ATOM     10  C   UNL d   1      52.737  31.722  52.656  0.00  0.00     0.281 C 
ATOM     11  O   UNL d   1      52.668  32.300  52.070  0.00  0.00    -0.265 OA
BRANCH  10  12
ATOM     12  C   UNL d   1      52.569  31.905  53.450  0.00  0.00     0.086 C 
BRANCH  12  13
ATOM     13  C   UNL d   1      52.725  32.664  53.731  0.00  0.00     0.144 A 
ATOM     14  N   UNL d   1      53.473  32.740  54.061  0.00  0.00    -0.240 NA
ATOM     15  C   UNL d   1      53.812  33.408  54.393  0.00  0.00     0.083 A 
ATOM     16  C   UNL d   1      53.496  34.168  54.479  0.00  0.00     0.035 A 
ATOM     17  C   UNL d   1      54.576  33.249  54.663  0.00  0.00     0.019 A 
ATOM     18  C   UNL d   1      52.725  34.329  54.206  0.00  0.00     0.086 A 
ATOM     19  C   UNL d   1      53.934  34.773  54.833  0.00  0.00     0.003 A 
ATOM     20  N   UNL d   1      52.200  33.809  53.841  0.00  0.00    -0.207 NA
ATOM     21  C   UNL d   1      52.406  35.086  54.291  0.00  0.00     0.019 A 
ATOM     22  C   UNL d   1      52.292  33.023  53.655  0.00  0.00     0.297 A 
ATOM     23  O   UNL d   1      51.647  32.669  53.287  0.00  0.00    -0.264 OA
ATOM     24  C   UNL d   1      52.850  35.686  54.645  0.00  0.00     0.002 A 
ATOM     25  C   UNL d   1      53.614  35.527  54.915  0.00  0.00     0.000 A 
ATOM     26  C   UNL d   1      54.706  34.611  55.105  0.00  0.00     0.000 A 
ATOM     27  C   UNL d   1      55.027  33.857  55.023  0.00  0.00     0.002 A 
ENDBRANCH  12  13
ENDBRANCH  10  12
ENDBRANCH   1   9
TORSDOF 3
ENDMDL
MODEL 2
REMARK VINA RESULT:      -8.0      2.680      3.790
REMARK  3 active torsions:
REMARK  status: ('A' for Active; 'I' for Inactive)
REMARK    1  A    between atoms: C_8  and  C_6 
REMARK    2  A    between atoms: C_9  and  C_8 
REMARK       I    between atoms: N_10  and  C_9 
REMARK    3  A    between atoms: C_14  and  N_10 
ROOT
ATOM      1  C   UNL d   1      53.231  32.820  53.046  0.00  0.00     0.085 A 
ATOM      2  C   UNL d   1      53.256  31.256  53.559  0.00  0.00     0.094 A 
ATOM      3  C   UNL d   1      52.914  32.227  52.572  0.00  0.00     0.021 A 
ATOM      4  C   UNL d   1      53.561  32.636  53.776  0.00  0.00     0.021 A 
ATOM      5  C   UNL d   1      53.576  31.856  54.037  0.00  0.00     0.026 A 
ATOM      6  C   UNL d   1      52.926  31.445  52.828  0.00  0.00     0.026 A 
ATOM      7  O   UNL d   1      53.268  30.488  53.811  0.00  0.00    -0.328 OA
ATOM      8  C   UNL d   1      53.282  29.710  54.068  0.00  0.00     0.181 C 
ENDROOT
BRANCH   1   9
ATOM      9  N   UNL d   1      53.220  33.606  52.791  0.00  0.00    -0.208 NA
ATOM     10  C   UNL d   1      52.520  34.045  52.830  0.00  0.00     0.281 C 
ATOM     11  O   UNL d   1      52.515  34.830  52.573  0.00  0.00    -0.265 OA
BRANCH  10  12
ATOM     12  C   UNL d   1      51.826  33.695  53.126  0.00  0.00     0.086 C 
BRANCH  12  13
ATOM     13  C   UNL d   1      51.101  34.066  53.001  0.00  0.00     0.144 A 
ATOM     14  N   UNL d   1      50.829  33.995  52.229  0.00  0.00    -0.240 NA
ATOM     15  C   UNL d   1      50.136  34.292  51.909  0.00  0.00     0.083 A 
ATOM     16  C   UNL d   1      49.538  34.733  52.274  0.00  0.00     0.035 A 
ATOM     17  C   UNL d   1      50.072  34.097  51.110  0.00  0.00     0.019 A 
ATOM     18  C   UNL d   1      49.603  34.931  53.082  0.00  0.00     0.086 A 
ATOM     19  C   UNL d   1      48.875  34.983  51.849  0.00  0.00     0.003 A 
ATOM     20  N   UNL d   1      50.214  34.738  53.600  0.00  0.00    -0.207 NA
ATOM     21  C   UNL d   1      49.008  35.371  53.448  0.00  0.00     0.019 A 
ATOM     22  C   UNL d   1      50.895  34.316  53.467  0.00  0.00     0.297 A 
ATOM     23  O   UNL d   1      51.389  34.228  54.119  0.00  0.00    -0.264 OA
ATOM     24  C   UNL d   1      48.348  35.617  53.016  0.00  0.00     0.002 A 
ATOM     25  C   UNL d   1      48.284  35.422  52.217  0.00  0.00     0.000 A 
ATOM     26  C   UNL d   1      48.811  34.785  51.040  0.00  0.00     0.000 A 
ATOM     27  C   UNL d   1      49.402  34.346  50.672  0.00  0.00     0.002 A 
ENDBRANCH  12  13
ENDBRANCH  10  12
ENDBRANCH   1   9
TORSDOF 3
ENDMDL
MODEL 3
REMARK VINA RESULT:      -8.0      1.618      4.635
REMARK  3 active torsions:
REMARK  status: ('A' for Active; 'I' for Inactive)
REMARK    1  A    between atoms: C_8  and  C_6 
REMARK    2  A    between atoms: C_9  and  C_8 
REMARK       I    between atoms: N_10  and  C_9 
REMARK    3  A    between atoms: C_14  and  N_10 
ROOT
ATOM      1  C   UNL d   1      52.636  34.054  52.897  0.00  0.00     0.085 A 
ATOM      2  C   UNL d   1      51.077  34.577  52.970  0.00  0.00     0.094 A 
ATOM      3  C   UNL d   1      52.401  34.563  53.500  0.00  0.00     0.021 A 
ATOM      4  C   UNL d   1      52.095  33.805  52.330  0.00  0.00     0.021 A 
ATOM      5  C   UNL d   1      51.315  34.063  52.362  0.00  0.00     0.026 A 
ATOM      6  C   UNL d   1      51.622  34.824  53.536  0.00  0.00     0.026 A 
ATOM      7  O   UNL d   1      50.310  34.833  53.005  0.00  0.00    -0.328 OA
ATOM      8  C   UNL d   1      49.533  35.092  53.040  0.00  0.00     0.181 C 
ENDROOT
BRANCH   1   9
ATOM      9  N   UNL d   1      53.418  33.790  52.858  0.00  0.00    -0.208 NA
ATOM     10  C   UNL d   1      53.672  33.173  53.346  0.00  0.00     0.281 C 
ATOM     11  O   UNL d   1      54.456  32.913  53.303  0.00  0.00    -0.265 OA
BRANCH  10  12
ATOM     12  C   UNL d   1      53.140  32.817  53.877  0.00  0.00     0.086 C 
BRANCH  12  13
ATOM     13  C   UNL d   1      53.207  32.011  54.037  0.00  0.00     0.144 A 
ATOM     14  N   UNL d   1      53.012  31.536  53.395  0.00  0.00    -0.240 NA
ATOM     15  C   UNL d   1      53.015  30.718  53.355  0.00  0.00     0.083 A 
ATOM     16  C   UNL d   1      53.213  30.165  53.939  0.00  0.00     0.035 A 
ATOM     17  C   UNL d   1      52.782  30.458  52.607  0.00  0.00     0.019 A 
ATOM     18  C   UNL d   1      53.449  30.427  54.694  0.00  0.00     0.086 A 
ATOM     19  C   UNL d   1      53.180  29.354  53.784  0.00  0.00     0.003 A 
ATOM     20  N   UNL d   1      53.518  31.205  54.959  0.00  0.00    -0.207 NA
ATOM     21  C   UNL d   1      53.646  29.879  55.279  0.00  0.00     0.019 A 
ATOM     22  C   UNL d   1      53.378  31.902  54.566  0.00  0.00     0.297 A 
ATOM     23  O   UNL d   1      53.505  32.586  55.006  0.00  0.00    -0.264 OA
ATOM     24  C   UNL d   1      53.611  29.069  55.117  0.00  0.00     0.002 A 
ATOM     25  C   UNL d   1      53.377  28.809  54.370  0.00  0.00     0.000 A 
ATOM     26  C   UNL d   1      52.944  29.092  53.028  0.00  0.00     0.000 A 
ATOM     27  C   UNL d   1      52.746  29.637  52.442  0.00  0.00     0.002 A 
ENDBRANCH  12  13
ENDBRANCH  10  12
ENDBRANCH   1   9
TORSDOF 3
ENDMDL
MODEL 4
REMARK VINA RESULT:      -7.9      2.364      4.439
REMARK  3 active torsions:
REMARK  status: ('A' for Active; 'I' for Inactive)
REMARK    1  A    between atoms: C_8  and  C_6 
REMARK    2  A    between atoms: C_9  and  C_8 
REMARK       I    between atoms: N_10  and  C_9 
REMARK    3  A    between atoms: C_14  and  N_10 
ROOT
ATOM      1  C   UNL d   1      49.965  34.531  52.297  0.00  0.00     0.085 A 
ATOM      2  C   UNL d   1      48.759  35.283  53.127  0.00  0.00     0.094 A 
ATOM      3  C   UNL d   1      49.695  34.213  53.006  0.00  0.00     0.021 A 
ATOM      4  C   UNL d   1      49.637  35.223  52.000  0.00  0.00     0.021 A 
ATOM      5  C   UNL d   1      49.034  35.603  52.410  0.00  0.00     0.026 A 
ATOM      6  C   UNL d   1      49.091  34.589  53.421  0.00  0.00     0.026 A 
ATOM      7  O   UNL d   1      48.166  35.653  53.533  0.00  0.00    -0.328 OA
ATOM      8  C   UNL d   1      47.565  36.030  53.945  0.00  0.00     0.181 C 
ENDROOT
BRANCH   1   9
ATOM      9  N   UNL d   1      50.571  34.155  51.879  0.00  0.00    -0.208 NA
ATOM     10  C   UNL d   1      51.333  34.114  52.199  0.00  0.00     0.281 C 
ATOM     11  O   UNL d   1      51.934  33.737  51.776  0.00  0.00    -0.265 OA
BRANCH  10  12
ATOM     12  C   UNL d   1      51.489  34.452  52.943  0.00  0.00     0.086 C 
BRANCH  12  13
ATOM     13  C   UNL d   1      52.155  34.211  53.363  0.00  0.00     0.144 A 
ATOM     14  N   UNL d   1      52.276  33.398  53.342  0.00  0.00    -0.240 NA
ATOM     15  C   UNL d   1      52.877  32.968  53.695  0.00  0.00     0.083 A 
ATOM     16  C   UNL d   1      53.510  33.235  54.158  0.00  0.00     0.035 A 
ATOM     17  C   UNL d   1      52.796  32.162  53.538  0.00  0.00     0.019 A 
ATOM     18  C   UNL d   1      53.592  34.049  54.317  0.00  0.00     0.086 A 
ATOM     19  C   UNL d   1      54.063  32.704  54.466  0.00  0.00     0.003 A 
ATOM     20  N   UNL d   1      53.105  34.664  54.064  0.00  0.00    -0.207 NA
ATOM     21  C   UNL d   1      54.222  34.318  54.778  0.00  0.00     0.019 A 
ATOM     22  C   UNL d   1      52.434  34.641  53.606  0.00  0.00     0.297 A 
ATOM     23  O   UNL d   1      52.081  35.369  53.460  0.00  0.00    -0.264 OA
ATOM     24  C   UNL d   1      54.772  33.782  55.083  0.00  0.00     0.002 A 
ATOM     25  C   UNL d   1      54.691  32.976  54.925  0.00  0.00     0.000 A 
ATOM     26  C   UNL d   1      53.980  31.889  54.306  0.00  0.00     0.000 A 
ATOM     27  C   UNL d   1      53.353  31.617  53.847  0.00  0.00     0.002 A 
ENDBRANCH  12  13
ENDBRANCH  10  12
ENDBRANCH   1   9
TORSDOF 3
ENDMDL
MODEL 5
REMARK VINA RESULT:      -7.3      2.783      4.858
REMARK  3 active torsions:
REMARK  status: ('A' for Active; 'I' for Inactive)
REMARK    1  A    between atoms: C_8  and  C_6 
REMARK    2  A    between atoms: C_9  and  C_8 
REMARK       I    between atoms: N_10  and  C_9 
REMARK    3  A    between atoms: C_14  and  N_10 
ROOT
ATOM      1  C   UNL d   1      49.180  35.118  52.277  0.00  0.00     0.085 A 
ATOM      2  C   UNL d   1      47.984  35.578  53.311  0.00  0.00     0.094 A 
ATOM      3  C   UNL d   1      49.352  35.620  52.907  0.00  0.00     0.021 A 
ATOM      4  C   UNL d   1      48.414  34.845  52.161  0.00  0.00     0.021 A 
ATOM      5  C   UNL d   1      47.813  35.071  52.675  0.00  0.00     0.026 A 
ATOM      6  C   UNL d   1      48.754  35.849  53.424  0.00  0.00     0.026 A 
ATOM      7  O   UNL d   1      47.396  35.803  53.818  0.00  0.00    -0.328 OA
ATOM      8  C   UNL d   1      46.798  36.030  54.332  0.00  0.00     0.181 C 
ENDROOT
BRANCH   1   9
ATOM      9  N   UNL d   1      49.779  34.886  51.757  0.00  0.00    -0.208 NA
ATOM     10  C   UNL d   1      50.394  34.401  52.022  0.00  0.00     0.281 C 
ATOM     11  O   UNL d   1      50.989  34.172  51.497  0.00  0.00    -0.265 OA
BRANCH  10  12
ATOM     12  C   UNL d   1      50.409  34.145  52.814  0.00  0.00     0.086 C 
BRANCH  12  13
ATOM     13  C   UNL d   1      51.116  33.871  53.135  0.00  0.00     0.144 A 
ATOM     14  N   UNL d   1      51.632  34.475  53.348  0.00  0.00    -0.240 NA
ATOM     15  C   UNL d   1      52.377  34.407  53.681  0.00  0.00     0.083 A 
ATOM     16  C   UNL d   1      52.799  33.726  53.887  0.00  0.00     0.035 A 
ATOM     17  C   UNL d   1      52.712  35.151  53.810  0.00  0.00     0.019 A 
ATOM     18  C   UNL d   1      52.461  32.974  53.758  0.00  0.00     0.086 A 
ATOM     19  C   UNL d   1      53.553  33.778  54.221  0.00  0.00     0.003 A 
ATOM     20  N   UNL d   1      51.723  32.803  53.434  0.00  0.00    -0.207 NA
ATOM     21  C   UNL d   1      52.879  32.292  53.962  0.00  0.00     0.019 A 
ATOM     22  C   UNL d   1      51.144  33.305  53.163  0.00  0.00     0.297 A 
ATOM     23  O   UNL d   1      50.467  32.940  52.872  0.00  0.00    -0.264 OA
ATOM     24  C   UNL d   1      53.633  32.352  54.295  0.00  0.00     0.002 A 
ATOM     25  C   UNL d   1      53.968  33.095  54.424  0.00  0.00     0.000 A 
ATOM     26  C   UNL d   1      53.891  34.530  54.351  0.00  0.00     0.000 A 
ATOM     27  C   UNL d   1      53.476  35.212  54.148  0.00  0.00     0.002 A 
ENDBRANCH  12  13
ENDBRANCH  10  12
ENDBRANCH   1   9
TORSDOF 3
ENDMDL
MODEL 6
REMARK VINA RESULT:      -6.4      2.256      4.676
REMARK  3 active torsions:
REMARK  status: ('A' for Active; 'I' for Inactive)
REMARK    1  A    between atoms: C_8  and  C_6 
REMARK    2  A    between atoms: C_9  and  C_8 
REMARK       I    between atoms: N_10  and  C_9 
REMARK    3  A    between atoms: C_14  and  N_10 
ROOT
ATOM      1  C   UNL d   1      50.414  34.724  52.926  0.00  0.00     0.085 A 
ATOM      2  C   UNL d   1      49.221  34.722  51.792  0.00  0.00     0.094 A 
ATOM      3  C   UNL d   1      50.602  34.615  52.133  0.00  0.00     0.021 A 
ATOM      4  C   UNL d   1      49.632  34.832  53.156  0.00  0.00     0.021 A 
ATOM      5  C   UNL d   1      49.033  34.832  52.593  0.00  0.00     0.026 A 
ATOM      6  C   UNL d   1      50.006  34.614  51.565  0.00  0.00     0.026 A 
ATOM      7  O   UNL d   1      48.635  34.722  51.235  0.00  0.00    -0.328 OA
ATOM      8  C   UNL d   1      48.039  34.722  50.672  0.00  0.00     0.181 C 
ENDROOT
BRANCH   1   9
ATOM      9  N   UNL d   1      51.011  34.724  53.498  0.00  0.00    -0.208 NA
ATOM     10  C   UNL d   1      51.414  34.025  53.678  0.00  0.00     0.281 C 
ATOM     11  O   UNL d   1      52.010  34.033  54.250  0.00  0.00    -0.265 OA
BRANCH  10  12
ATOM     12  C   UNL d   1      51.218  33.320  53.283  0.00  0.00     0.086 C 
BRANCH  12  13
ATOM     13  C   UNL d   1      51.747  32.689  53.298  0.00  0.00     0.144 A 
ATOM     14  N   UNL d   1      52.534  32.925  53.296  0.00  0.00    -0.240 NA
ATOM     15  C   UNL d   1      53.203  32.452  53.308  0.00  0.00     0.083 A 
ATOM     16  C   UNL d   1      53.260  31.626  53.325  0.00  0.00     0.035 A 
ATOM     17  C   UNL d   1      53.889  32.910  53.300  0.00  0.00     0.019 A 
ATOM     18  C   UNL d   1      52.567  31.163  53.333  0.00  0.00     0.086 A 
ATOM     19  C   UNL d   1      53.997  31.252  53.335  0.00  0.00     0.003 A 
ATOM     20  N   UNL d   1      51.786  31.425  53.325  0.00  0.00    -0.207 NA
ATOM     21  C   UNL d   1      52.621  30.339  53.350  0.00  0.00     0.019 A 
ATOM     22  C   UNL d   1      51.491  32.183  53.308  0.00  0.00     0.297 A 
ATOM     23  O   UNL d   1      50.671  32.243  53.304  0.00  0.00    -0.264 OA
ATOM     24  C   UNL d   1      53.361  29.972  53.360  0.00  0.00     0.002 A 
ATOM     25  C   UNL d   1      54.047  30.430  53.353  0.00  0.00     0.000 A 
ATOM     26  C   UNL d   1      54.691  31.716  53.328  0.00  0.00     0.000 A 
ATOM     27  C   UNL d   1      54.641  32.538  53.311  0.00  0.00     0.002 A 
ENDBRANCH  12  13
ENDBRANCH  10  12
ENDBRANCH   1   9
TORSDOF 3
ENDMDL
