MODEL 1
REMARK VINA RESULT:       1.4      0.000      0.000
REMARK  1 active torsions:
REMARK  status: ('A' for Active; 'I' for Inactive)
REMARK    1  A    between atoms: C_6  and  N_1 
ROOT
ATOM      1  N   UNL d   1      46.594 -18.833  44.004  0.00  0.00    -0.204 N 
ATOM      2  C   UNL d   1      46.590 -19.633  43.793  0.00  0.00     0.271 A 
ATOM      3  C   UNL d   1      46.607 -18.381  43.310  0.00  0.00     0.270 A 
ATOM      4  C   UNL d   1      46.601 -19.676  42.968  0.00  0.00     0.080 A 
ATOM      5  C   UNL d   1      46.612 -18.911  42.673  0.00  0.00     0.064 A 
ATOM      6  O   UNL d   1      46.578 -20.187  44.367  0.00  0.00    -0.266 OA
ATOM      7  O   UNL d   1      46.614 -17.558  43.264  0.00  0.00    -0.266 OA
ATOM      8  N   UNL d   1      46.616 -20.194  41.648  0.00  0.00    -0.242 NA
ATOM      9  C   UNL d   1      46.603 -20.323  42.463  0.00  0.00     0.104 A 
ATOM     10  C   UNL d   1      46.624 -18.786  41.860  0.00  0.00     0.026 A 
ATOM     11  C   UNL d   1      46.626 -19.429  41.343  0.00  0.00     0.099 A 
ENDROOT
BRANCH   1  12
ATOM     12  C   UNL d   1      46.586 -18.531  44.775  0.00  0.00     0.326 C 
ATOM     13  O   UNL d   1      46.121 -17.872  44.952  0.00  0.00    -0.261 OA
ENDBRANCH   1  12
TORSDOF 1
ENDMDL
MODEL 2
REMARK VINA RESULT:       2.1      5.258      6.274
REMARK  1 active torsions:
REMARK  status: ('A' for Active; 'I' for Inactive)
REMARK    1  A    between atoms: C_6  and  N_1 
ROOT
ATOM      1  N   UNL d   1      44.970 -12.734  43.450  0.00  0.00    -0.204 N 
ATOM      2  C   UNL d   1      45.715 -12.846  43.792  0.00  0.00     0.271 A 
ATOM      3  C   UNL d   1      44.499 -13.390  43.632  0.00  0.00     0.270 A 
ATOM      4  C   UNL d   1      45.705 -13.572  44.186  0.00  0.00     0.080 A 
ATOM      5  C   UNL d   1      44.962 -13.904  44.089  0.00  0.00     0.064 A 
ATOM      6  O   UNL d   1      46.275 -12.286  43.696  0.00  0.00    -0.266 OA
ATOM      7  O   UNL d   1      43.716 -13.509  43.402  0.00  0.00    -0.266 OA
ATOM      8  N   UNL d   1      46.114 -14.691  44.955  0.00  0.00    -0.242 NA
ATOM      9  C   UNL d   1      46.287 -13.958  44.618  0.00  0.00     0.104 A 
ATOM     10  C   UNL d   1      44.794 -14.635  44.426  0.00  0.00     0.026 A 
ATOM     11  C   UNL d   1      45.371 -15.033  44.862  0.00  0.00     0.099 A 
ENDROOT
BRANCH   1  12
ATOM     12  C   UNL d   1      44.731 -12.081  43.001  0.00  0.00     0.326 C 
ATOM     13  O   UNL d   1      44.842 -12.083  42.183  0.00  0.00    -0.261 OA
ENDBRANCH   1  12
TORSDOF 1
ENDMDL
MODEL 3
REMARK VINA RESULT:       2.7      5.103      5.982
REMARK  1 active torsions:
REMARK  status: ('A' for Active; 'I' for Inactive)
REMARK    1  A    between atoms: C_6  and  N_1 
ROOT
ATOM      1  N   UNL d   1      45.185 -14.306  44.463  0.00  0.00    -0.204 N 
ATOM      2  C   UNL d   1      44.521 -14.005  44.070  0.00  0.00     0.271 A 
ATOM      3  C   UNL d   1      45.834 -13.826  44.281  0.00  0.00     0.270 A 
ATOM      4  C   UNL d   1      44.761 -13.339  43.645  0.00  0.00     0.080 A 
ATOM      5  C   UNL d   1      45.563 -13.229  43.774  0.00  0.00     0.064 A 
ATOM      6  O   UNL d   1      43.819 -14.373  44.155  0.00  0.00    -0.266 OA
ATOM      7  O   UNL d   1      46.606 -13.924  44.555  0.00  0.00    -0.266 OA
ATOM      8  N   UNL d   1      44.732 -12.198  42.803  0.00  0.00    -0.242 NA
ATOM      9  C   UNL d   1      44.338 -12.828  43.161  0.00  0.00     0.104 A 
ATOM     10  C   UNL d   1      45.953 -12.600  43.415  0.00  0.00     0.026 A 
ATOM     11  C   UNL d   1      45.538 -12.080  42.927  0.00  0.00     0.099 A 
ENDROOT
BRANCH   1  12
ATOM     12  C   UNL d   1      45.201 -14.972  44.955  0.00  0.00     0.326 C 
ATOM     13  O   UNL d   1      45.534 -15.676  44.680  0.00  0.00    -0.261 OA
ENDBRANCH   1  12
TORSDOF 1
ENDMDL
MODEL 4
REMARK VINA RESULT:       3.4      1.210      2.604
REMARK  1 active torsions:
REMARK  status: ('A' for Active; 'I' for Inactive)
REMARK    1  A    between atoms: C_6  and  N_1 
ROOT
ATOM      1  N   UNL d   1      46.284 -18.771  42.177  0.00  0.00    -0.204 N 
ATOM      2  C   UNL d   1      46.468 -18.333  42.855  0.00  0.00     0.271 A 
ATOM      3  C   UNL d   1      46.121 -19.550  42.407  0.00  0.00     0.270 A 
ATOM      4  C   UNL d   1      46.419 -18.841  43.504  0.00  0.00     0.080 A 
ATOM      5  C   UNL d   1      46.208 -19.584  43.231  0.00  0.00     0.064 A 
ATOM      6  O   UNL d   1      46.647 -17.559  42.781  0.00  0.00    -0.266 OA
ATOM      7  O   UNL d   1      45.913 -20.173  41.909  0.00  0.00    -0.266 OA
ATOM      8  N   UNL d   1      46.453 -19.331  44.834  0.00  0.00    -0.242 NA
ATOM      9  C   UNL d   1      46.544 -18.705  44.304  0.00  0.00     0.104 A 
ATOM     10  C   UNL d   1      46.118 -20.205  43.763  0.00  0.00     0.026 A 
ATOM     11  C   UNL d   1      46.241 -20.081  44.569  0.00  0.00     0.099 A 
ENDROOT
BRANCH   1  12
ATOM     12  C   UNL d   1      46.264 -18.485  41.400  0.00  0.00     0.326 C 
ATOM     13  O   UNL d   1      45.890 -17.767  41.237  0.00  0.00    -0.261 OA
ENDBRANCH   1  12
TORSDOF 1
ENDMDL
MODEL 5
REMARK VINA RESULT:       3.7      7.643      7.821
REMARK  1 active torsions:
REMARK  status: ('A' for Active; 'I' for Inactive)
REMARK    1  A    between atoms: C_6  and  N_1 
ROOT
ATOM      1  N   UNL d   1      43.974 -15.446  37.063  0.00  0.00    -0.204 N 
ATOM      2  C   UNL d   1      44.553 -15.879  36.660  0.00  0.00     0.271 A 
ATOM      3  C   UNL d   1      44.322 -14.751  37.349  0.00  0.00     0.270 A 
ATOM      4  C   UNL d   1      45.259 -15.451  36.698  0.00  0.00     0.080 A 
ATOM      5  C   UNL d   1      45.118 -14.763  37.118  0.00  0.00     0.064 A 
ATOM      6  O   UNL d   1      44.356 -16.578  36.330  0.00  0.00    -0.266 OA
ATOM      7  O   UNL d   1      43.946 -14.159  37.783  0.00  0.00    -0.266 OA
ATOM      8  N   UNL d   1      46.615 -15.077  36.522  0.00  0.00    -0.242 NA
ATOM      9  C   UNL d   1      46.005 -15.617  36.395  0.00  0.00     0.104 A 
ATOM     10  C   UNL d   1      45.729 -14.227  37.242  0.00  0.00     0.026 A 
ATOM     11  C   UNL d   1      46.483 -14.382  36.943  0.00  0.00     0.099 A 
ENDROOT
BRANCH   1  12
ATOM     12  C   UNL d   1      43.183 -15.665  37.166  0.00  0.00     0.326 C 
ATOM     13  O   UNL d   1      42.663 -15.636  36.525  0.00  0.00    -0.261 OA
ENDBRANCH   1  12
TORSDOF 1
ENDMDL
MODEL 6
REMARK VINA RESULT:       4.3      7.609      7.793
REMARK  1 active torsions:
REMARK  status: ('A' for Active; 'I' for Inactive)
REMARK    1  A    between atoms: C_6  and  N_1 
ROOT
ATOM      1  N   UNL d   1      45.678 -14.820  37.077  0.00  0.00    -0.204 N 
ATOM      2  C   UNL d   1      45.536 -15.516  36.652  0.00  0.00     0.271 A 
ATOM      3  C   UNL d   1      44.952 -14.529  37.349  0.00  0.00     0.270 A 
ATOM      4  C   UNL d   1      44.722 -15.655  36.662  0.00  0.00     0.080 A 
ATOM      5  C   UNL d   1      44.365 -15.052  37.087  0.00  0.00     0.064 A 
ATOM      6  O   UNL d   1      46.152 -15.907  36.330  0.00  0.00    -0.266 OA
ATOM      7  O   UNL d   1      44.836 -13.846  37.796  0.00  0.00    -0.266 OA
ATOM      8  N   UNL d   1      43.457 -16.254  36.433  0.00  0.00    -0.242 NA
ATOM      9  C   UNL d   1      44.276 -16.260  36.331  0.00  0.00     0.104 A 
ATOM     10  C   UNL d   1      43.549 -15.050  37.186  0.00  0.00     0.026 A 
ATOM     11  C   UNL d   1      43.090 -15.653  36.859  0.00  0.00     0.099 A 
ENDROOT
BRANCH   1  12
ATOM     12  C   UNL d   1      46.417 -14.470  37.210  0.00  0.00     0.326 C 
ATOM     13  O   UNL d   1      46.646 -13.814  36.765  0.00  0.00    -0.261 OA
ENDBRANCH   1  12
TORSDOF 1
ENDMDL
