MODEL 1
REMARK VINA RESULT:      55.2      0.000      0.000
REMARK  5 active torsions:
REMARK  status: ('A' for Active; 'I' for Inactive)
REMARK    1  A    between atoms: C_2  and  C_1 
REMARK    2  A    between atoms: C_7  and  C_2 
REMARK    3  A    between atoms: C_9  and  N_3 
REMARK    4  A    between atoms: N_5  and  C_7 
REMARK    5  A    between atoms: O_24  and  C_20 
ROOT
ATOM      1  N   UNL d   1     -51.506  25.786  33.408  0.00  0.00    -0.301 N 
ATOM      2  N   UNL d   1     -50.484  27.091  33.460  0.00  0.00    -0.297 N 
ATOM      3  C   UNL d   1     -51.803  26.548  33.310  0.00  0.00     0.100 A 
ATOM      4  C   UNL d   1     -50.698  25.675  33.532  0.00  0.00     0.100 A 
ATOM      5  C   UNL d   1     -51.291  27.206  33.335  0.00  0.00     0.100 A 
ATOM      6  C   UNL d   1     -50.194  26.330  33.557  0.00  0.00     0.100 A 
ENDROOT
BRANCH   2   7
ATOM      7  C   UNL d   1     -49.981  27.741  33.484  0.00  0.00     0.123 C 
BRANCH   7   8
ATOM      8  C   UNL d   1     -49.211  27.662  33.766  0.00  0.00     0.216 C 
ATOM      9  O   UNL d   1     -48.768  26.992  33.577  0.00  0.00    -0.285 OA
BRANCH   8  10
ATOM     10  C   UNL d   1     -48.877  28.257  34.240  0.00  0.00     0.080 A 
ATOM     11  C   UNL d   1     -48.467  28.062  34.913  0.00  0.00     0.202 A 
ATOM     12  C   UNL d   1     -48.137  28.647  35.383  0.00  0.00     0.084 A 
ATOM     13  O   UNL d   1     -48.382  27.269  35.124  0.00  0.00    -0.286 OA
ATOM     14  C   UNL d   1     -48.220  29.449  35.174  0.00  0.00     0.199 A 
ATOM     15  C   UNL d   1     -48.640  29.646  34.486  0.00  0.00     0.042 A 
ATOM     16  O   UNL d   1     -47.890  30.033  35.644  0.00  0.00    -0.286 OA
ATOM     17  C   UNL d   1     -48.969  29.054  34.017  0.00  0.00     0.010 A 
ENDBRANCH   8  10
ENDBRANCH   7   8
ENDBRANCH   2   7
BRANCH   1  18
ATOM     18  C   UNL d   1     -52.011  25.140  33.383  0.00  0.00     0.064 A 
ATOM     19  C   UNL d   1     -52.820  25.256  33.397  0.00  0.00     0.020 A 
ATOM     20  C   UNL d   1     -53.330  24.602  33.371  0.00  0.00     0.026 A 
ATOM     21  C   UNL d   1     -53.019  23.838  33.331  0.00  0.00     0.094 A 
ATOM     22  C   UNL d   1     -52.194  23.728  33.317  0.00  0.00     0.026 A 
ATOM     23  C   UNL d   1     -51.696  24.379  33.342  0.00  0.00     0.020 A 
BRANCH  21  24
ATOM     24  O   UNL d   1     -53.530  23.188  33.306  0.00  0.00    -0.328 OA
ATOM     25  C   UNL d   1     -54.295  23.263  33.606  0.00  0.00     0.181 C 
ENDBRANCH  21  24
ENDBRANCH   1  18
TORSDOF 5
ENDMDL
MODEL 2
REMARK VINA RESULT:      55.7      0.756      1.141
REMARK  5 active torsions:
REMARK  status: ('A' for Active; 'I' for Inactive)
REMARK    1  A    between atoms: C_2  and  C_1 
REMARK    2  A    between atoms: C_7  and  C_2 
REMARK    3  A    between atoms: C_9  and  N_3 
REMARK    4  A    between atoms: N_5  and  C_7 
REMARK    5  A    between atoms: O_24  and  C_20 
ROOT
ATOM      1  N   UNL d   1     -50.711  26.036  33.567  0.00  0.00    -0.301 N 
ATOM      2  N   UNL d   1     -49.804  27.418  33.691  0.00  0.00    -0.297 N 
ATOM      3  C   UNL d   1     -49.894  25.987  33.659  0.00  0.00     0.100 A 
ATOM      4  C   UNL d   1     -51.076  26.776  33.537  0.00  0.00     0.100 A 
ATOM      5  C   UNL d   1     -49.435  26.680  33.722  0.00  0.00     0.100 A 
ATOM      6  C   UNL d   1     -50.618  27.460  33.600  0.00  0.00     0.100 A 
ENDROOT
BRANCH   2   7
ATOM      7  C   UNL d   1     -49.349  28.101  33.753  0.00  0.00     0.123 C 
BRANCH   7   8
ATOM      8  C   UNL d   1     -48.852  28.214  34.400  0.00  0.00     0.216 C 
ATOM      9  O   UNL d   1     -48.679  27.584  34.904  0.00  0.00    -0.285 OA
BRANCH   8  10
ATOM     10  C   UNL d   1     -48.524  28.963  34.548  0.00  0.00     0.080 A 
ATOM     11  C   UNL d   1     -47.904  29.043  35.066  0.00  0.00     0.202 A 
ATOM     12  C   UNL d   1     -47.579  29.781  35.213  0.00  0.00     0.084 A 
ATOM     13  O   UNL d   1     -47.600  28.377  35.446  0.00  0.00    -0.286 OA
ATOM     14  C   UNL d   1     -47.882  30.457  34.832  0.00  0.00     0.199 A 
ATOM     15  C   UNL d   1     -48.516  30.372  34.303  0.00  0.00     0.042 A 
ATOM     16  O   UNL d   1     -47.556  31.193  34.980  0.00  0.00    -0.286 OA
ATOM     17  C   UNL d   1     -48.839  29.628  34.159  0.00  0.00     0.010 A 
ENDBRANCH   8  10
ENDBRANCH   7   8
ENDBRANCH   2   7
BRANCH   1  18
ATOM     18  C   UNL d   1     -51.161  25.352  33.506  0.00  0.00     0.064 A 
ATOM     19  C   UNL d   1     -51.976  25.402  33.493  0.00  0.00     0.020 A 
ATOM     20  C   UNL d   1     -52.430  24.710  33.431  0.00  0.00     0.026 A 
ATOM     21  C   UNL d   1     -52.057  23.976  33.383  0.00  0.00     0.094 A 
ATOM     22  C   UNL d   1     -51.225  23.933  33.397  0.00  0.00     0.026 A 
ATOM     23  C   UNL d   1     -50.783  24.621  33.458  0.00  0.00     0.020 A 
BRANCH  21  24
ATOM     24  O   UNL d   1     -52.512  23.287  33.321  0.00  0.00    -0.328 OA
ATOM     25  C   UNL d   1     -53.301  23.302  33.557  0.00  0.00     0.181 C 
ENDBRANCH  21  24
ENDBRANCH   1  18
TORSDOF 5
ENDMDL
