MODEL 1
REMARK VINA RESULT:      -6.4      0.000      0.000
REMARK  6 active torsions:
REMARK  status: ('A' for Active; 'I' for Inactive)
REMARK    1  A    between atoms: C_5  and  N_1 
REMARK    2  A    between atoms: C_7  and  C_3 
REMARK    3  A    between atoms: C_12  and  C_4 
REMARK    4  A    between atoms: N_14  and  C_5 
REMARK    5  A    between atoms: O_16  and  C_9 
REMARK    6  A    between atoms: O_17  and  C_11 
ROOT
ATOM      1  N   UNL d   1     -48.648  12.934  22.331  0.00  0.00    -0.203 N 
ATOM      2  N   UNL d   1     -49.281  13.462  22.401  0.00  0.00    -0.163 NA
ATOM      3  C   UNL d   1     -48.103  13.126  22.913  0.00  0.00     0.087 A 
ATOM      4  C   UNL d   1     -49.129  13.966  23.012  0.00  0.00     0.103 A 
ATOM      5  C   UNL d   1     -48.405  13.764  23.332  0.00  0.00     0.040 A 
ENDROOT
BRANCH   3   6
ATOM      6  C   UNL d   1     -47.375  12.752  23.063  0.00  0.00     0.020 A 
ATOM      7  C   UNL d   1     -46.668  13.087  22.849  0.00  0.00     0.028 A 
ATOM      8  C   UNL d   1     -45.956  12.715  22.998  0.00  0.00     0.116 A 
ATOM      9  C   UNL d   1     -45.952  11.995  23.369  0.00  0.00     0.116 A 
ATOM     10  C   UNL d   1     -46.661  11.639  23.593  0.00  0.00     0.026 A 
ATOM     11  C   UNL d   1     -47.374  12.011  23.444  0.00  0.00     0.004 A 
BRANCH   8  12
ATOM     12  O   UNL d   1     -45.229  13.054  22.781  0.00  0.00    -0.326 OA
ATOM     13  C   UNL d   1     -45.112  13.327  22.006  0.00  0.00     0.181 C 
ENDBRANCH   8  12
BRANCH   9  14
ATOM     14  O   UNL d   1     -45.226  11.603  23.527  0.00  0.00    -0.326 OA
ATOM     15  C   UNL d   1     -45.198  10.800  23.695  0.00  0.00     0.181 C 
ENDBRANCH   9  14
ENDBRANCH   3   6
BRANCH   1  16
ATOM     16  C   UNL d   1     -48.587  12.325  21.767  0.00  0.00     0.222 C 
ATOM     17  S   UNL d   1     -48.969  11.590  21.881  0.00  0.00    -0.037 SA
BRANCH  16  18
ATOM     18  N   UNL d   1     -48.136  12.437  21.062  0.00  0.00    -0.214 NA
ATOM     19  C   UNL d   1     -48.324  11.980  20.383  0.00  0.00     0.122 C 
ENDBRANCH  16  18
ENDBRANCH   1  16
BRANCH   4  20
ATOM     20  C   UNL d   1     -49.652  14.572  23.240  0.00  0.00     0.019 A 
ATOM     21  C   UNL d   1     -49.363  15.300  23.463  0.00  0.00     0.002 A 
ATOM     22  C   UNL d   1     -49.874  15.922  23.695  0.00  0.00     0.000 A 
ATOM     23  C   UNL d   1     -50.701  15.783  23.695  0.00  0.00     0.000 A 
ATOM     24  C   UNL d   1     -50.983  15.027  23.462  0.00  0.00     0.000 A 
ATOM     25  C   UNL d   1     -50.470  14.432  23.239  0.00  0.00     0.002 A 
ENDBRANCH   4  20
TORSDOF 6
ENDMDL
MODEL 2
REMARK VINA RESULT:      -5.6      6.995      9.623
REMARK  6 active torsions:
REMARK  status: ('A' for Active; 'I' for Inactive)
REMARK    1  A    between atoms: C_5  and  N_1 
REMARK    2  A    between atoms: C_7  and  C_3 
REMARK    3  A    between atoms: C_12  and  C_4 
REMARK    4  A    between atoms: N_14  and  C_5 
REMARK    5  A    between atoms: O_16  and  C_9 
REMARK    6  A    between atoms: O_17  and  C_11 
ROOT
ATOM      1  N   UNL d   1     -40.292  14.633  20.003  0.00  0.00    -0.203 N 
ATOM      2  N   UNL d   1     -40.311  14.530  19.183  0.00  0.00    -0.163 NA
ATOM      3  C   UNL d   1     -39.504  14.699  20.224  0.00  0.00     0.087 A 
ATOM      4  C   UNL d   1     -39.554  14.532  18.906  0.00  0.00     0.103 A 
ATOM      5  C   UNL d   1     -39.052  14.636  19.541  0.00  0.00     0.040 A 
ENDROOT
BRANCH   3   6
ATOM      6  C   UNL d   1     -39.205  14.809  20.992  0.00  0.00     0.020 A 
ATOM      7  C   UNL d   1     -38.992  14.184  21.463  0.00  0.00     0.028 A 
ATOM      8  C   UNL d   1     -38.699  14.297  22.218  0.00  0.00     0.116 A 
ATOM      9  C   UNL d   1     -38.618  15.050  22.505  0.00  0.00     0.116 A 
ATOM     10  C   UNL d   1     -38.829  15.697  22.040  0.00  0.00     0.026 A 
ATOM     11  C   UNL d   1     -39.123  15.584  21.285  0.00  0.00     0.004 A 
BRANCH   8  12
ATOM     12  O   UNL d   1     -38.479  13.660  22.704  0.00  0.00    -0.326 OA
ATOM     13  C   UNL d   1     -38.108  12.995  22.377  0.00  0.00     0.181 C 
ENDBRANCH   8  12
BRANCH   9  14
ATOM     14  O   UNL d   1     -38.318  15.178  23.278  0.00  0.00    -0.326 OA
ATOM     15  C   UNL d   1     -38.330  15.922  23.627  0.00  0.00     0.181 C 
ENDBRANCH   9  14
ENDBRANCH   3   6
BRANCH   1  16
ATOM     16  C   UNL d   1     -40.957  14.663  20.502  0.00  0.00     0.222 C 
ATOM     17  S   UNL d   1     -41.317  15.391  20.702  0.00  0.00    -0.037 SA
BRANCH  16  18
ATOM     18  N   UNL d   1     -41.286  13.952  20.820  0.00  0.00    -0.214 NA
ATOM     19  C   UNL d   1     -42.092  13.948  21.054  0.00  0.00     0.122 C 
ENDBRANCH  16  18
ENDBRANCH   1  16
BRANCH   4  20
ATOM     20  C   UNL d   1     -39.367  14.441  18.099  0.00  0.00     0.019 A 
ATOM     21  C   UNL d   1     -39.416  15.078  17.594  0.00  0.00     0.002 A 
ATOM     22  C   UNL d   1     -39.232  15.005  16.779  0.00  0.00     0.000 A 
ATOM     23  C   UNL d   1     -38.993  14.257  16.487  0.00  0.00     0.000 A 
ATOM     24  C   UNL d   1     -38.948  13.611  17.022  0.00  0.00     0.000 A 
ATOM     25  C   UNL d   1     -39.131  13.699  17.813  0.00  0.00     0.002 A 
ENDBRANCH   4  20
TORSDOF 6
ENDMDL
MODEL 3
REMARK VINA RESULT:      -5.1      2.012      4.412
REMARK  6 active torsions:
REMARK  status: ('A' for Active; 'I' for Inactive)
REMARK    1  A    between atoms: C_5  and  N_1 
REMARK    2  A    between atoms: C_7  and  C_3 
REMARK    3  A    between atoms: C_12  and  C_4 
REMARK    4  A    between atoms: N_14  and  C_5 
REMARK    5  A    between atoms: O_16  and  C_9 
REMARK    6  A    between atoms: O_17  and  C_11 
ROOT
ATOM      1  N   UNL d   1     -48.224  12.596  22.623  0.00  0.00    -0.203 N 
ATOM      2  N   UNL d   1     -47.440  12.346  22.543  0.00  0.00    -0.163 NA
ATOM      3  C   UNL d   1     -48.227  13.415  22.572  0.00  0.00     0.087 A 
ATOM      4  C   UNL d   1     -46.972  12.996  22.445  0.00  0.00     0.103 A 
ATOM      5  C   UNL d   1     -47.451  13.657  22.462  0.00  0.00     0.040 A 
ENDROOT
BRANCH   3   6
ATOM      6  C   UNL d   1     -48.887  13.919  22.621  0.00  0.00     0.020 A 
ATOM      7  C   UNL d   1     -49.421  13.986  22.015  0.00  0.00     0.028 A 
ATOM      8  C   UNL d   1     -50.069  14.483  22.068  0.00  0.00     0.116 A 
ATOM      9  C   UNL d   1     -50.182  14.919  22.741  0.00  0.00     0.116 A 
ATOM     10  C   UNL d   1     -49.649  14.863  23.367  0.00  0.00     0.026 A 
ATOM     11  C   UNL d   1     -49.002  14.366  23.314  0.00  0.00     0.004 A 
BRANCH   8  12
ATOM     12  O   UNL d   1     -50.619  14.555  21.450  0.00  0.00    -0.326 OA
ATOM     13  C   UNL d   1     -50.986  13.880  21.137  0.00  0.00     0.181 C 
ENDBRANCH   8  12
BRANCH   9  14
ATOM     14  O   UNL d   1     -50.843  15.432  22.807  0.00  0.00    -0.326 OA
ATOM     15  C   UNL d   1     -51.060  15.765  23.526  0.00  0.00     0.181 C 
ENDBRANCH   9  14
ENDBRANCH   3   6
BRANCH   1  16
ATOM     16  C   UNL d   1     -48.881  12.097  22.735  0.00  0.00     0.222 C 
ATOM     17  S   UNL d   1     -49.311  11.794  22.085  0.00  0.00    -0.037 SA
BRANCH  16  18
ATOM     18  N   UNL d   1     -49.129  11.885  23.515  0.00  0.00    -0.214 NA
ATOM     19  C   UNL d   1     -49.555  11.169  23.623  0.00  0.00     0.122 C 
ENDBRANCH  16  18
ENDBRANCH   1  16
BRANCH   4  20
ATOM     20  C   UNL d   1     -46.147  12.948  22.346  0.00  0.00     0.019 A 
ATOM     21  C   UNL d   1     -45.737  13.571  22.019  0.00  0.00     0.002 A 
ATOM     22  C   UNL d   1     -44.906  13.541  21.912  0.00  0.00     0.000 A 
ATOM     23  C   UNL d   1     -44.496  12.850  22.150  0.00  0.00     0.000 A 
ATOM     24  C   UNL d   1     -44.933  12.217  22.486  0.00  0.00     0.000 A 
ATOM     25  C   UNL d   1     -45.743  12.263  22.583  0.00  0.00     0.002 A 
ENDBRANCH   4  20
TORSDOF 6
ENDMDL
MODEL 4
REMARK VINA RESULT:      -4.9      8.655     10.341
REMARK  6 active torsions:
REMARK  status: ('A' for Active; 'I' for Inactive)
REMARK    1  A    between atoms: C_5  and  N_1 
REMARK    2  A    between atoms: C_7  and  C_3 
REMARK    3  A    between atoms: C_12  and  C_4 
REMARK    4  A    between atoms: N_14  and  C_5 
REMARK    5  A    between atoms: O_16  and  C_9 
REMARK    6  A    between atoms: O_17  and  C_11 
ROOT
ATOM      1  N   UNL d   1     -39.671  14.554  19.770  0.00  0.00    -0.203 N 
ATOM      2  N   UNL d   1     -39.640  14.390  20.580  0.00  0.00    -0.163 NA
ATOM      3  C   UNL d   1     -38.932  14.382  19.457  0.00  0.00     0.087 A 
ATOM      4  C   UNL d   1     -38.901  14.124  20.761  0.00  0.00     0.103 A 
ATOM      5  C   UNL d   1     -38.460  14.117  20.074  0.00  0.00     0.040 A 
ENDROOT
BRANCH   3   6
ATOM      6  C   UNL d   1     -38.693  14.458  18.664  0.00  0.00     0.020 A 
ATOM      7  C   UNL d   1     -38.656  13.821  18.164  0.00  0.00     0.028 A 
ATOM      8  C   UNL d   1     -38.420  13.901  17.385  0.00  0.00     0.116 A 
ATOM      9  C   UNL d   1     -38.219  14.632  17.103  0.00  0.00     0.116 A 
ATOM     10  C   UNL d   1     -38.251  15.292  17.597  0.00  0.00     0.026 A 
ATOM     11  C   UNL d   1     -38.487  15.212  18.376  0.00  0.00     0.004 A 
BRANCH   8  12
ATOM     12  O   UNL d   1     -38.380  13.251  16.870  0.00  0.00    -0.326 OA
ATOM     13  C   UNL d   1     -38.355  12.479  17.173  0.00  0.00     0.181 C 
ENDBRANCH   8  12
BRANCH   9  14
ATOM     14  O   UNL d   1     -37.975  14.726  16.305  0.00  0.00    -0.326 OA
ATOM     15  C   UNL d   1     -37.940  15.466  15.950  0.00  0.00     0.181 C 
ENDBRANCH   9  14
ENDBRANCH   3   6
BRANCH   1  16
ATOM     16  C   UNL d   1     -40.336  14.841  19.360  0.00  0.00     0.222 C 
ATOM     17  S   UNL d   1     -40.856  14.322  18.961  0.00  0.00    -0.037 SA
BRANCH  16  18
ATOM     18  N   UNL d   1     -40.502  15.670  19.340  0.00  0.00    -0.214 NA
ATOM     19  C   UNL d   1     -41.301  15.922  19.286  0.00  0.00     0.122 C 
ENDBRANCH  16  18
ENDBRANCH   1  16
BRANCH   4  20
ATOM     20  C   UNL d   1     -38.674  13.906  21.532  0.00  0.00     0.019 A 
ATOM     21  C   UNL d   1     -38.880  14.374  22.166  0.00  0.00     0.002 A 
ATOM     22  C   UNL d   1     -38.660  14.170  22.949  0.00  0.00     0.000 A 
ATOM     23  C   UNL d   1     -38.220  13.468  23.073  0.00  0.00     0.000 A 
ATOM     24  C   UNL d   1     -38.016  12.998  22.408  0.00  0.00     0.000 A 
ATOM     25  C   UNL d   1     -38.238  13.211  21.651  0.00  0.00     0.002 A 
ENDBRANCH   4  20
TORSDOF 6
ENDMDL
MODEL 5
REMARK VINA RESULT:      -3.8      7.782      9.484
REMARK  6 active torsions:
REMARK  status: ('A' for Active; 'I' for Inactive)
REMARK    1  A    between atoms: C_5  and  N_1 
REMARK    2  A    between atoms: C_7  and  C_3 
REMARK    3  A    between atoms: C_12  and  C_4 
REMARK    4  A    between atoms: N_14  and  C_5 
REMARK    5  A    between atoms: O_16  and  C_9 
REMARK    6  A    between atoms: O_17  and  C_11 
ROOT
ATOM      1  N   UNL d   1     -39.335  14.406  18.499  0.00  0.00    -0.203 N 
ATOM      2  N   UNL d   1     -39.645  14.591  17.755  0.00  0.00    -0.163 NA
ATOM      3  C   UNL d   1     -39.813  14.766  19.060  0.00  0.00     0.087 A 
ATOM      4  C   UNL d   1     -40.298  15.053  17.856  0.00  0.00     0.103 A 
ATOM      5  C   UNL d   1     -40.406  15.165  18.658  0.00  0.00     0.040 A 
ENDROOT
BRANCH   3   6
ATOM      6  C   UNL d   1     -39.723  14.740  19.887  0.00  0.00     0.020 A 
ATOM      7  C   UNL d   1     -40.211  14.294  20.357  0.00  0.00     0.028 A 
ATOM      8  C   UNL d   1     -40.119  14.271  21.169  0.00  0.00     0.116 A 
ATOM      9  C   UNL d   1     -39.528  14.703  21.516  0.00  0.00     0.116 A 
ATOM     10  C   UNL d   1     -39.023  15.162  21.053  0.00  0.00     0.026 A 
ATOM     11  C   UNL d   1     -39.115  15.185  20.241  0.00  0.00     0.004 A 
BRANCH   8  12
ATOM     12  O   UNL d   1     -40.616  13.816  21.655  0.00  0.00    -0.326 OA
ATOM     13  C   UNL d   1     -41.390  13.642  21.413  0.00  0.00     0.181 C 
ENDBRANCH   8  12
BRANCH   9  14
ATOM     14  O   UNL d   1     -39.424  14.688  22.348  0.00  0.00    -0.326 OA
ATOM     15  C   UNL d   1     -38.677  14.688  22.689  0.00  0.00     0.181 C 
ENDBRANCH   9  14
ENDBRANCH   3   6
BRANCH   1  16
ATOM     16  C   UNL d   1     -38.660  13.938  18.638  0.00  0.00     0.222 C 
ATOM     17  S   UNL d   1     -37.944  14.279  18.904  0.00  0.00    -0.037 SA
BRANCH  16  18
ATOM     18  N   UNL d   1     -38.685  13.103  18.513  0.00  0.00    -0.214 NA
ATOM     19  C   UNL d   1     -38.014  12.724  18.179  0.00  0.00     0.122 C 
ENDBRANCH  16  18
ENDBRANCH   1  16
BRANCH   4  20
ATOM     20  C   UNL d   1     -40.751  15.343  17.220  0.00  0.00     0.019 A 
ATOM     21  C   UNL d   1     -40.414  15.427  16.483  0.00  0.00     0.002 A 
ATOM     22  C   UNL d   1     -40.854  15.717  15.832  0.00  0.00     0.000 A 
ATOM     23  C   UNL d   1     -41.658  15.922  15.949  0.00  0.00     0.000 A 
ATOM     24  C   UNL d   1     -41.989  15.829  16.715  0.00  0.00     0.000 A 
ATOM     25  C   UNL d   1     -41.546  15.545  17.340  0.00  0.00     0.002 A 
ENDBRANCH   4  20
TORSDOF 6
ENDMDL
MODEL 6
REMARK VINA RESULT:      -3.5      6.141      8.465
REMARK  6 active torsions:
REMARK  status: ('A' for Active; 'I' for Inactive)
REMARK    1  A    between atoms: C_5  and  N_1 
REMARK    2  A    between atoms: C_7  and  C_3 
REMARK    3  A    between atoms: C_12  and  C_4 
REMARK    4  A    between atoms: N_14  and  C_5 
REMARK    5  A    between atoms: O_16  and  C_9 
REMARK    6  A    between atoms: O_17  and  C_11 
ROOT
ATOM      1  N   UNL d   1     -40.728  14.588  20.620  0.00  0.00    -0.203 N 
ATOM      2  N   UNL d   1     -41.272  14.244  21.141  0.00  0.00    -0.163 NA
ATOM      3  C   UNL d   1     -40.927  14.343  19.863  0.00  0.00     0.087 A 
ATOM      4  C   UNL d   1     -41.791  13.800  20.714  0.00  0.00     0.103 A 
ATOM      5  C   UNL d   1     -41.584  13.856  19.927  0.00  0.00     0.040 A 
ENDROOT
BRANCH   3   6
ATOM      6  C   UNL d   1     -40.542  14.543  19.153  0.00  0.00     0.020 A 
ATOM      7  C   UNL d   1     -39.935  14.096  18.853  0.00  0.00     0.028 A 
ATOM      8  C   UNL d   1     -39.560  14.297  18.156  0.00  0.00     0.116 A 
ATOM      9  C   UNL d   1     -39.796  14.958  17.752  0.00  0.00     0.116 A 
ATOM     10  C   UNL d   1     -40.411  15.425  18.042  0.00  0.00     0.026 A 
ATOM     11  C   UNL d   1     -40.787  15.223  18.740  0.00  0.00     0.004 A 
BRANCH   8  12
ATOM     12  O   UNL d   1     -38.938  13.843  17.844  0.00  0.00    -0.326 OA
ATOM     13  C   UNL d   1     -38.783  13.086  18.147  0.00  0.00     0.181 C 
ENDBRANCH   8  12
BRANCH   9  14
ATOM     14  O   UNL d   1     -39.418  15.175  17.034  0.00  0.00    -0.326 OA
ATOM     15  C   UNL d   1     -39.556  15.901  16.677  0.00  0.00     0.181 C 
ENDBRANCH   9  14
ENDBRANCH   3   6
BRANCH   1  16
ATOM     16  C   UNL d   1     -40.100  15.088  20.838  0.00  0.00     0.222 C 
ATOM     17  S   UNL d   1     -40.162  15.919  20.765  0.00  0.00    -0.037 SA
BRANCH  16  18
ATOM     18  N   UNL d   1     -39.380  14.764  21.142  0.00  0.00    -0.214 NA
ATOM     19  C   UNL d   1     -38.928  15.220  21.682  0.00  0.00     0.122 C 
ENDBRANCH  16  18
ENDBRANCH   1  16
BRANCH   4  20
ATOM     20  C   UNL d   1     -42.416  13.374  21.064  0.00  0.00     0.019 A 
ATOM     21  C   UNL d   1     -43.177  13.663  21.032  0.00  0.00     0.002 A 
ATOM     22  C   UNL d   1     -43.817  13.249  21.378  0.00  0.00     0.000 A 
ATOM     23  C   UNL d   1     -43.663  12.521  21.763  0.00  0.00     0.000 A 
ATOM     24  C   UNL d   1     -42.873  12.236  21.787  0.00  0.00     0.000 A 
ATOM     25  C   UNL d   1     -42.260  12.653  21.445  0.00  0.00     0.002 A 
ENDBRANCH   4  20
TORSDOF 6
ENDMDL
