MODEL 1
REMARK VINA RESULT:      -8.5      0.000      0.000
REMARK  3 active torsions:
REMARK  status: ('A' for Active; 'I' for Inactive)
REMARK    1  A    between atoms: C_4  and  C_1 
REMARK    2  A    between atoms: C_13  and  N_2 
REMARK    3  A    between atoms: C_10  and  C_13 
ROOT
ATOM      1  C   UNL d   1     -48.349  12.731  22.812  0.00  0.00     0.171 A 
ATOM      2  N   UNL d   1     -48.154  13.612  22.754  0.00  0.00    -0.286 N 
ATOM      3  N   UNL d   1     -47.564  12.283  22.777  0.00  0.00    -0.225 NA
ATOM      4  C   UNL d   1     -47.264  13.708  22.683  0.00  0.00     0.083 A 
ATOM      5  C   UNL d   1     -46.892  12.871  22.698  0.00  0.00     0.099 A 
ATOM      6  C   UNL d   1     -46.741  14.445  22.608  0.00  0.00     0.019 A 
ATOM      7  C   UNL d   1     -46.004  12.786  22.637  0.00  0.00     0.021 A 
ATOM      8  C   UNL d   1     -45.853  14.332  22.548  0.00  0.00     0.002 A 
ATOM      9  C   UNL d   1     -45.482  13.495  22.562  0.00  0.00     0.002 A 
ENDROOT
BRANCH   2  10
ATOM     10  C   UNL d   1     -48.056  14.374  22.708  0.00  0.00     0.106 C 
BRANCH  10  11
ATOM     11  C   UNL d   1     -48.704  14.857  22.762  0.00  0.00     0.118 A 
ATOM     12  O   UNL d   1     -49.089  15.060  23.418  0.00  0.00    -0.299 OA
ATOM     13  C   UNL d   1     -49.707  15.551  23.247  0.00  0.00     0.134 A 
ATOM     14 BR   UNL d   1     -50.267  15.914  23.697  0.00  0.00    -0.022 Br
ATOM     15  C   UNL d   1     -49.702  15.654  22.449  0.00  0.00     0.034 A 
ATOM     16  C   UNL d   1     -49.083  15.229  22.130  0.00  0.00     0.029 A 
ENDBRANCH  10  11
ENDBRANCH   2  10
BRANCH   1  17
ATOM     17  C   UNL d   1     -49.164  12.371  22.891  0.00  0.00     0.135 A 
ATOM     18  O   UNL d   1     -49.564  12.300  23.595  0.00  0.00    -0.297 OA
ATOM     19  C   UNL d   1     -50.274  11.945  23.406  0.00  0.00     0.134 A 
ATOM     20 BR   UNL d   1     -50.985  11.662  23.677  0.00  0.00    -0.022 Br
ATOM     21  C   UNL d   1     -50.291  11.809  22.603  0.00  0.00     0.034 A 
ATOM     22  C   UNL d   1     -49.592  12.080  22.295  0.00  0.00     0.030 A 
ENDBRANCH   1  17
TORSDOF 3
ENDMDL
MODEL 2
REMARK VINA RESULT:      -6.2      8.681     10.122
REMARK  3 active torsions:
REMARK  status: ('A' for Active; 'I' for Inactive)
REMARK    1  A    between atoms: C_4  and  C_1 
REMARK    2  A    between atoms: C_13  and  N_2 
REMARK    3  A    between atoms: C_10  and  C_13 
ROOT
ATOM      1  C   UNL d   1     -39.421  14.254  19.328  0.00  0.00     0.171 A 
ATOM      2  N   UNL d   1     -39.422  14.235  18.424  0.00  0.00    -0.286 N 
ATOM      3  N   UNL d   1     -38.935  13.544  19.608  0.00  0.00    -0.225 NA
ATOM      4  C   UNL d   1     -38.945  13.525  18.149  0.00  0.00     0.083 A 
ATOM      5  C   UNL d   1     -38.638  13.090  18.895  0.00  0.00     0.099 A 
ATOM      6  C   UNL d   1     -38.748  13.216  17.319  0.00  0.00     0.019 A 
ATOM      7  C   UNL d   1     -38.141  12.354  18.797  0.00  0.00     0.021 A 
ATOM      8  C   UNL d   1     -38.247  12.476  17.250  0.00  0.00     0.002 A 
ATOM      9  C   UNL d   1     -37.941  12.041  17.996  0.00  0.00     0.002 A 
ENDROOT
BRANCH   2  10
ATOM     10  C   UNL d   1     -39.461  14.275  17.657  0.00  0.00     0.106 C 
BRANCH  10  11
ATOM     11  C   UNL d   1     -39.930  14.842  17.317  0.00  0.00     0.118 A 
ATOM     12  O   UNL d   1     -40.716  14.854  17.294  0.00  0.00    -0.299 OA
ATOM     13  C   UNL d   1     -40.982  15.511  16.907  0.00  0.00     0.134 A 
ATOM     14 BR   UNL d   1     -41.715  15.791  16.729  0.00  0.00    -0.022 Br
ATOM     15  C   UNL d   1     -40.328  15.922  16.682  0.00  0.00     0.034 A 
ATOM     16  C   UNL d   1     -39.662  15.520  16.929  0.00  0.00     0.029 A 
ENDBRANCH  10  11
ENDBRANCH   2  10
BRANCH   1  17
ATOM     17  C   UNL d   1     -39.824  14.860  19.848  0.00  0.00     0.135 A 
ATOM     18  O   UNL d   1     -40.593  14.799  20.106  0.00  0.00    -0.297 OA
ATOM     19  C   UNL d   1     -40.724  15.466  20.557  0.00  0.00     0.134 A 
ATOM     20 BR   UNL d   1     -41.249  15.885  21.012  0.00  0.00    -0.022 Br
ATOM     21  C   UNL d   1     -40.042  15.913  20.564  0.00  0.00     0.034 A 
ATOM     22  C   UNL d   1     -39.491  15.522  20.118  0.00  0.00     0.030 A 
ENDBRANCH   1  17
TORSDOF 3
ENDMDL
MODEL 3
REMARK VINA RESULT:      -5.9      1.698      3.270
REMARK  3 active torsions:
REMARK  status: ('A' for Active; 'I' for Inactive)
REMARK    1  A    between atoms: C_4  and  C_1 
REMARK    2  A    between atoms: C_13  and  N_2 
REMARK    3  A    between atoms: C_10  and  C_13 
ROOT
ATOM      1  C   UNL d   1     -48.120  12.516  23.219  0.00  0.00     0.171 A 
ATOM      2  N   UNL d   1     -48.832  13.073  23.173  0.00  0.00    -0.286 N 
ATOM      3  N   UNL d   1     -48.441  11.693  23.411  0.00  0.00    -0.225 NA
ATOM      4  C   UNL d   1     -49.579  12.602  23.335  0.00  0.00     0.083 A 
ATOM      5  C   UNL d   1     -49.333  11.732  23.484  0.00  0.00     0.099 A 
ATOM      6  C   UNL d   1     -50.452  12.848  23.366  0.00  0.00     0.019 A 
ATOM      7  C   UNL d   1     -49.964  11.124  23.662  0.00  0.00     0.021 A 
ATOM      8  C   UNL d   1     -51.064  12.218  23.546  0.00  0.00     0.002 A 
ATOM      9  C   UNL d   1     -50.818  11.349  23.696  0.00  0.00     0.002 A 
ENDROOT
BRANCH   2  10
ATOM     10  C   UNL d   1     -49.393  13.598  23.121  0.00  0.00     0.106 C 
BRANCH  10  11
ATOM     11  C   UNL d   1     -49.202  14.355  22.905  0.00  0.00     0.118 A 
ATOM     12  O   UNL d   1     -48.968  14.599  22.194  0.00  0.00    -0.299 OA
ATOM     13  C   UNL d   1     -48.829  15.394  22.196  0.00  0.00     0.134 A 
ATOM     14 BR   UNL d   1     -48.587  15.916  21.633  0.00  0.00    -0.022 Br
ATOM     15  C   UNL d   1     -48.986  15.651  22.942  0.00  0.00     0.034 A 
ATOM     16  C   UNL d   1     -49.220  15.017  23.399  0.00  0.00     0.029 A 
ENDBRANCH  10  11
ENDBRANCH   2  10
BRANCH   1  17
ATOM     17  C   UNL d   1     -47.263  12.738  23.097  0.00  0.00     0.135 A 
ATOM     18  O   UNL d   1     -46.902  12.778  22.369  0.00  0.00    -0.297 OA
ATOM     19  C   UNL d   1     -46.132  12.998  22.520  0.00  0.00     0.134 A 
ATOM     20 BR   UNL d   1     -45.402  13.170  22.211  0.00  0.00    -0.022 Br
ATOM     21  C   UNL d   1     -46.040  13.085  23.325  0.00  0.00     0.034 A 
ATOM     22  C   UNL d   1     -46.754  12.920  23.671  0.00  0.00     0.030 A 
ENDBRANCH   1  17
TORSDOF 3
ENDMDL
MODEL 4
REMARK VINA RESULT:      -5.7      1.213      1.692
REMARK  3 active torsions:
REMARK  status: ('A' for Active; 'I' for Inactive)
REMARK    1  A    between atoms: C_4  and  C_1 
REMARK    2  A    between atoms: C_13  and  N_2 
REMARK    3  A    between atoms: C_10  and  C_13 
ROOT
ATOM      1  C   UNL d   1     -48.182  11.926  23.104  0.00  0.00     0.171 A 
ATOM      2  N   UNL d   1     -47.569  12.545  22.862  0.00  0.00    -0.286 N 
ATOM      3  N   UNL d   1     -47.726  11.194  23.376  0.00  0.00    -0.225 NA
ATOM      4  C   UNL d   1     -46.748  12.201  22.982  0.00  0.00     0.083 A 
ATOM      5  C   UNL d   1     -46.846  11.350  23.306  0.00  0.00     0.099 A 
ATOM      6  C   UNL d   1     -45.922  12.549  22.840  0.00  0.00     0.019 A 
ATOM      7  C   UNL d   1     -46.118  10.862  23.481  0.00  0.00     0.021 A 
ATOM      8  C   UNL d   1     -45.209  12.039  23.024  0.00  0.00     0.002 A 
ATOM      9  C   UNL d   1     -45.308  11.187  23.348  0.00  0.00     0.002 A 
ENDROOT
BRANCH   2  10
ATOM     10  C   UNL d   1     -47.100  13.113  22.641  0.00  0.00     0.106 C 
BRANCH  10  11
ATOM     11  C   UNL d   1     -47.405  13.856  22.539  0.00  0.00     0.118 A 
ATOM     12  O   UNL d   1     -47.758  14.138  21.894  0.00  0.00    -0.299 OA
ATOM     13  C   UNL d   1     -47.988  14.904  22.005  0.00  0.00     0.134 A 
ATOM     14 BR   UNL d   1     -48.362  15.443  21.539  0.00  0.00    -0.022 Br
ATOM     15  C   UNL d   1     -47.767  15.102  22.752  0.00  0.00     0.034 A 
ATOM     16  C   UNL d   1     -47.402  14.461  23.101  0.00  0.00     0.029 A 
ENDBRANCH  10  11
ENDBRANCH   2  10
BRANCH   1  17
ATOM     17  C   UNL d   1     -49.071  12.019  23.080  0.00  0.00     0.135 A 
ATOM     18  O   UNL d   1     -49.514  12.315  23.694  0.00  0.00    -0.297 OA
ATOM     19  C   UNL d   1     -50.286  12.301  23.431  0.00  0.00     0.134 A 
ATOM     20 BR   UNL d   1     -51.064  12.459  23.600  0.00  0.00    -0.022 Br
ATOM     21  C   UNL d   1     -50.297  12.001  22.673  0.00  0.00     0.034 A 
ATOM     22  C   UNL d   1     -49.532  11.830  22.469  0.00  0.00     0.030 A 
ENDBRANCH   1  17
TORSDOF 3
ENDMDL
