MODEL 1
REMARK VINA RESULT:      -0.9      0.000      0.000
REMARK  4 active torsions:
REMARK  status: ('A' for Active; 'I' for Inactive)
REMARK    1  A    between atoms: C_2  and  C_1 
REMARK    2  A    between atoms: C_4  and  C_2 
REMARK       I    between atoms: C_3  and  N_6 
REMARK    3  A    between atoms: C_7  and  C_3 
REMARK    4  A    between atoms: N_6  and  C_5 
ROOT
ATOM      1  C   UNL d   1      31.403  17.318 -24.339  0.00  0.00     0.058 A 
ATOM      2  C   UNL d   1      32.068  17.655 -23.939  0.00  0.00     0.088 A 
ATOM      3  C   UNL d   1      31.473  16.610 -24.706  0.00  0.00     0.016 A 
ATOM      4  C   UNL d   1      32.772  17.224 -23.950  0.00  0.00     0.020 A 
ATOM      5  C   UNL d   1      32.189  16.199 -24.701  0.00  0.00     0.058 A 
ATOM      6  C   UNL d   1      32.833  16.498 -24.330  0.00  0.00     0.013 A 
ATOM      7 CL   UNL d   1      32.238  15.453 -25.096  0.00  0.00    -0.082 Cl
ENDROOT
BRANCH   1   8
ATOM      8  C   UNL d   1      30.675  17.708 -24.358  0.00  0.00     0.198 C 
ATOM      9  O   UNL d   1      30.655  18.476 -24.662  0.00  0.00    -0.286 OA
BRANCH   8  10
ATOM     10  C   UNL d   1      29.984  17.356 -24.086  0.00  0.00     0.050 A 
ATOM     11  C   UNL d   1      29.250  17.666 -24.298  0.00  0.00     0.061 A 
ATOM     12 CL   UNL d   1      29.177  18.342 -24.791  0.00  0.00    -0.082 Cl
ATOM     13  C   UNL d   1      28.555  17.307 -24.021  0.00  0.00     0.011 A 
ATOM     14  C   UNL d   1      28.595  16.641 -23.535  0.00  0.00     0.001 A 
ATOM     15  C   UNL d   1      29.342  16.350 -23.337  0.00  0.00     0.000 A 
ATOM     16  C   UNL d   1      30.038  16.710 -23.615  0.00  0.00     0.004 A 
ENDBRANCH   8  10
ENDBRANCH   1   8
BRANCH   2  17
ATOM     17  N   UNL d   1      32.022  18.406 -23.541  0.00  0.00    -0.206 NA
ATOM     18  C   UNL d   1      32.597  18.626 -23.029  0.00  0.00     0.302 C 
ATOM     19  O   UNL d   1      33.241  18.133 -22.878  0.00  0.00    -0.263 OA
BRANCH  18  20
ATOM     20  C   UNL d   1      32.540  19.357 -22.649  0.00  0.00     0.158 A 
ATOM     21  O   UNL d   1      31.979  19.675 -22.156  0.00  0.00    -0.300 OA
ATOM     22  C   UNL d   1      32.224  20.416 -21.957  0.00  0.00     0.123 A 
ATOM     23  C   UNL d   1      32.908  20.592 -22.293  0.00  0.00     0.029 A 
ATOM     24  C   UNL d   1      33.134  19.920 -22.749  0.00  0.00     0.032 A 
ENDBRANCH  18  20
ENDBRANCH   2  17
TORSDOF 4
ENDMDL
MODEL 2
REMARK VINA RESULT:       0.6      3.117      5.441
REMARK  4 active torsions:
REMARK  status: ('A' for Active; 'I' for Inactive)
REMARK    1  A    between atoms: C_2  and  C_1 
REMARK    2  A    between atoms: C_4  and  C_2 
REMARK       I    between atoms: C_3  and  N_6 
REMARK    3  A    between atoms: C_7  and  C_3 
REMARK    4  A    between atoms: N_6  and  C_5 
ROOT
ATOM      1  C   UNL d   1      33.041  21.986 -22.922  0.00  0.00     0.058 A 
ATOM      2  C   UNL d   1      33.059  21.341 -23.469  0.00  0.00     0.088 A 
ATOM      3  C   UNL d   1      33.100  22.739 -23.189  0.00  0.00     0.016 A 
ATOM      4  C   UNL d   1      33.138  21.527 -24.269  0.00  0.00     0.020 A 
ATOM      5  C   UNL d   1      33.178  22.898 -23.995  0.00  0.00     0.058 A 
ATOM      6  C   UNL d   1      33.197  22.304 -24.532  0.00  0.00     0.013 A 
ATOM      7 CL   UNL d   1      33.238  23.701 -24.252  0.00  0.00    -0.082 Cl
ENDROOT
BRANCH   1   8
ATOM      8  C   UNL d   1      32.964  21.854 -22.110  0.00  0.00     0.198 C 
ATOM      9  O   UNL d   1      33.226  21.132 -21.808  0.00  0.00    -0.286 OA
BRANCH   8  10
ATOM     10  C   UNL d   1      32.638  22.416 -21.607  0.00  0.00     0.050 A 
ATOM     11  C   UNL d   1      32.772  22.370 -20.794  0.00  0.00     0.061 A 
ATOM     12 CL   UNL d   1      33.237  21.761 -20.451  0.00  0.00    -0.082 Cl
ATOM     13  C   UNL d   1      32.441  22.940 -20.289  0.00  0.00     0.011 A 
ATOM     14  C   UNL d   1      31.978  23.552 -20.597  0.00  0.00     0.001 A 
ATOM     15  C   UNL d   1      31.860  23.574 -21.413  0.00  0.00     0.000 A 
ATOM     16  C   UNL d   1      32.192  23.004 -21.918  0.00  0.00     0.004 A 
ENDBRANCH   8  10
ENDBRANCH   1   8
BRANCH   2  17
ATOM     17  N   UNL d   1      32.999  20.531 -23.213  0.00  0.00    -0.206 NA
ATOM     18  C   UNL d   1      33.086  19.935 -23.741  0.00  0.00     0.302 C 
ATOM     19  O   UNL d   1      33.235  20.092 -24.537  0.00  0.00    -0.263 OA
BRANCH  18  20
ATOM     20  C   UNL d   1      33.025  19.154 -23.479  0.00  0.00     0.158 A 
ATOM     21  O   UNL d   1      33.196  18.800 -22.770  0.00  0.00    -0.300 OA
ATOM     22  C   UNL d   1      33.023  18.017 -22.841  0.00  0.00     0.123 A 
ATOM     23  C   UNL d   1      32.751  17.848 -23.554  0.00  0.00     0.029 A 
ATOM     24  C   UNL d   1      32.743  18.570 -23.988  0.00  0.00     0.032 A 
ENDBRANCH  18  20
ENDBRANCH   2  17
TORSDOF 4
ENDMDL
MODEL 3
REMARK VINA RESULT:       1.2      3.188      5.113
REMARK  4 active torsions:
REMARK  status: ('A' for Active; 'I' for Inactive)
REMARK    1  A    between atoms: C_2  and  C_1 
REMARK    2  A    between atoms: C_4  and  C_2 
REMARK       I    between atoms: C_3  and  N_6 
REMARK    3  A    between atoms: C_7  and  C_3 
REMARK    4  A    between atoms: N_6  and  C_5 
ROOT
ATOM      1  C   UNL d   1      33.080  20.861 -21.666  0.00  0.00     0.058 A 
ATOM      2  C   UNL d   1      33.127  20.060 -21.933  0.00  0.00     0.088 A 
ATOM      3  C   UNL d   1      33.113  21.024 -20.882  0.00  0.00     0.016 A 
ATOM      4  C   UNL d   1      33.206  19.474 -21.356  0.00  0.00     0.020 A 
ATOM      5  C   UNL d   1      33.193  20.419 -20.326  0.00  0.00     0.058 A 
ATOM      6  C   UNL d   1      33.239  19.653 -20.555  0.00  0.00     0.013 A 
ATOM      7 CL   UNL d   1      33.226  20.616 -19.504  0.00  0.00    -0.082 Cl
ENDROOT
BRANCH   1   8
ATOM      8  C   UNL d   1      33.000  21.485 -22.201  0.00  0.00     0.198 C 
ATOM      9  O   UNL d   1      33.238  21.358 -22.981  0.00  0.00    -0.286 OA
BRANCH   8  10
ATOM     10  C   UNL d   1      32.695  22.214 -21.977  0.00  0.00     0.050 A 
ATOM     11  C   UNL d   1      32.772  22.866 -22.477  0.00  0.00     0.061 A 
ATOM     12 CL   UNL d   1      33.158  22.815 -23.222  0.00  0.00    -0.082 Cl
ATOM     13  C   UNL d   1      32.462  23.601 -22.247  0.00  0.00     0.011 A 
ATOM     14  C   UNL d   1      32.077  23.683 -21.521  0.00  0.00     0.001 A 
ATOM     15  C   UNL d   1      32.013  23.015 -21.040  0.00  0.00     0.000 A 
ATOM     16  C   UNL d   1      32.324  22.279 -21.270  0.00  0.00     0.004 A 
ENDBRANCH   8  10
ENDBRANCH   1   8
BRANCH   2  17
ATOM     17  N   UNL d   1      33.094  19.858 -22.759  0.00  0.00    -0.206 NA
ATOM     18  C   UNL d   1      33.089  19.090 -22.985  0.00  0.00     0.302 C 
ATOM     19  O   UNL d   1      33.115  18.483 -22.427  0.00  0.00    -0.263 OA
BRANCH  18  20
ATOM     20  C   UNL d   1      33.057  18.908 -23.791  0.00  0.00     0.158 A 
ATOM     21  O   UNL d   1      32.871  19.350 -24.445  0.00  0.00    -0.300 OA
ATOM     22  C   UNL d   1      32.936  18.871 -25.088  0.00  0.00     0.123 A 
ATOM     23  C   UNL d   1      33.153  18.148 -24.886  0.00  0.00     0.029 A 
ATOM     24  C   UNL d   1      33.239  18.145 -24.048  0.00  0.00     0.032 A 
ENDBRANCH  18  20
ENDBRANCH   2  17
TORSDOF 4
ENDMDL
MODEL 4
REMARK VINA RESULT:       1.6      2.228      4.443
REMARK  4 active torsions:
REMARK  status: ('A' for Active; 'I' for Inactive)
REMARK    1  A    between atoms: C_2  and  C_1 
REMARK    2  A    between atoms: C_4  and  C_2 
REMARK       I    between atoms: C_3  and  N_6 
REMARK    3  A    between atoms: C_7  and  C_3 
REMARK    4  A    between atoms: N_6  and  C_5 
ROOT
ATOM      1  C   UNL d   1      33.087  19.848 -23.347  0.00  0.00     0.058 A 
ATOM      2  C   UNL d   1      32.975  19.181 -23.855  0.00  0.00     0.088 A 
ATOM      3  C   UNL d   1      33.171  20.580 -23.661  0.00  0.00     0.016 A 
ATOM      4  C   UNL d   1      32.957  19.325 -24.668  0.00  0.00     0.020 A 
ATOM      5  C   UNL d   1      33.149  20.697 -24.477  0.00  0.00     0.058 A 
ATOM      6  C   UNL d   1      33.044  20.081 -24.978  0.00  0.00     0.013 A 
ATOM      7 CL   UNL d   1      33.240  21.480 -24.784  0.00  0.00    -0.082 Cl
ENDROOT
BRANCH   1   8
ATOM      8  C   UNL d   1      33.113  19.759 -22.526  0.00  0.00     0.198 C 
ATOM      9  O   UNL d   1      33.241  19.001 -22.223  0.00  0.00    -0.286 OA
BRANCH   8  10
ATOM     10  C   UNL d   1      33.016  20.395 -22.015  0.00  0.00     0.050 A 
ATOM     11  C   UNL d   1      33.041  20.278 -21.199  0.00  0.00     0.061 A 
ATOM     12 CL   UNL d   1      33.165  19.519 -20.860  0.00  0.00    -0.082 Cl
ATOM     13  C   UNL d   1      32.942  20.924 -20.687  0.00  0.00     0.011 A 
ATOM     14  C   UNL d   1      32.819  21.682 -20.991  0.00  0.00     0.001 A 
ATOM     15  C   UNL d   1      32.798  21.772 -21.811  0.00  0.00     0.000 A 
ATOM     16  C   UNL d   1      32.897  21.125 -22.323  0.00  0.00     0.004 A 
ENDBRANCH   8  10
ENDBRANCH   1   8
BRANCH   2  17
ATOM     17  N   UNL d   1      32.883  18.392 -23.549  0.00  0.00    -0.206 NA
ATOM     18  C   UNL d   1      32.554  17.821 -24.004  0.00  0.00     0.302 C 
ATOM     19  O   UNL d   1      32.300  17.983 -24.772  0.00  0.00    -0.263 OA
BRANCH  18  20
ATOM     20  C   UNL d   1      32.471  17.059 -23.695  0.00  0.00     0.158 A 
ATOM     21  O   UNL d   1      33.011  16.507 -23.448  0.00  0.00    -0.300 OA
ATOM     22  C   UNL d   1      32.601  15.860 -23.199  0.00  0.00     0.123 A 
ATOM     23  C   UNL d   1      31.830  15.965 -23.271  0.00  0.00     0.029 A 
ATOM     24  C   UNL d   1      31.719  16.737 -23.592  0.00  0.00     0.032 A 
ENDBRANCH  18  20
ENDBRANCH   2  17
TORSDOF 4
ENDMDL
