MODEL 1
REMARK VINA RESULT:      -5.4      0.000      0.000
REMARK  4 active torsions:
REMARK  status: ('A' for Active; 'I' for Inactive)
REMARK    1  A    between atoms: N_3  and  C_8 
REMARK    2  A    between atoms: S_11  and  C_4 
REMARK    3  A    between atoms: C_15  and  S_11 
REMARK    4  A    between atoms: C_16  and  C_15 
ROOT
ATOM      1  C   UNL d   1     -41.806-122.313 -51.658  0.00  0.00     0.037 C 
ENDROOT
BRANCH   1   2
ATOM      2  S   UNL d   1     -41.223-122.542 -52.189  0.00  0.00    -0.067 SA
BRANCH   2   3
ATOM      3  C   UNL d   1     -41.383-122.530 -53.001  0.00  0.00     0.117 A 
ATOM      4  N   UNL d   1     -41.743-121.879 -53.341  0.00  0.00    -0.184 NA
ATOM      5  C   UNL d   1     -41.904-121.867 -54.152  0.00  0.00     0.369 A 
ATOM      6  N   UNL d   1     -41.704-122.506 -54.622  0.00  0.00    -0.191 NA
ATOM      7  O   UNL d   1     -42.267-121.209 -54.492  0.00  0.00    -0.242 OA
ATOM      8  C   UNL d   1     -41.340-123.164 -54.283  0.00  0.00     0.088 A 
ATOM      9  C   UNL d   1     -41.180-123.176 -53.471  0.00  0.00     0.045 A 
ATOM     10  C   UNL d   1     -41.134-123.817 -54.754  0.00  0.00     0.021 C 
ENDBRANCH   2   3
ENDBRANCH   1   2
BRANCH   1  11
ATOM     11  C   UNL d   1     -41.785-122.564 -50.877  0.00  0.00     0.007 A 
ATOM     12  C   UNL d   1     -41.140-122.991 -50.581  0.00  0.00     0.002 A 
ATOM     13  C   UNL d   1     -41.123-123.238 -49.806  0.00  0.00     0.024 A 
ATOM     14  C   UNL d   1     -41.754-123.062 -49.310  0.00  0.00     0.127 A 
ATOM     15  C   UNL d   1     -42.390-122.644 -49.590  0.00  0.00     0.024 A 
ATOM     16  C   UNL d   1     -42.418-122.389 -50.375  0.00  0.00     0.002 A 
BRANCH  14  17
ATOM     17  N   UNL d   1     -41.745-123.308 -48.524  0.00  0.00    -0.114 N 
ATOM     18  O   UNL d   1     -41.142-123.067 -48.018  0.00  0.00    -0.532 OA
ATOM     19  O   UNL d   1     -42.346-123.799 -48.245  0.00  0.00    -0.532 OA
ENDBRANCH  14  17
ENDBRANCH   1  11
TORSDOF 4
ENDMDL
MODEL 2
REMARK VINA RESULT:      -4.8      1.177      4.660
REMARK  4 active torsions:
REMARK  status: ('A' for Active; 'I' for Inactive)
REMARK    1  A    between atoms: N_3  and  C_8 
REMARK    2  A    between atoms: S_11  and  C_4 
REMARK    3  A    between atoms: C_15  and  S_11 
REMARK    4  A    between atoms: C_16  and  C_15 
ROOT
ATOM      1  C   UNL d   1     -41.382-122.625 -51.576  0.00  0.00     0.037 C 
ENDROOT
BRANCH   1   2
ATOM      2  S   UNL d   1     -41.468-123.321 -51.150  0.00  0.00    -0.067 SA
BRANCH   2   3
ATOM      3  C   UNL d   1     -41.793-123.297 -50.390  0.00  0.00     0.117 A 
ATOM      4  N   UNL d   1     -42.603-123.245 -50.289  0.00  0.00    -0.184 NA
ATOM      5  C   UNL d   1     -42.929-123.221 -49.529  0.00  0.00     0.369 A 
ATOM      6  N   UNL d   1     -42.444-123.249 -48.871  0.00  0.00    -0.191 NA
ATOM      7  O   UNL d   1     -43.746-123.168 -49.431  0.00  0.00    -0.242 OA
ATOM      8  C   UNL d   1     -41.626-123.302 -48.969  0.00  0.00     0.088 A 
ATOM      9  C   UNL d   1     -41.301-123.326 -49.729  0.00  0.00     0.045 A 
ATOM     10  C   UNL d   1     -41.127-123.331 -48.304  0.00  0.00     0.021 C 
ENDBRANCH   2   3
ENDBRANCH   1   2
BRANCH   1  11
ATOM     11  C   UNL d   1     -41.360-122.633 -52.396  0.00  0.00     0.007 A 
ATOM     12  C   UNL d   1     -41.144-123.316 -52.812  0.00  0.00     0.002 A 
ATOM     13  C   UNL d   1     -41.123-123.320 -53.625  0.00  0.00     0.024 A 
ATOM     14  C   UNL d   1     -41.318-122.638 -54.040  0.00  0.00     0.127 A 
ATOM     15  C   UNL d   1     -41.531-121.964 -53.642  0.00  0.00     0.024 A 
ATOM     16  C   UNL d   1     -41.556-121.948 -52.817  0.00  0.00     0.002 A 
BRANCH  14  17
ATOM     17  N   UNL d   1     -41.299-122.633 -54.864  0.00  0.00    -0.114 N 
ATOM     18  O   UNL d   1     -41.157-123.328 -55.282  0.00  0.00    -0.532 OA
ATOM     19  O   UNL d   1     -41.424-121.926 -55.269  0.00  0.00    -0.532 OA
ENDBRANCH  14  17
ENDBRANCH   1  11
TORSDOF 4
ENDMDL
