MODEL 1
REMARK VINA RESULT:      30.7      0.000      0.000
REMARK  4 active torsions:
REMARK  status: ('A' for Active; 'I' for Inactive)
REMARK    1  A    between atoms: C_8  and  N_1 
REMARK    2  A    between atoms: C_7  and  C_2 
REMARK    3  A    between atoms: C_9  and  C_7 
REMARK    4  A    between atoms: C_17  and  C_8 
ROOT
ATOM      1  N   UNL d   1      13.222  13.064  -3.564  0.00  0.00    -0.224 N 
ATOM      2  C   UNL d   1      13.702  12.588  -2.309  0.00  0.00     0.117 A 
ATOM      3  C   UNL d   1      13.248  12.472  -2.992  0.00  0.00     0.273 A 
ATOM      4  C   UNL d   1      13.637  13.754  -3.461  0.00  0.00     0.359 A 
ATOM      5  N   UNL d   1      14.082  13.861  -2.785  0.00  0.00    -0.153 NA
ATOM      6  C   UNL d   1      14.117  13.279  -2.206  0.00  0.00     0.288 A 
ATOM      7  O   UNL d   1      13.613  14.344  -4.027  0.00  0.00    -0.244 OA
ATOM      8  O   UNL d   1      12.831  11.779  -3.095  0.00  0.00    -0.266 OA
ATOM      9  O   UNL d   1      14.568  13.399  -1.533  0.00  0.00    -0.265 OA
ENDROOT
BRANCH   1  10
ATOM     10  C   UNL d   1      12.769  12.947  -4.244  0.00  0.00     0.087 C 
BRANCH  10  11
ATOM     11  C   UNL d   1      13.134  12.670  -4.932  0.00  0.00     0.018 A 
ATOM     12  C   UNL d   1      12.806  12.058  -5.352  0.00  0.00     0.002 A 
ATOM     13  C   UNL d   1      13.170  11.780  -6.040  0.00  0.00     0.000 A 
ATOM     14  C   UNL d   1      13.873  12.132  -6.296  0.00  0.00     0.000 A 
ATOM     15  C   UNL d   1      14.202  12.744  -5.875  0.00  0.00     0.000 A 
ATOM     16  C   UNL d   1      13.837  13.021  -5.187  0.00  0.00     0.002 A 
ENDBRANCH  10  11
ENDBRANCH   1  10
BRANCH   2  17
ATOM     17  C   UNL d   1      13.732  11.992  -1.725  0.00  0.00     0.034 C 
BRANCH  17  18
ATOM     18  C   UNL d   1      14.381  11.937  -1.234  0.00  0.00     0.100 A 
ATOM     19  O   UNL d   1      15.184  11.821  -1.380  0.00  0.00    -0.305 OA
ATOM     20  C   UNL d   1      15.566  11.815  -0.671  0.00  0.00     0.123 A 
ATOM     21  C   UNL d   1      15.032  11.923  -0.074  0.00  0.00     0.029 A 
ATOM     22  C   UNL d   1      14.291  12.000  -0.416  0.00  0.00     0.027 A 
ENDBRANCH  17  18
ENDBRANCH   2  17
TORSDOF 4
ENDMDL
MODEL 2
REMARK VINA RESULT:      32.2      0.887      3.882
REMARK  4 active torsions:
REMARK  status: ('A' for Active; 'I' for Inactive)
REMARK    1  A    between atoms: C_8  and  N_1 
REMARK    2  A    between atoms: C_7  and  C_2 
REMARK    3  A    between atoms: C_9  and  C_7 
REMARK    4  A    between atoms: C_17  and  C_8 
ROOT
ATOM      1  N   UNL d   1      13.691  12.994  -2.129  0.00  0.00    -0.224 N 
ATOM      2  C   UNL d   1      13.261  12.702  -3.456  0.00  0.00     0.117 A 
ATOM      3  C   UNL d   1      13.316  12.487  -2.658  0.00  0.00     0.273 A 
ATOM      4  C   UNL d   1      14.003  13.699  -2.385  0.00  0.00     0.359 A 
ATOM      5  N   UNL d   1      13.944  13.904  -3.174  0.00  0.00    -0.153 NA
ATOM      6  C   UNL d   1      13.573  13.407  -3.712  0.00  0.00     0.288 A 
ATOM      7  O   UNL d   1      14.375  14.206  -1.863  0.00  0.00    -0.244 OA
ATOM      8  O   UNL d   1      13.003  11.780  -2.401  0.00  0.00    -0.266 OA
ATOM      9  O   UNL d   1      13.521  13.624  -4.500  0.00  0.00    -0.265 OA
ENDROOT
BRANCH   1  10
ATOM     10  C   UNL d   1      13.745  12.779  -1.334  0.00  0.00     0.087 C 
BRANCH  10  11
ATOM     11  C   UNL d   1      14.484  12.584  -1.017  0.00  0.00     0.018 A 
ATOM     12  C   UNL d   1      14.758  12.965  -0.355  0.00  0.00     0.002 A 
ATOM     13  C   UNL d   1      15.496  12.771  -0.036  0.00  0.00     0.000 A 
ATOM     14  C   UNL d   1      15.952  12.185  -0.400  0.00  0.00     0.000 A 
ATOM     15  C   UNL d   1      15.678  11.804  -1.063  0.00  0.00     0.000 A 
ATOM     16  C   UNL d   1      14.939  11.998  -1.380  0.00  0.00     0.002 A 
ENDBRANCH  10  11
ENDBRANCH   1  10
BRANCH   2  17
ATOM     17  C   UNL d   1      12.882  12.192  -3.998  0.00  0.00     0.034 C 
BRANCH  17  18
ATOM     18  C   UNL d   1      13.231  12.031  -4.717  0.00  0.00     0.100 A 
ATOM     19  O   UNL d   1      14.016  11.928  -4.947  0.00  0.00    -0.305 OA
ATOM     20  C   UNL d   1      14.026  11.780  -5.738  0.00  0.00     0.123 A 
ATOM     21  C   UNL d   1      13.270  11.784  -6.024  0.00  0.00     0.029 A 
ATOM     22  C   UNL d   1      12.769  11.940  -5.394  0.00  0.00     0.027 A 
ENDBRANCH  17  18
ENDBRANCH   2  17
TORSDOF 4
ENDMDL
