MODEL 1
REMARK VINA RESULT:      -7.1      0.000      0.000
REMARK  5 active torsions:
REMARK  status: ('A' for Active; 'I' for Inactive)
REMARK    1  A    between atoms: S_2  and  C_1 
REMARK    2  A    between atoms: N_3  and  C_1 
REMARK    3  A    between atoms: C_4  and  C_1 
REMARK    4  A    between atoms: C_6  and  S_2 
REMARK       I    between atoms: C_5  and  N_3 
REMARK    5  A    between atoms: C_9  and  C_5 
ROOT
ATOM      1  C   UNL d   1     -48.693  12.970  22.661  0.00  0.00     0.193 C 
ENDROOT
BRANCH   1   2
ATOM      2  S   UNL d   1     -49.159  13.574  22.909  0.00  0.00     0.228 S 
ATOM      3  O   UNL d   1     -49.104  13.320  23.695  0.00  0.00    -0.216 OA
ATOM      4  O   UNL d   1     -49.209  13.799  22.215  0.00  0.00    -0.216 OA
BRANCH   2   5
ATOM      5  C   UNL d   1     -49.567  14.110  23.091  0.00  0.00     0.090 A 
ATOM      6  C   UNL d   1     -50.399  14.013  23.246  0.00  0.00     0.012 A 
ATOM      7  C   UNL d   1     -50.880  14.684  23.468  0.00  0.00     0.012 A 
ATOM      8  C   UNL d   1     -50.526  15.447  23.534  0.00  0.00     0.058 A 
ATOM      9  C   UNL d   1     -49.712  15.549  23.383  0.00  0.00     0.012 A 
ATOM     10 CL   UNL d   1     -50.899  15.922  23.698  0.00  0.00    -0.082 Cl
ATOM     11  C   UNL d   1     -49.231  14.878  23.161  0.00  0.00     0.012 A 
ENDBRANCH   2   5
ENDBRANCH   1   2
BRANCH   1  12
ATOM     12  N   UNL d   1     -47.917  13.134  22.352  0.00  0.00    -0.195 NA
ATOM     13  C   UNL d   1     -47.196  12.887  22.742  0.00  0.00     0.280 C 
ATOM     14  O   UNL d   1     -47.261  12.444  23.496  0.00  0.00    -0.265 OA
BRANCH  13  15
ATOM     15  C   UNL d   1     -46.499  12.972  22.571  0.00  0.00     0.058 A 
ATOM     16  C   UNL d   1     -46.079  12.297  22.789  0.00  0.00     0.005 A 
ATOM     17  C   UNL d   1     -45.269  12.247  22.656  0.00  0.00     0.000 A 
ATOM     18  C   UNL d   1     -44.883  12.883  22.301  0.00  0.00     0.000 A 
ATOM     19  C   UNL d   1     -45.303  13.558  22.083  0.00  0.00     0.000 A 
ATOM     20  C   UNL d   1     -44.280  12.793  22.225  0.00  0.00     0.000 C 
ATOM     21  C   UNL d   1     -46.110  13.597  22.220  0.00  0.00     0.005 A 
ENDBRANCH  13  15
ENDBRANCH   1  12
BRANCH   1  22
ATOM     22  C   UNL d   1     -48.993  12.200  22.716  0.00  0.00     0.144 C 
ATOM     23 CL   UNL d   1     -49.228  11.780  21.991  0.00  0.00    -0.068 Cl
ATOM     24 CL   UNL d   1     -49.080  11.802  23.462  0.00  0.00    -0.068 Cl
ENDBRANCH   1  22
TORSDOF 5
ENDMDL
MODEL 2
REMARK VINA RESULT:      -6.7      7.999      9.452
REMARK  5 active torsions:
REMARK  status: ('A' for Active; 'I' for Inactive)
REMARK    1  A    between atoms: S_2  and  C_1 
REMARK    2  A    between atoms: N_3  and  C_1 
REMARK    3  A    between atoms: C_4  and  C_1 
REMARK    4  A    between atoms: C_6  and  S_2 
REMARK       I    between atoms: C_5  and  N_3 
REMARK    5  A    between atoms: C_9  and  C_5 
ROOT
ATOM      1  C   UNL d   1     -40.221  14.846  20.627  0.00  0.00     0.193 C 
ENDROOT
BRANCH   1   2
ATOM      2  S   UNL d   1     -39.788  14.639  21.270  0.00  0.00     0.228 S 
ATOM      3  O   UNL d   1     -40.228  13.945  21.367  0.00  0.00    -0.216 OA
ATOM      4  O   UNL d   1     -39.400  15.253  21.184  0.00  0.00    -0.216 OA
BRANCH   2   5
ATOM      5  C   UNL d   1     -39.393  14.489  21.825  0.00  0.00     0.090 A 
ATOM      6  C   UNL d   1     -39.207  13.688  22.043  0.00  0.00     0.012 A 
ATOM      7  C   UNL d   1     -38.721  13.527  22.728  0.00  0.00     0.012 A 
ATOM      8  C   UNL d   1     -38.424  14.168  23.189  0.00  0.00     0.058 A 
ATOM      9  C   UNL d   1     -38.603  14.956  22.981  0.00  0.00     0.012 A 
ATOM     10 CL   UNL d   1     -38.071  14.024  23.685  0.00  0.00    -0.082 Cl
ATOM     11  C   UNL d   1     -39.089  15.117  22.296  0.00  0.00     0.012 A 
ENDBRANCH   2   5
ENDBRANCH   1   2
BRANCH   1  12
ATOM     12  N   UNL d   1     -39.843  14.916  19.867  0.00  0.00    -0.195 NA
ATOM     13  C   UNL d   1     -40.097  14.481  19.175  0.00  0.00     0.280 C 
ATOM     14  O   UNL d   1     -40.780  13.937  19.254  0.00  0.00    -0.265 OA
BRANCH  13  15
ATOM     15  C   UNL d   1     -39.853  14.465  18.495  0.00  0.00     0.058 A 
ATOM     16  C   UNL d   1     -39.447  13.760  18.366  0.00  0.00     0.005 A 
ATOM     17  C   UNL d   1     -39.111  13.600  17.633  0.00  0.00     0.000 A 
ATOM     18  C   UNL d   1     -39.186  14.156  17.028  0.00  0.00     0.000 A 
ATOM     19  C   UNL d   1     -39.593  14.861  17.158  0.00  0.00     0.000 A 
ATOM     20  C   UNL d   1     -38.917  13.986  16.503  0.00  0.00     0.000 C 
ATOM     21  C   UNL d   1     -39.924  15.011  17.892  0.00  0.00     0.005 A 
ENDBRANCH  13  15
ENDBRANCH   1  12
BRANCH   1  22
ATOM     22  C   UNL d   1     -41.031  14.985  20.732  0.00  0.00     0.144 C 
ATOM     23 CL   UNL d   1     -41.328  15.803  20.717  0.00  0.00    -0.068 Cl
ATOM     24 CL   UNL d   1     -41.585  14.354  20.853  0.00  0.00    -0.068 Cl
ENDBRANCH   1  22
TORSDOF 5
ENDMDL
MODEL 3
REMARK VINA RESULT:      -6.7      1.793      2.623
REMARK  5 active torsions:
REMARK  status: ('A' for Active; 'I' for Inactive)
REMARK    1  A    between atoms: S_2  and  C_1 
REMARK    2  A    between atoms: N_3  and  C_1 
REMARK    3  A    between atoms: C_4  and  C_1 
REMARK    4  A    between atoms: C_6  and  S_2 
REMARK       I    between atoms: C_5  and  N_3 
REMARK    5  A    between atoms: C_9  and  C_5 
ROOT
ATOM      1  C   UNL d   1     -47.078  12.832  22.999  0.00  0.00     0.193 C 
ENDROOT
BRANCH   1   2
ATOM      2  S   UNL d   1     -47.855  12.796  22.805  0.00  0.00     0.228 S 
ATOM      3  O   UNL d   1     -47.671  12.670  22.007  0.00  0.00    -0.216 OA
ATOM      4  O   UNL d   1     -48.019  12.908  23.508  0.00  0.00    -0.216 OA
BRANCH   2   5
ATOM      5  C   UNL d   1     -48.539  12.770  22.670  0.00  0.00     0.090 A 
ATOM      6  C   UNL d   1     -48.857  12.970  21.906  0.00  0.00     0.012 A 
ATOM      7  C   UNL d   1     -49.699  12.931  21.763  0.00  0.00     0.012 A 
ATOM      8  C   UNL d   1     -50.217  12.692  22.385  0.00  0.00     0.058 A 
ATOM      9  C   UNL d   1     -49.912  12.495  23.135  0.00  0.00     0.012 A 
ATOM     10 CL   UNL d   1     -50.829  12.672  22.255  0.00  0.00    -0.082 Cl
ATOM     11  C   UNL d   1     -49.070  12.534  23.279  0.00  0.00     0.012 A 
ENDBRANCH   2   5
ENDBRANCH   1   2
BRANCH   1  12
ATOM     12  N   UNL d   1     -46.671  12.128  23.253  0.00  0.00    -0.195 NA
ATOM     13  C   UNL d   1     -45.853  11.965  23.064  0.00  0.00     0.280 C 
ATOM     14  O   UNL d   1     -45.412  12.553  22.585  0.00  0.00    -0.265 OA
BRANCH  13  15
ATOM     15  C   UNL d   1     -45.419  11.411  23.225  0.00  0.00     0.058 A 
ATOM     16  C   UNL d   1     -44.647  11.592  23.001  0.00  0.00     0.005 A 
ATOM     17  C   UNL d   1     -44.039  11.052  23.123  0.00  0.00     0.000 A 
ATOM     18  C   UNL d   1     -44.213  10.326  23.474  0.00  0.00     0.000 A 
ATOM     19  C   UNL d   1     -44.985  10.145  23.698  0.00  0.00     0.000 A 
ATOM     20  C   UNL d   1     -43.723   9.962  23.541  0.00  0.00     0.000 C 
ATOM     21  C   UNL d   1     -45.584  10.690  23.572  0.00  0.00     0.005 A 
ENDBRANCH  13  15
ENDBRANCH   1  12
BRANCH   1  22
ATOM     22  C   UNL d   1     -46.697  13.566  22.943  0.00  0.00     0.144 C 
ATOM     23 CL   UNL d   1     -46.556  14.030  23.665  0.00  0.00    -0.068 Cl
ATOM     24 CL   UNL d   1     -46.437  13.884  22.199  0.00  0.00    -0.068 Cl
ENDBRANCH   1  22
TORSDOF 5
ENDMDL
MODEL 4
REMARK VINA RESULT:      -6.6      1.448      2.133
REMARK  5 active torsions:
REMARK  status: ('A' for Active; 'I' for Inactive)
REMARK    1  A    between atoms: S_2  and  C_1 
REMARK    2  A    between atoms: N_3  and  C_1 
REMARK    3  A    between atoms: C_4  and  C_1 
REMARK    4  A    between atoms: C_6  and  S_2 
REMARK       I    between atoms: C_5  and  N_3 
REMARK    5  A    between atoms: C_9  and  C_5 
ROOT
ATOM      1  C   UNL d   1     -47.989  13.469  22.513  0.00  0.00     0.193 C 
ENDROOT
BRANCH   1   2
ATOM      2  S   UNL d   1     -48.635  13.080  22.785  0.00  0.00     0.228 S 
ATOM      3  O   UNL d   1     -48.626  13.515  23.490  0.00  0.00    -0.216 OA
ATOM      4  O   UNL d   1     -48.644  12.695  22.164  0.00  0.00    -0.216 OA
BRANCH   2   5
ATOM      5  C   UNL d   1     -49.197  12.722  22.992  0.00  0.00     0.090 A 
ATOM      6  C   UNL d   1     -49.989  12.979  22.810  0.00  0.00     0.012 A 
ATOM      7  C   UNL d   1     -50.663  12.525  23.074  0.00  0.00     0.012 A 
ATOM      8  C   UNL d   1     -50.542  11.817  23.517  0.00  0.00     0.058 A 
ATOM      9  C   UNL d   1     -49.770  11.560  23.698  0.00  0.00     0.012 A 
ATOM     10 CL   UNL d   1     -51.052  11.503  23.698  0.00  0.00    -0.082 Cl
ATOM     11  C   UNL d   1     -49.095  12.014  23.435  0.00  0.00     0.012 A 
ENDBRANCH   2   5
ENDBRANCH   1   2
BRANCH   1  12
ATOM     12  N   UNL d   1     -47.284  13.035  22.316  0.00  0.00    -0.195 NA
ATOM     13  C   UNL d   1     -46.505  13.256  22.591  0.00  0.00     0.280 C 
ATOM     14  O   UNL d   1     -46.430  13.966  23.100  0.00  0.00    -0.265 OA
BRANCH  13  15
ATOM     15  C   UNL d   1     -45.852  12.965  22.486  0.00  0.00     0.058 A 
ATOM     16  C   UNL d   1     -45.397  13.470  22.021  0.00  0.00     0.005 A 
ATOM     17  C   UNL d   1     -44.626  13.269  21.818  0.00  0.00     0.000 A 
ATOM     18  C   UNL d   1     -44.315  12.554  22.086  0.00  0.00     0.000 A 
ATOM     19  C   UNL d   1     -44.770  12.049  22.552  0.00  0.00     0.000 A 
ATOM     20  C   UNL d   1     -43.736  12.455  21.906  0.00  0.00     0.000 C 
ATOM     21  C   UNL d   1     -45.537  12.258  22.749  0.00  0.00     0.005 A 
ENDBRANCH  13  15
ENDBRANCH   1  12
BRANCH   1  22
ATOM     22  C   UNL d   1     -48.037  14.293  22.434  0.00  0.00     0.144 C 
ATOM     23 CL   UNL d   1     -48.083  14.642  21.638  0.00  0.00    -0.068 Cl
ATOM     24 CL   UNL d   1     -48.043  14.811  23.106  0.00  0.00    -0.068 Cl
ENDBRANCH   1  22
TORSDOF 5
ENDMDL
MODEL 5
REMARK VINA RESULT:      -6.4      8.921     10.252
REMARK  5 active torsions:
REMARK  status: ('A' for Active; 'I' for Inactive)
REMARK    1  A    between atoms: S_2  and  C_1 
REMARK    2  A    between atoms: N_3  and  C_1 
REMARK    3  A    between atoms: C_4  and  C_1 
REMARK    4  A    between atoms: C_6  and  S_2 
REMARK       I    between atoms: C_5  and  N_3 
REMARK    5  A    between atoms: C_9  and  C_5 
ROOT
ATOM      1  C   UNL d   1     -39.875  14.813  18.717  0.00  0.00     0.193 C 
ENDROOT
BRANCH   1   2
ATOM      2  S   UNL d   1     -39.490  14.453  18.112  0.00  0.00     0.228 S 
ATOM      3  O   UNL d   1     -40.006  13.805  18.143  0.00  0.00    -0.216 OA
ATOM      4  O   UNL d   1     -39.035  15.024  18.084  0.00  0.00    -0.216 OA
BRANCH   2   5
ATOM      5  C   UNL d   1     -39.134  14.168  17.585  0.00  0.00     0.090 A 
ATOM      6  C   UNL d   1     -38.882  13.354  17.597  0.00  0.00     0.012 A 
ATOM      7  C   UNL d   1     -38.446  13.025  16.939  0.00  0.00     0.012 A 
ATOM      8  C   UNL d   1     -38.265  13.511  16.274  0.00  0.00     0.058 A 
ATOM      9  C   UNL d   1     -38.509  14.309  16.256  0.00  0.00     0.012 A 
ATOM     10 CL   UNL d   1     -37.945  13.247  15.806  0.00  0.00    -0.082 Cl
ATOM     11  C   UNL d   1     -38.945  14.638  16.913  0.00  0.00     0.012 A 
ENDBRANCH   2   5
ENDBRANCH   1   2
BRANCH   1  12
ATOM     12  N   UNL d   1     -39.470  14.950  19.454  0.00  0.00    -0.195 NA
ATOM     13  C   UNL d   1     -39.787  14.717  20.213  0.00  0.00     0.280 C 
ATOM     14  O   UNL d   1     -40.567  14.316  20.233  0.00  0.00    -0.265 OA
BRANCH  13  15
ATOM     15  C   UNL d   1     -39.533  14.783  20.886  0.00  0.00     0.058 A 
ATOM     16  C   UNL d   1     -39.425  14.036  21.214  0.00  0.00     0.005 A 
ATOM     17  C   UNL d   1     -39.138  13.953  21.981  0.00  0.00     0.000 A 
ATOM     18  C   UNL d   1     -38.961  14.630  22.417  0.00  0.00     0.000 A 
ATOM     19  C   UNL d   1     -39.070  15.378  22.088  0.00  0.00     0.000 A 
ATOM     20  C   UNL d   1     -38.751  14.511  22.981  0.00  0.00     0.000 C 
ATOM     21  C   UNL d   1     -39.356  15.450  21.324  0.00  0.00     0.005 A 
ENDBRANCH  13  15
ENDBRANCH   1  12
BRANCH   1  22
ATOM     22  C   UNL d   1     -40.663  15.039  18.597  0.00  0.00     0.144 C 
ATOM     23 CL   UNL d   1     -40.854  15.882  18.500  0.00  0.00    -0.068 Cl
ATOM     24 CL   UNL d   1     -41.295  14.473  18.565  0.00  0.00    -0.068 Cl
ENDBRANCH   1  22
TORSDOF 5
ENDMDL
MODEL 6
REMARK VINA RESULT:      -6.3      1.904      4.733
REMARK  5 active torsions:
REMARK  status: ('A' for Active; 'I' for Inactive)
REMARK    1  A    between atoms: S_2  and  C_1 
REMARK    2  A    between atoms: N_3  and  C_1 
REMARK    3  A    between atoms: C_4  and  C_1 
REMARK    4  A    between atoms: C_6  and  S_2 
REMARK       I    between atoms: C_5  and  N_3 
REMARK    5  A    between atoms: C_9  and  C_5 
ROOT
ATOM      1  C   UNL d   1     -46.841  13.091  22.978  0.00  0.00     0.193 C 
ENDROOT
BRANCH   1   2
ATOM      2  S   UNL d   1     -46.269  12.531  23.028  0.00  0.00     0.228 S 
ATOM      3  O   UNL d   1     -46.450  12.251  22.270  0.00  0.00    -0.216 OA
ATOM      4  O   UNL d   1     -46.110  12.777  23.698  0.00  0.00    -0.216 OA
BRANCH   2   5
ATOM      5  C   UNL d   1     -45.765  12.055  23.104  0.00  0.00     0.090 A 
ATOM      6  C   UNL d   1     -45.864  11.366  23.594  0.00  0.00     0.012 A 
ATOM      7  C   UNL d   1     -45.232  10.795  23.673  0.00  0.00     0.012 A 
ATOM      8  C   UNL d   1     -44.505  10.918  23.262  0.00  0.00     0.058 A 
ATOM      9  C   UNL d   1     -44.402  11.592  22.781  0.00  0.00     0.012 A 
ATOM     10 CL   UNL d   1     -44.059  10.487  23.336  0.00  0.00    -0.082 Cl
ATOM     11  C   UNL d   1     -45.034  12.162  22.702  0.00  0.00     0.012 A 
ENDBRANCH   2   5
ENDBRANCH   1   2
BRANCH   1  12
ATOM     12  N   UNL d   1     -47.605  12.949  23.326  0.00  0.00    -0.195 NA
ATOM     13  C   UNL d   1     -48.339  13.036  22.896  0.00  0.00     0.280 C 
ATOM     14  O   UNL d   1     -48.302  13.283  22.055  0.00  0.00    -0.265 OA
BRANCH  13  15
ATOM     15  C   UNL d   1     -49.029  12.943  23.089  0.00  0.00     0.058 A 
ATOM     16  C   UNL d   1     -49.180  12.139  23.191  0.00  0.00     0.005 A 
ATOM     17  C   UNL d   1     -49.928  11.879  23.413  0.00  0.00     0.000 A 
ATOM     18  C   UNL d   1     -50.525  12.435  23.533  0.00  0.00     0.000 A 
ATOM     19  C   UNL d   1     -50.374  13.239  23.431  0.00  0.00     0.000 A 
ATOM     20  C   UNL d   1     -51.063  12.186  23.697  0.00  0.00     0.000 C 
ATOM     21  C   UNL d   1     -49.626  13.487  23.210  0.00  0.00     0.005 A 
ENDBRANCH  13  15
ENDBRANCH   1  12
BRANCH   1  22
ATOM     22  C   UNL d   1     -46.660  13.797  22.583  0.00  0.00     0.144 C 
ATOM     23 CL   UNL d   1     -46.480  14.511  23.047  0.00  0.00    -0.068 Cl
ATOM     24 CL   UNL d   1     -46.644  13.848  21.736  0.00  0.00    -0.068 Cl
ENDBRANCH   1  22
TORSDOF 5
ENDMDL
MODEL 7
REMARK VINA RESULT:      -6.0      9.121      9.851
REMARK  5 active torsions:
REMARK  status: ('A' for Active; 'I' for Inactive)
REMARK    1  A    between atoms: S_2  and  C_1 
REMARK    2  A    between atoms: N_3  and  C_1 
REMARK    3  A    between atoms: C_4  and  C_1 
REMARK    4  A    between atoms: C_6  and  S_2 
REMARK       I    between atoms: C_5  and  N_3 
REMARK    5  A    between atoms: C_9  and  C_5 
ROOT
ATOM      1  C   UNL d   1     -39.285  13.967  18.659  0.00  0.00     0.193 C 
ENDROOT
BRANCH   1   2
ATOM      2  S   UNL d   1     -39.783  14.396  18.199  0.00  0.00     0.228 S 
ATOM      3  O   UNL d   1     -39.248  15.028  18.176  0.00  0.00    -0.216 OA
ATOM      4  O   UNL d   1     -40.255  13.838  18.220  0.00  0.00    -0.216 OA
BRANCH   2   5
ATOM      5  C   UNL d   1     -40.238  14.742  17.800  0.00  0.00     0.090 A 
ATOM      6  C   UNL d   1     -40.237  14.675  16.951  0.00  0.00     0.012 A 
ATOM      7  C   UNL d   1     -40.805  15.109  16.481  0.00  0.00     0.012 A 
ATOM      8  C   UNL d   1     -41.371  15.605  16.864  0.00  0.00     0.058 A 
ATOM      9  C   UNL d   1     -41.377  15.675  17.695  0.00  0.00     0.012 A 
ATOM     10 CL   UNL d   1     -41.775  15.911  16.498  0.00  0.00    -0.082 Cl
ATOM     11  C   UNL d   1     -40.809  15.242  18.165  0.00  0.00     0.012 A 
ENDBRANCH   2   5
ENDBRANCH   1   2
BRANCH   1  12
ATOM     12  N   UNL d   1     -39.444  13.883  19.492  0.00  0.00    -0.195 NA
ATOM     13  C   UNL d   1     -38.858  14.029  20.098  0.00  0.00     0.280 C 
ATOM     14  O   UNL d   1     -38.054  14.277  19.849  0.00  0.00    -0.265 OA
BRANCH  13  15
ATOM     15  C   UNL d   1     -38.885  13.989  20.818  0.00  0.00     0.058 A 
ATOM     16  C   UNL d   1     -38.129  13.849  21.115  0.00  0.00     0.005 A 
ATOM     17  C   UNL d   1     -38.004  13.778  21.924  0.00  0.00     0.000 A 
ATOM     18  C   UNL d   1     -38.646  13.851  22.436  0.00  0.00     0.000 A 
ATOM     19  C   UNL d   1     -39.402  13.991  22.140  0.00  0.00     0.000 A 
ATOM     20  C   UNL d   1     -38.496  13.790  23.029  0.00  0.00     0.000 C 
ATOM     21  C   UNL d   1     -39.517  14.059  21.331  0.00  0.00     0.005 A 
ENDBRANCH  13  15
ENDBRANCH   1  12
BRANCH   1  22
ATOM     22  C   UNL d   1     -38.626  13.618  18.298  0.00  0.00     0.144 C 
ATOM     23 CL   UNL d   1     -38.630  12.763  18.140  0.00  0.00    -0.068 Cl
ATOM     24 CL   UNL d   1     -37.941  14.069  18.076  0.00  0.00    -0.068 Cl
ENDBRANCH   1  22
TORSDOF 5
ENDMDL
MODEL 8
REMARK VINA RESULT:      -5.4      8.646     10.871
REMARK  5 active torsions:
REMARK  status: ('A' for Active; 'I' for Inactive)
REMARK    1  A    between atoms: S_2  and  C_1 
REMARK    2  A    between atoms: N_3  and  C_1 
REMARK    3  A    between atoms: C_4  and  C_1 
REMARK    4  A    between atoms: C_6  and  S_2 
REMARK       I    between atoms: C_5  and  N_3 
REMARK    5  A    between atoms: C_9  and  C_5 
ROOT
ATOM      1  C   UNL d   1     -38.729  14.018  18.177  0.00  0.00     0.193 C 
ENDROOT
BRANCH   1   2
ATOM      2  S   UNL d   1     -38.540  14.396  17.495  0.00  0.00     0.228 S 
ATOM      3  O   UNL d   1     -37.940  14.822  17.873  0.00  0.00    -0.216 OA
ATOM      4  O   UNL d   1     -39.071  14.020  17.161  0.00  0.00    -0.216 OA
BRANCH   2   5
ATOM      5  C   UNL d   1     -38.403  14.706  16.886  0.00  0.00     0.090 A 
ATOM      6  C   UNL d   1     -38.367  15.554  16.808  0.00  0.00     0.012 A 
ATOM      7  C   UNL d   1     -38.196  15.913  16.051  0.00  0.00     0.012 A 
ATOM      8  C   UNL d   1     -38.062  15.422  15.377  0.00  0.00     0.058 A 
ATOM      9  C   UNL d   1     -38.096  14.592  15.447  0.00  0.00     0.012 A 
ATOM     10 CL   UNL d   1     -37.940  15.710  14.835  0.00  0.00    -0.082 Cl
ATOM     11  C   UNL d   1     -38.267  14.233  16.204  0.00  0.00     0.012 A 
ENDBRANCH   2   5
ENDBRANCH   1   2
BRANCH   1  12
ATOM     12  N   UNL d   1     -39.029  14.463  18.839  0.00  0.00    -0.195 NA
ATOM     13  C   UNL d   1     -39.809  14.342  19.169  0.00  0.00     0.280 C 
ATOM     14  O   UNL d   1     -40.324  13.730  18.808  0.00  0.00    -0.265 OA
BRANCH  13  15
ATOM     15  C   UNL d   1     -40.158  14.657  19.717  0.00  0.00     0.058 A 
ATOM     16  C   UNL d   1     -40.677  15.225  19.423  0.00  0.00     0.005 A 
ATOM     17  C   UNL d   1     -41.145  15.668  19.934  0.00  0.00     0.000 A 
ATOM     18  C   UNL d   1     -41.087  15.535  20.746  0.00  0.00     0.000 A 
ATOM     19  C   UNL d   1     -40.568  14.966  21.040  0.00  0.00     0.000 A 
ATOM     20  C   UNL d   1     -41.458  15.892  21.080  0.00  0.00     0.000 C 
ATOM     21  C   UNL d   1     -40.106  14.531  20.523  0.00  0.00     0.005 A 
ENDBRANCH  13  15
ENDBRANCH   1  12
BRANCH   1  22
ATOM     22  C   UNL d   1     -38.620  13.198  18.209  0.00  0.00     0.144 C 
ATOM     23 CL   UNL d   1     -37.950  12.873  18.659  0.00  0.00    -0.068 Cl
ATOM     24 CL   UNL d   1     -39.145  12.657  17.817  0.00  0.00    -0.068 Cl
ENDBRANCH   1  22
TORSDOF 5
ENDMDL
