MODEL 1
REMARK VINA RESULT:      55.1      0.000      0.000
REMARK  4 active torsions:
REMARK  status: ('A' for Active; 'I' for Inactive)
REMARK    1  A    between atoms: C_6  and  C_1 
REMARK    2  A    between atoms: C_3  and  C_5 
REMARK    3  A    between atoms: C_5  and  C_6 
REMARK    4  A    between atoms: C_17  and  C_13 
ROOT
ATOM      1  C   UNL d   1     -55.534-101.222 -42.572  0.00  0.00     0.202 C 
ATOM      2  O   UNL d   1     -56.271-101.578 -42.394  0.00  0.00    -0.286 OA
ENDROOT
BRANCH   1   3
ATOM      3  C   UNL d   1     -55.327-101.119 -43.382  0.00  0.00     0.078 A 
ATOM      4  C   UNL d   1     -55.187-101.814 -43.855  0.00  0.00     0.202 A 
ATOM      5  C   UNL d   1     -54.985-101.711 -44.648  0.00  0.00     0.084 A 
ATOM      6  O   UNL d   1     -55.256-102.564 -43.520  0.00  0.00    -0.286 OA
ATOM      7  C   UNL d   1     -54.918-100.966 -44.976  0.00  0.00     0.199 A 
ATOM      8  C   UNL d   1     -55.055-100.283 -44.510  0.00  0.00     0.039 A 
ATOM      9  O   UNL d   1     -54.713-100.857 -45.777  0.00  0.00    -0.286 OA
ATOM     10  C   UNL d   1     -55.262-100.366 -43.704  0.00  0.00     0.010 A 
BRANCH   8  11
ATOM     11  C   UNL d   1     -54.989 -99.528 -44.838  0.00  0.00     0.003 C 
ATOM     12  C   UNL d   1     -54.812 -98.862 -44.350  0.00  0.00     0.000 C 
ENDBRANCH   8  11
ENDBRANCH   1   3
BRANCH   1  13
ATOM     13  C   UNL d   1     -55.024-100.979 -41.971  0.00  0.00     0.081 C 
BRANCH  13  14
ATOM     14  C   UNL d   1     -55.063-101.350 -41.223  0.00  0.00     0.166 A 
ATOM     15  N   UNL d   1     -55.444-102.055 -41.059  0.00  0.00    -0.225 NA
ATOM     16  C   UNL d   1     -55.344-102.215 -40.251  0.00  0.00     0.101 A 
ATOM     17  C   UNL d   1     -55.603-102.841 -39.783  0.00  0.00     0.021 A 
ATOM     18  C   UNL d   1     -54.902-101.607 -39.926  0.00  0.00     0.101 A 
ATOM     19  C   UNL d   1     -55.428-102.873 -38.979  0.00  0.00     0.002 A 
ATOM     20  C   UNL d   1     -54.978-102.253 -38.650  0.00  0.00     0.002 A 
ATOM     21  C   UNL d   1     -54.717-101.624 -39.121  0.00  0.00     0.021 A 
ATOM     22  N   UNL d   1     -54.722-101.065 -40.514  0.00  0.00    -0.225 NA
ENDBRANCH  13  14
ENDBRANCH   1  13
TORSDOF 4
ENDMDL
