MODEL 1
REMARK VINA RESULT:      31.8      0.000      0.000
REMARK  3 active torsions:
REMARK  status: ('A' for Active; 'I' for Inactive)
REMARK    1  A    between atoms: N_6  and  C_1 
REMARK       I    between atoms: C_8  and  N_6 
REMARK       I    between atoms: C_11  and  N_7 
REMARK    2  A    between atoms: C_14  and  C_8 
REMARK    3  A    between atoms: O_20  and  C_19 
ROOT
ATOM      1  C   UNL d   1      45.797 -16.343  44.169  0.00  0.00     0.124 A 
ATOM      2  C   UNL d   1      45.093 -16.008  44.461  0.00  0.00     0.093 A 
ATOM      3  C   UNL d   1      45.928 -15.003  44.164  0.00  0.00     0.049 A 
ATOM      4  C   UNL d   1      45.179 -15.181  44.456  0.00  0.00     0.021 A 
ATOM      5  S   UNL d   1      46.317 -15.711  43.984  0.00  0.00    -0.066 SA
ATOM      6  N   UNL d   1      45.662 -13.604  44.319  0.00  0.00    -0.272 N 
ATOM      7  C   UNL d   1      46.173 -14.205  44.095  0.00  0.00     0.089 A 
ATOM      8  C   UNL d   1      44.430 -16.432  44.710  0.00  0.00     0.103 C 
ATOM      9  C   UNL d   1      45.896 -12.808  44.254  0.00  0.00     0.265 C 
ATOM     10  N   UNL d   1      43.777 -16.849  44.955  0.00  0.00    -0.191 NA
ATOM     11  C   UNL d   1      44.655 -14.573  44.686  0.00  0.00     0.020 A 
ATOM     12  C   UNL d   1      44.903 -13.788  44.615  0.00  0.00     0.083 A 
ATOM     13  O   UNL d   1      46.644 -12.627  43.963  0.00  0.00    -0.267 OA
ATOM     14  C   UNL d   1      45.385 -12.207  44.479  0.00  0.00     0.066 C 
ENDROOT
BRANCH   1  15
ATOM     15  N   UNL d   1      45.957 -17.148  44.077  0.00  0.00    -0.201 NA
ATOM     16  C   UNL d   1      46.034 -17.469  43.321  0.00  0.00     0.280 C 
ATOM     17  O   UNL d   1      45.953 -16.995  42.652  0.00  0.00    -0.265 OA
BRANCH  16  18
ATOM     18  C   UNL d   1      46.190 -18.259  43.231  0.00  0.00     0.060 A 
ATOM     19  C   UNL d   1      46.058 -18.632  42.508  0.00  0.00     0.029 A 
ATOM     20  C   UNL d   1      46.217 -19.435  42.416  0.00  0.00     0.094 A 
ATOM     21  C   UNL d   1      46.510 -19.870  43.047  0.00  0.00     0.024 A 
ATOM     22  C   UNL d   1      46.645 -19.504  43.774  0.00  0.00     0.002 A 
ATOM     23  C   UNL d   1      46.484 -18.690  43.866  0.00  0.00     0.005 A 
BRANCH  20  24
ATOM     24  O   UNL d   1      46.084 -19.824  41.679  0.00  0.00    -0.328 OA
ATOM     25  C   UNL d   1      46.647 -19.803  41.080  0.00  0.00     0.181 C 
ENDBRANCH  20  24
ENDBRANCH  16  18
ENDBRANCH   1  15
TORSDOF 3
ENDMDL
