MODEL 1
REMARK VINA RESULT:      99.3      0.000      0.000
REMARK  5 active torsions:
REMARK  status: ('A' for Active; 'I' for Inactive)
REMARK    1  A    between atoms: N_6  and  C_1 
REMARK    2  A    between atoms: C_12  and  C_2 
REMARK       I    between atoms: C_9  and  N_6 
REMARK       I    between atoms: C_11  and  N_7 
REMARK    3  A    between atoms: C_8  and  C_9 
REMARK    4  A    between atoms: O_24  and  C_11 
REMARK    5  A    between atoms: C_25  and  O_24 
ROOT
ATOM      1  C   UNL d   1      59.647  48.183  50.642  0.00  0.00     0.119 A 
ATOM      2  C   UNL d   1      60.437  48.424  50.667  0.00  0.00     0.084 A 
ATOM      3  C   UNL d   1      60.405  47.147  50.293  0.00  0.00     0.049 A 
ATOM      4  C   UNL d   1      60.902  47.770  50.447  0.00  0.00     0.016 A 
ATOM      5  S   UNL d   1      59.627  47.385  50.409  0.00  0.00    -0.066 SA
ATOM      6  N   UNL d   1      61.538  46.324  49.984  0.00  0.00    -0.251 N 
ATOM      7  C   UNL d   1      61.866  45.594  49.751  0.00  0.00     0.378 C 
ATOM      8  C   UNL d   1      60.726  46.407  50.056  0.00  0.00     0.091 A 
ATOM      9  C   UNL d   1      61.728  47.693  50.376  0.00  0.00     0.020 A 
ATOM     10  C   UNL d   1      62.035  46.963  50.143  0.00  0.00     0.085 A 
ATOM     11  O   UNL d   1      61.368  44.955  49.592  0.00  0.00    -0.237 OA
ENDROOT
BRANCH   1  12
ATOM     12  N   UNL d   1      58.990  48.651  50.818  0.00  0.00    -0.201 NA
ATOM     13  C   UNL d   1      58.234  48.386  50.634  0.00  0.00     0.286 C 
ATOM     14  O   UNL d   1      58.127  47.646  50.271  0.00  0.00    -0.265 OA
BRANCH  13  15
ATOM     15  C   UNL d   1      57.577  48.853  50.811  0.00  0.00     0.088 A 
ATOM     16  S   UNL d   1      57.201  48.927  51.554  0.00  0.00    -0.071 SA
ATOM     17  C   UNL d   1      56.566  49.458  51.465  0.00  0.00     0.087 A 
ATOM     18 CL   UNL d   1      56.034  49.696  52.071  0.00  0.00    -0.075 Cl
ATOM     19  C   UNL d   1      56.553  49.707  50.678  0.00  0.00     0.019 A 
ATOM     20  C   UNL d   1      57.179  49.330  50.284  0.00  0.00     0.013 A 
ENDBRANCH  13  15
ENDBRANCH   1  12
BRANCH   2  21
ATOM     21  C   UNL d   1      60.710  49.171  50.870  0.00  0.00     0.299 C 
ATOM     22  O   UNL d   1      60.906  49.708  50.286  0.00  0.00    -0.264 OA
ATOM     23  N   UNL d   1      60.786  49.380  51.667  0.00  0.00    -0.102 N 
ENDBRANCH   2  21
BRANCH   7  24
ATOM     24  O   UNL d   1      62.682  45.509  49.678  0.00  0.00    -0.257 OA
BRANCH  24  25
ATOM     25  C   UNL d   1      63.001  44.821  49.353  0.00  0.00     0.128 C 
ATOM     26  C   UNL d   1      62.666  44.087  49.512  0.00  0.00     0.029 C 
ENDBRANCH  24  25
ENDBRANCH   7  24
TORSDOF 5
ENDMDL
MODEL 2
REMARK VINA RESULT:     102.2      2.877      5.497
REMARK  5 active torsions:
REMARK  status: ('A' for Active; 'I' for Inactive)
REMARK    1  A    between atoms: N_6  and  C_1 
REMARK    2  A    between atoms: C_12  and  C_2 
REMARK       I    between atoms: C_9  and  N_6 
REMARK       I    between atoms: C_11  and  N_7 
REMARK    3  A    between atoms: C_8  and  C_9 
REMARK    4  A    between atoms: O_24  and  C_11 
REMARK    5  A    between atoms: C_25  and  O_24 
ROOT
ATOM      1  C   UNL d   1      61.685  45.394  50.667  0.00  0.00     0.119 A 
ATOM      2  C   UNL d   1      61.656  45.835  49.969  0.00  0.00     0.084 A 
ATOM      3  C   UNL d   1      61.252  46.617  50.967  0.00  0.00     0.049 A 
ATOM      4  C   UNL d   1      61.385  46.596  50.166  0.00  0.00     0.016 A 
ATOM      5  S   UNL d   1      61.432  45.883  51.292  0.00  0.00    -0.066 SA
ATOM      6  N   UNL d   1      60.837  47.984  50.860  0.00  0.00    -0.251 N 
ATOM      7  C   UNL d   1      60.559  48.691  51.205  0.00  0.00     0.378 C 
ATOM      8  C   UNL d   1      60.972  47.324  51.325  0.00  0.00     0.091 A 
ATOM      9  C   UNL d   1      61.250  47.264  49.688  0.00  0.00     0.020 A 
ATOM     10  C   UNL d   1      60.975  47.955  50.047  0.00  0.00     0.085 A 
ATOM     11  O   UNL d   1      60.422  48.721  52.018  0.00  0.00    -0.237 OA
ENDROOT
BRANCH   1  12
ATOM     12  N   UNL d   1      61.922  44.607  50.736  0.00  0.00    -0.201 NA
ATOM     13  C   UNL d   1      61.626  44.139  51.345  0.00  0.00     0.286 C 
ATOM     14  O   UNL d   1      61.088  44.457  51.892  0.00  0.00    -0.265 OA
BRANCH  13  15
ATOM     15  C   UNL d   1      61.864  43.352  51.414  0.00  0.00     0.088 A 
ATOM     16  S   UNL d   1      62.531  42.998  51.054  0.00  0.00    -0.071 SA
ATOM     17  C   UNL d   1      62.546  42.198  51.282  0.00  0.00     0.087 A 
ATOM     18 CL   UNL d   1      63.122  41.630  51.050  0.00  0.00    -0.075 Cl
ATOM     19  C   UNL d   1      61.898  42.062  51.775  0.00  0.00     0.019 A 
ATOM     20  C   UNL d   1      61.485  42.778  51.850  0.00  0.00     0.013 A 
ENDBRANCH  13  15
ENDBRANCH   1  12
BRANCH   2  21
ATOM     21  C   UNL d   1      61.859  45.568  49.219  0.00  0.00     0.299 C 
ATOM     22  O   UNL d   1      62.541  45.839  48.860  0.00  0.00    -0.264 OA
ATOM     23  N   UNL d   1      61.372  45.026  48.828  0.00  0.00    -0.102 N 
ENDBRANCH   2  21
BRANCH   7  24
ATOM     24  O   UNL d   1      60.423  49.356  50.740  0.00  0.00    -0.257 OA
BRANCH  24  25
ATOM     25  C   UNL d   1      59.677  49.708  50.724  0.00  0.00     0.128 C 
ATOM     26  C   UNL d   1      59.211  49.676  50.048  0.00  0.00     0.029 C 
ENDBRANCH  24  25
ENDBRANCH   7  24
TORSDOF 5
ENDMDL
