MODEL 1
REMARK VINA RESULT:      56.9      0.000      0.000
REMARK  3 active torsions:
REMARK  status: ('A' for Active; 'I' for Inactive)
REMARK    1  A    between atoms: C_9  and  N_1 
REMARK    2  A    between atoms: C_5  and  C_9 
REMARK       I    between atoms: N_8  and  C_5 
REMARK    3  A    between atoms: O_14  and  C_12 
ROOT
ATOM      1  N   UNL d   1     -50.259  26.340  33.346  0.00  0.00    -0.268 N 
ATOM      2  C   UNL d   1     -50.078  25.540  33.343  0.00  0.00     0.265 A 
ATOM      3  C   UNL d   1     -50.690  24.982  33.377  0.00  0.00     0.059 A 
ATOM      4  C   UNL d   1     -51.474  25.231  33.413  0.00  0.00     0.028 A 
ATOM      5  C   UNL d   1     -51.655  26.032  33.415  0.00  0.00     0.021 A 
ATOM      6  C   UNL d   1     -51.052  26.587  33.382  0.00  0.00     0.083 A 
ATOM      7  O   UNL d   1     -49.295  25.290  33.307  0.00  0.00    -0.267 OA
ATOM      8  C   UNL d   1     -52.078  24.672  33.446  0.00  0.00     0.094 A 
ATOM      9  C   UNL d   1     -50.502  24.180  33.374  0.00  0.00     0.005 A 
ATOM     10  C   UNL d   1     -51.107  23.616  33.407  0.00  0.00     0.002 A 
ATOM     11  C   UNL d   1     -51.891  23.860  33.443  0.00  0.00     0.024 A 
ENDROOT
BRANCH   1  12
ATOM     12  C   UNL d   1     -49.657  26.896  33.313  0.00  0.00     0.144 C 
BRANCH  12  13
ATOM     13  C   UNL d   1     -49.793  27.678  33.559  0.00  0.00     0.283 C 
ATOM     14  N   UNL d   1     -49.255  28.041  34.064  0.00  0.00    -0.271 N 
ATOM     15  C   UNL d   1     -49.469  28.845  34.269  0.00  0.00     0.083 A 
ATOM     16  C   UNL d   1     -48.679  27.609  34.253  0.00  0.00     0.083 A 
ATOM     17  C   UNL d   1     -49.172  29.356  34.680  0.00  0.00     0.019 A 
ATOM     18  C   UNL d   1     -48.462  29.307  35.120  0.00  0.00     0.002 A 
ATOM     19  C   UNL d   1     -47.929  28.604  35.166  0.00  0.00     0.002 A 
ATOM     20  C   UNL d   1     -48.026  27.813  34.765  0.00  0.00     0.019 A 
ATOM     21  O   UNL d   1     -50.450  28.084  33.306  0.00  0.00    -0.265 OA
ENDBRANCH  12  13
ENDBRANCH   1  12
BRANCH   8  22
ATOM     22  O   UNL d   1     -52.865  24.908  33.482  0.00  0.00    -0.328 OA
ATOM     23  C   UNL d   1     -53.461  24.377  33.310  0.00  0.00     0.181 C 
ENDBRANCH   8  22
TORSDOF 3
ENDMDL
MODEL 2
REMARK VINA RESULT:      57.5      1.404      4.972
REMARK  3 active torsions:
REMARK  status: ('A' for Active; 'I' for Inactive)
REMARK    1  A    between atoms: C_9  and  N_1 
REMARK    2  A    between atoms: C_5  and  C_9 
REMARK       I    between atoms: N_8  and  C_5 
REMARK    3  A    between atoms: O_14  and  C_12 
ROOT
ATOM      1  N   UNL d   1     -51.698  26.187  33.438  0.00  0.00    -0.268 N 
ATOM      2  C   UNL d   1     -51.683  27.007  33.421  0.00  0.00     0.265 A 
ATOM      3  C   UNL d   1     -50.957  27.404  33.464  0.00  0.00     0.059 A 
ATOM      4  C   UNL d   1     -50.256  26.976  33.523  0.00  0.00     0.028 A 
ATOM      5  C   UNL d   1     -50.272  26.155  33.540  0.00  0.00     0.021 A 
ATOM      6  C   UNL d   1     -50.989  25.759  33.498  0.00  0.00     0.083 A 
ATOM      7  O   UNL d   1     -52.383  27.436  33.362  0.00  0.00    -0.267 OA
ATOM      8  C   UNL d   1     -49.537  27.376  33.566  0.00  0.00     0.094 A 
ATOM      9  C   UNL d   1     -50.948  28.228  33.447  0.00  0.00     0.005 A 
ATOM     10  C   UNL d   1     -50.227  28.632  33.490  0.00  0.00     0.002 A 
ATOM     11  C   UNL d   1     -49.525  28.208  33.549  0.00  0.00     0.024 A 
ENDROOT
BRANCH   1  12
ATOM     12  C   UNL d   1     -52.415  25.791  33.396  0.00  0.00     0.144 C 
BRANCH  12  13
ATOM     13  C   UNL d   1     -52.443  24.963  33.476  0.00  0.00     0.283 C 
ATOM     14  N   UNL d   1     -53.170  24.581  33.455  0.00  0.00    -0.271 N 
ATOM     15  C   UNL d   1     -53.111  23.730  33.545  0.00  0.00     0.083 A 
ATOM     16  C   UNL d   1     -53.750  25.038  33.361  0.00  0.00     0.083 A 
ATOM     17  C   UNL d   1     -53.588  23.191  33.560  0.00  0.00     0.019 A 
ATOM     18  C   UNL d   1     -54.419  23.244  33.486  0.00  0.00     0.002 A 
ATOM     19  C   UNL d   1     -54.882  23.988  33.373  0.00  0.00     0.002 A 
ATOM     20  C   UNL d   1     -54.576  24.823  33.315  0.00  0.00     0.019 A 
ATOM     21  O   UNL d   1     -51.761  24.533  33.576  0.00  0.00    -0.265 OA
ENDBRANCH  12  13
ENDBRANCH   1  12
BRANCH   8  22
ATOM     22  O   UNL d   1     -48.830  26.960  33.625  0.00  0.00    -0.328 OA
ATOM     23  C   UNL d   1     -48.349  27.059  34.277  0.00  0.00     0.181 C 
ENDBRANCH   8  22
TORSDOF 3
ENDMDL
