MODEL 1
REMARK VINA RESULT:      -3.2      0.000      0.000
REMARK  6 active torsions:
REMARK  status: ('A' for Active; 'I' for Inactive)
REMARK    1  A    between atoms: C_2  and  C_1 
REMARK       I    between atoms: N_5  and  C_2 
REMARK    2  A    between atoms: C_13  and  N_5 
REMARK    3  A    between atoms: C_14  and  C_6 
REMARK       I    between atoms: C_8  and  N_9 
REMARK    4  A    between atoms: N_9  and  C_15 
REMARK    5  A    between atoms: S_11  and  C_14 
REMARK    6  A    between atoms: C_16  and  S_11 
ROOT
ATOM      1  C   UNL d   1      59.410   0.127  30.488  0.00  0.00     0.158 A 
ATOM      2  O   UNL d   1      58.891   0.118  31.128  0.00  0.00    -0.302 OA
ATOM      3  C   UNL d   1      58.952   0.165  29.799  0.00  0.00     0.032 A 
ATOM      4  C   UNL d   1      58.126   0.149  30.844  0.00  0.00     0.107 A 
ATOM      5  C   UNL d   1      58.157   0.178  30.019  0.00  0.00     0.027 A 
ENDROOT
BRANCH   1   6
ATOM      6  C   UNL d   1      60.235   0.103  30.518  0.00  0.00     0.302 C 
ATOM      7  N   UNL d   1      60.649  -0.491  30.128  0.00  0.00    -0.206 NA
ATOM      8  O   UNL d   1      60.639   0.679  30.942  0.00  0.00    -0.263 OA
BRANCH   7   9
ATOM      9  C   UNL d   1      60.228  -1.068  29.702  0.00  0.00     0.085 A 
ATOM     10  C   UNL d   1      59.757  -0.851  29.059  0.00  0.00     0.021 A 
ATOM     11  C   UNL d   1      59.345  -1.434  28.645  0.00  0.00     0.021 A 
ATOM     12  C   UNL d   1      59.403  -2.224  28.873  0.00  0.00     0.085 A 
ATOM     13  C   UNL d   1      59.877  -2.434  29.518  0.00  0.00     0.021 A 
ATOM     14  C   UNL d   1      60.292  -1.859  29.936  0.00  0.00     0.021 A 
BRANCH  12  15
ATOM     15  N   UNL d   1      58.987  -2.808  28.455  0.00  0.00    -0.208 NA
ATOM     16  C   UNL d   1      58.600  -3.407  28.871  0.00  0.00     0.279 C 
ATOM     17  O   UNL d   1      58.623  -3.430  29.691  0.00  0.00    -0.265 OA
ATOM     18  C   UNL d   1      58.189  -3.984  28.455  0.00  0.00     0.068 C 
ENDBRANCH  12  15
ENDBRANCH   7   9
ENDBRANCH   1   6
BRANCH   4  19
ATOM     19  C   UNL d   1      57.434   0.151  31.295  0.00  0.00     0.060 C 
BRANCH  19  20
ATOM     20  S   UNL d   1      57.161  -0.548  31.631  0.00  0.00    -0.084 SA
BRANCH  20  21
ATOM     21  C   UNL d   1      56.571  -0.536  32.202  0.00  0.00     0.029 A 
ATOM     22  C   UNL d   1      56.294   0.191  32.477  0.00  0.00     0.006 A 
ATOM     23  C   UNL d   1      55.704   0.204  33.047  0.00  0.00     0.001 A 
ATOM     24  C   UNL d   1      55.391  -0.498  33.342  0.00  0.00     0.000 A 
ATOM     25  C   UNL d   1      55.671  -1.226  33.064  0.00  0.00     0.001 A 
ATOM     26  C   UNL d   1      56.261  -1.239  32.494  0.00  0.00     0.006 A 
ENDBRANCH  20  21
ENDBRANCH  19  20
ENDBRANCH   4  19
TORSDOF 6
ENDMDL
MODEL 2
REMARK VINA RESULT:      -3.2      1.308      1.822
REMARK  6 active torsions:
REMARK  status: ('A' for Active; 'I' for Inactive)
REMARK    1  A    between atoms: C_2  and  C_1 
REMARK       I    between atoms: N_5  and  C_2 
REMARK    2  A    between atoms: C_13  and  N_5 
REMARK    3  A    between atoms: C_14  and  C_6 
REMARK       I    between atoms: C_8  and  N_9 
REMARK    4  A    between atoms: N_9  and  C_15 
REMARK    5  A    between atoms: S_11  and  C_14 
REMARK    6  A    between atoms: C_16  and  S_11 
ROOT
ATOM      1  C   UNL d   1      57.931  -0.372  29.491  0.00  0.00     0.158 A 
ATOM      2  O   UNL d   1      57.805  -0.091  30.256  0.00  0.00    -0.302 OA
ATOM      3  C   UNL d   1      57.800  -1.190  29.504  0.00  0.00     0.032 A 
ATOM      4  C   UNL d   1      57.601  -0.720  30.735  0.00  0.00     0.107 A 
ATOM      5  C   UNL d   1      57.596  -1.405  30.274  0.00  0.00     0.027 A 
ENDROOT
BRANCH   1   6
ATOM      6  C   UNL d   1      58.147   0.072  28.829  0.00  0.00     0.302 C 
ATOM      7  N   UNL d   1      58.867  -0.061  28.455  0.00  0.00    -0.206 NA
ATOM      8  O   UNL d   1      57.634   0.648  28.547  0.00  0.00    -0.263 OA
BRANCH   7   9
ATOM      9  C   UNL d   1      59.377  -0.648  28.752  0.00  0.00     0.085 A 
ATOM     10  C   UNL d   1      59.937  -0.462  29.330  0.00  0.00     0.021 A 
ATOM     11  C   UNL d   1      60.436  -1.053  29.615  0.00  0.00     0.021 A 
ATOM     12  C   UNL d   1      60.375  -1.822  29.325  0.00  0.00     0.085 A 
ATOM     13  C   UNL d   1      59.812  -2.002  28.745  0.00  0.00     0.021 A 
ATOM     14  C   UNL d   1      59.310  -1.417  28.456  0.00  0.00     0.021 A 
BRANCH  12  15
ATOM     15  N   UNL d   1      60.879  -2.415  29.613  0.00  0.00    -0.208 NA
ATOM     16  C   UNL d   1      60.634  -3.204  29.589  0.00  0.00     0.279 C 
ATOM     17  O   UNL d   1      59.899  -3.405  29.283  0.00  0.00    -0.265 OA
ATOM     18  C   UNL d   1      61.133  -3.789  29.875  0.00  0.00     0.068 C 
ENDBRANCH  12  15
ENDBRANCH   7   9
ENDBRANCH   1   6
BRANCH   4  19
ATOM     19  C   UNL d   1      57.428  -0.688  31.542  0.00  0.00     0.060 C 
BRANCH  19  20
ATOM     20  S   UNL d   1      56.710  -0.374  31.795  0.00  0.00    -0.084 SA
BRANCH  20  21
ATOM     21  C   UNL d   1      56.574  -0.233  32.591  0.00  0.00     0.029 A 
ATOM     22  C   UNL d   1      56.011  -0.687  32.989  0.00  0.00     0.006 A 
ATOM     23  C   UNL d   1      55.874  -0.546  33.786  0.00  0.00     0.001 A 
ATOM     24  C   UNL d   1      56.292   0.040  34.185  0.00  0.00     0.000 A 
ATOM     25  C   UNL d   1      56.857   0.494  33.784  0.00  0.00     0.001 A 
ATOM     26  C   UNL d   1      56.993   0.353  32.987  0.00  0.00     0.006 A 
ENDBRANCH  20  21
ENDBRANCH  19  20
ENDBRANCH   4  19
TORSDOF 6
ENDMDL
