MODEL 1
REMARK VINA RESULT:      10.0      0.000      0.000
REMARK  4 active torsions:
REMARK  status: ('A' for Active; 'I' for Inactive)
REMARK    1  A    between atoms: N_2  and  S_1 
REMARK    2  A    between atoms: C_7  and  S_1 
REMARK    3  A    between atoms: S_9  and  C_3 
REMARK    4  A    between atoms: C_13  and  S_9 
ROOT
ATOM      1  S   UNL d   1      45.857 -13.765  44.424  0.00  0.00     0.273 S 
ATOM      2  O   UNL d   1      46.254 -14.247  44.955  0.00  0.00    -0.200 OA
ATOM      3  O   UNL d   1      46.647 -13.517  44.390  0.00  0.00    -0.200 OA
ENDROOT
BRANCH   1   4
ATOM      4  N   UNL d   1      45.163 -14.176  44.627  0.00  0.00    -0.208 N 
ATOM      5  C   UNL d   1      45.104 -14.996  44.762  0.00  0.00     0.189 A 
ATOM      6  N   UNL d   1      44.315 -15.171  44.951  0.00  0.00    -0.219 NA
ATOM      7  C   UNL d   1      43.889 -14.458  44.932  0.00  0.00     0.121 A 
ATOM      8  C   UNL d   1      44.405 -13.843  44.734  0.00  0.00     0.114 A 
BRANCH   5   9
ATOM      9  S   UNL d   1      45.730 -15.544  44.716  0.00  0.00    -0.049 SA
BRANCH   9  10
ATOM     10  C   UNL d   1      45.585 -16.312  44.443  0.00  0.00     0.038 C 
ATOM     11  C   UNL d   1      46.004 -16.946  44.765  0.00  0.00     0.008 C 
ENDBRANCH   9  10
ENDBRANCH   5   9
ENDBRANCH   1   4
BRANCH   1  12
ATOM     12  C   UNL d   1      45.472 -13.270  43.883  0.00  0.00     0.104 A 
ATOM     13  C   UNL d   1      45.128 -12.573  44.149  0.00  0.00     0.013 A 
ATOM     14  C   UNL d   1      44.745 -12.080  43.611  0.00  0.00     0.001 A 
ATOM     15  C   UNL d   1      44.709 -12.288  42.814  0.00  0.00     0.000 A 
ATOM     16  C   UNL d   1      45.054 -12.986  42.553  0.00  0.00     0.001 A 
ATOM     17  C   UNL d   1      45.439 -13.480  43.097  0.00  0.00     0.013 A 
ENDBRANCH   1  12
TORSDOF 4
ENDMDL
MODEL 2
REMARK VINA RESULT:      11.7      1.452      3.171
REMARK  4 active torsions:
REMARK  status: ('A' for Active; 'I' for Inactive)
REMARK    1  A    between atoms: N_2  and  S_1 
REMARK    2  A    between atoms: C_7  and  S_1 
REMARK    3  A    between atoms: S_9  and  C_3 
REMARK    4  A    between atoms: C_13  and  S_9 
ROOT
ATOM      1  S   UNL d   1      44.559 -13.734  44.282  0.00  0.00     0.273 S 
ATOM      2  O   UNL d   1      44.039 -13.128  44.096  0.00  0.00    -0.200 OA
ATOM      3  O   UNL d   1      43.828 -14.107  44.165  0.00  0.00    -0.200 OA
ENDROOT
BRANCH   1   4
ATOM      4  N   UNL d   1      45.152 -13.155  44.344  0.00  0.00    -0.208 N 
ATOM      5  C   UNL d   1      45.277 -12.526  43.812  0.00  0.00     0.189 A 
ATOM      6  N   UNL d   1      45.924 -12.082  44.083  0.00  0.00    -0.219 NA
ATOM      7  C   UNL d   1      46.198 -12.438  44.782  0.00  0.00     0.121 A 
ATOM      8  C   UNL d   1      45.727 -13.098  44.947  0.00  0.00     0.114 A 
BRANCH   5   9
ATOM      9  S   UNL d   1      44.829 -12.370  43.127  0.00  0.00    -0.049 SA
BRANCH   9  10
ATOM     10  C   UNL d   1      45.207 -12.114  42.437  0.00  0.00     0.038 C 
ATOM     11  C   UNL d   1      44.796 -12.113  41.721  0.00  0.00     0.008 C 
ENDBRANCH   9  10
ENDBRANCH   5   9
ENDBRANCH   1   4
BRANCH   1  12
ATOM     12  C   UNL d   1      45.071 -14.358  44.468  0.00  0.00     0.104 A 
ATOM     13  C   UNL d   1      45.882 -14.241  44.424  0.00  0.00     0.013 A 
ATOM     14  C   UNL d   1      46.391 -14.862  44.609  0.00  0.00     0.001 A 
ATOM     15  C   UNL d   1      46.084 -15.594  44.836  0.00  0.00     0.000 A 
ATOM     16  C   UNL d   1      45.272 -15.706  44.878  0.00  0.00     0.001 A 
ATOM     17  C   UNL d   1      44.762 -15.078  44.691  0.00  0.00     0.013 A 
ENDBRANCH   1  12
TORSDOF 4
ENDMDL
MODEL 3
REMARK VINA RESULT:      12.6      5.097      6.046
REMARK  4 active torsions:
REMARK  status: ('A' for Active; 'I' for Inactive)
REMARK    1  A    between atoms: N_2  and  S_1 
REMARK    2  A    between atoms: C_7  and  S_1 
REMARK    3  A    between atoms: S_9  and  C_3 
REMARK    4  A    between atoms: C_13  and  S_9 
ROOT
ATOM      1  S   UNL d   1      46.187 -18.531  43.035  0.00  0.00     0.273 S 
ATOM      2  O   UNL d   1      46.243 -18.002  42.411  0.00  0.00    -0.200 OA
ATOM      3  O   UNL d   1      46.038 -17.787  43.369  0.00  0.00    -0.200 OA
ENDROOT
BRANCH   1   4
ATOM      4  N   UNL d   1      46.361 -19.134  42.490  0.00  0.00    -0.208 N 
ATOM      5  C   UNL d   1      46.429 -19.040  41.664  0.00  0.00     0.189 A 
ATOM      6  N   UNL d   1      46.606 -19.780  41.334  0.00  0.00    -0.219 NA
ATOM      7  C   UNL d   1      46.647 -20.330  41.955  0.00  0.00     0.121 A 
ATOM      8  C   UNL d   1      46.497 -19.938  42.668  0.00  0.00     0.114 A 
BRANCH   5   9
ATOM      9  S   UNL d   1      46.336 -18.326  41.245  0.00  0.00    -0.049 SA
BRANCH   9  10
ATOM     10  C   UNL d   1      46.472 -18.307  40.429  0.00  0.00     0.038 C 
ATOM     11  C   UNL d   1      46.068 -17.761  39.960  0.00  0.00     0.008 C 
ENDBRANCH   9  10
ENDBRANCH   5   9
ENDBRANCH   1   4
BRANCH   1  12
ATOM     12  C   UNL d   1      46.127 -19.051  43.676  0.00  0.00     0.104 A 
ATOM     13  C   UNL d   1      46.644 -18.971  44.310  0.00  0.00     0.013 A 
ATOM     14  C   UNL d   1      46.583 -19.489  44.948  0.00  0.00     0.001 A 
ATOM     15  C   UNL d   1      46.008 -20.081  44.947  0.00  0.00     0.000 A 
ATOM     16  C   UNL d   1      45.494 -20.156  44.311  0.00  0.00     0.001 A 
ATOM     17  C   UNL d   1      45.557 -19.633  43.670  0.00  0.00     0.013 A 
ENDBRANCH   1  12
TORSDOF 4
ENDMDL
