MODEL 1
REMARK VINA RESULT:      20.1      0.000      0.000
REMARK  2 active torsions:
REMARK  status: ('A' for Active; 'I' for Inactive)
REMARK    1  A    between atoms: N_7  and  C_3 
REMARK       I    between atoms: C_8  and  N_7 
REMARK    2  A    between atoms: C_9  and  C_8 
ROOT
ATOM      1  N   UNL d   1      45.910 -16.983  43.544  0.00  0.00    -0.190 NA
ATOM      2  C   UNL d   1      45.889 -16.671  44.306  0.00  0.00     0.281 C 
ATOM      3  O   UNL d   1      46.052 -17.153  44.955  0.00  0.00    -0.265 OA
ENDROOT
BRANCH   1   4
ATOM      4  C   UNL d   1      46.095 -17.781  43.429  0.00  0.00     0.159 A 
ATOM      5  N   UNL d   1      46.169 -18.084  42.668  0.00  0.00    -0.241 N 
ATOM      6  C   UNL d   1      46.352 -18.874  42.556  0.00  0.00     0.343 A 
ATOM      7  C   UNL d   1      46.059 -17.588  42.017  0.00  0.00     0.105 C 
ATOM      8  N   UNL d   1      46.462 -19.368  43.207  0.00  0.00    -0.224 N 
ATOM      9  O   UNL d   1      46.427 -19.177  41.789  0.00  0.00    -0.245 OA
ATOM     10  C   UNL d   1      46.390 -19.079  43.978  0.00  0.00     0.271 A 
ATOM     11  C   UNL d   1      46.647 -20.167  43.092  0.00  0.00     0.107 C 
ATOM     12  C   UNL d   1      46.204 -18.276  44.080  0.00  0.00     0.099 A 
ATOM     13  O   UNL d   1      46.499 -19.569  44.623  0.00  0.00    -0.266 OA
ENDBRANCH   1   4
BRANCH   2  14
ATOM     14  C   UNL d   1      45.705 -15.875  44.418  0.00  0.00     0.069 A 
ATOM     15  C   UNL d   1      44.990 -15.679  44.723  0.00  0.00     0.062 A 
ATOM     16  C   UNL d   1      44.792 -14.893  44.841  0.00  0.00     0.012 A 
ATOM     17 CL   UNL d   1      44.442 -16.274  44.922  0.00  0.00    -0.082 Cl
ATOM     18  C   UNL d   1      45.331 -14.301  44.645  0.00  0.00     0.008 A 
ATOM     19  C   UNL d   1      46.054 -14.508  44.337  0.00  0.00     0.035 A 
ATOM     20  C   UNL d   1      46.257 -15.296  44.217  0.00  0.00     0.012 A 
ATOM     21 BR   UNL d   1      46.599 -13.900  44.139  0.00  0.00    -0.049 Br
ENDBRANCH   2  14
TORSDOF 2
ENDMDL
MODEL 2
REMARK VINA RESULT:      21.1      2.059      4.256
REMARK  2 active torsions:
REMARK  status: ('A' for Active; 'I' for Inactive)
REMARK    1  A    between atoms: N_7  and  C_3 
REMARK       I    between atoms: C_8  and  N_7 
REMARK    2  A    between atoms: C_9  and  C_8 
ROOT
ATOM      1  N   UNL d   1      45.707 -16.680  44.349  0.00  0.00    -0.190 NA
ATOM      2  C   UNL d   1      46.051 -17.006  43.675  0.00  0.00     0.281 C 
ATOM      3  O   UNL d   1      46.265 -16.519  43.044  0.00  0.00    -0.265 OA
ENDROOT
BRANCH   1   4
ATOM      4  C   UNL d   1      45.575 -15.864  44.393  0.00  0.00     0.159 A 
ATOM      5  N   UNL d   1      44.850 -15.575  44.651  0.00  0.00    -0.241 N 
ATOM      6  C   UNL d   1      44.721 -14.768  44.695  0.00  0.00     0.343 A 
ATOM      7  C   UNL d   1      44.251 -16.102  44.867  0.00  0.00     0.105 C 
ATOM      8  N   UNL d   1      45.319 -14.243  44.480  0.00  0.00    -0.224 N 
ATOM      9  O   UNL d   1      43.991 -14.479  44.955  0.00  0.00    -0.245 OA
ATOM     10  C   UNL d   1      46.054 -14.518  44.218  0.00  0.00     0.271 A 
ATOM     11  C   UNL d   1      45.188 -13.427  44.524  0.00  0.00     0.107 C 
ATOM     12  C   UNL d   1      46.174 -15.339  44.178  0.00  0.00     0.099 A 
ATOM     13  O   UNL d   1      46.647 -13.997  44.005  0.00  0.00    -0.266 OA
ENDBRANCH   1   4
BRANCH   2  14
ATOM     14  C   UNL d   1      46.181 -17.819  43.632  0.00  0.00     0.069 A 
ATOM     15  C   UNL d   1      46.279 -18.161  42.914  0.00  0.00     0.062 A 
ATOM     16  C   UNL d   1      46.409 -18.968  42.855  0.00  0.00     0.012 A 
ATOM     17 CL   UNL d   1      46.249 -17.699  42.222  0.00  0.00    -0.082 Cl
ATOM     18  C   UNL d   1      46.439 -19.429  43.538  0.00  0.00     0.008 A 
ATOM     19  C   UNL d   1      46.339 -19.074  44.262  0.00  0.00     0.035 A 
ATOM     20  C   UNL d   1      46.208 -18.265  44.326  0.00  0.00     0.012 A 
ATOM     21 BR   UNL d   1      46.371 -19.549  44.954  0.00  0.00    -0.049 Br
ENDBRANCH   2  14
TORSDOF 2
ENDMDL
