MODEL 1
REMARK VINA RESULT:      94.7      0.000      0.000
REMARK  8 active torsions:
REMARK  status: ('A' for Active; 'I' for Inactive)
REMARK    1  A    between atoms: C_14  and  N_1 
REMARK    2  A    between atoms: S_10  and  C_2 
REMARK    3  A    between atoms: C_7  and  C_9 
REMARK       I    between atoms: N_8  and  C_7 
REMARK    4  A    between atoms: C_26  and  S_10 
REMARK    5  A    between atoms: C_13  and  C_18 
REMARK    6  A    between atoms: C_16  and  C_26 
REMARK    7  A    between atoms: O_28  and  C_16 
REMARK    8  A    between atoms: C_31  and  O_28 
ROOT
ATOM      1  N   UNL d   1     -50.264  26.771  34.517  0.00  0.00    -0.254 N 
ATOM      2  C   UNL d   1     -50.395  26.936  35.304  0.00  0.00     0.182 A 
ATOM      3  C   UNL d   1     -49.654  27.158  34.110  0.00  0.00     0.268 A 
ATOM      4  N   UNL d   1     -49.927  27.481  35.696  0.00  0.00    -0.222 NA
ATOM      5  C   UNL d   1     -49.183  27.703  34.495  0.00  0.00     0.074 A 
ATOM      6  C   UNL d   1     -49.314  27.874  35.299  0.00  0.00     0.088 A 
ATOM      7  C   UNL d   1     -48.227  28.815  35.289  0.00  0.00     0.058 A 
ATOM      8  C   UNL d   1     -48.839  28.427  35.697  0.00  0.00     0.024 A 
ATOM      9  C   UNL d   1     -48.568  28.097  34.096  0.00  0.00     0.006 A 
ATOM     10  O   UNL d   1     -49.523  26.987  33.307  0.00  0.00    -0.267 OA
ATOM     11  C   UNL d   1     -48.102  28.641  34.490  0.00  0.00     0.005 A 
ENDROOT
BRANCH   7  12
ATOM     12  C   UNL d   1     -47.760  29.362  35.688  0.00  0.00     0.265 C 
ATOM     13  N   UNL d   1     -47.678  30.119  35.421  0.00  0.00    -0.272 N 
ATOM     14  C   UNL d   1     -48.083  30.342  34.720  0.00  0.00     0.083 A 
ATOM     15  C   UNL d   1     -47.218  30.661  35.813  0.00  0.00     0.083 A 
ATOM     16  C   UNL d   1     -47.997  31.117  34.451  0.00  0.00     0.024 A 
ATOM     17  C   UNL d   1     -47.531  31.667  34.847  0.00  0.00     0.062 A 
ATOM     18  C   UNL d   1     -47.130  31.433  35.548  0.00  0.00     0.024 A 
ATOM     19  O   UNL d   1     -47.362  29.108  36.394  0.00  0.00    -0.267 OA
BRANCH  17  20
ATOM     20  C   UNL d   1     -47.453  32.438  34.568  0.00  0.00     0.297 C 
ATOM     21  O   UNL d   1     -47.280  33.054  35.096  0.00  0.00    -0.264 OA
ATOM     22  N   UNL d   1     -47.547  32.605  33.759  0.00  0.00    -0.102 N 
ENDBRANCH  17  20
ENDBRANCH   7  12
BRANCH   2  23
ATOM     23  S   UNL d   1     -51.010  26.546  35.715  0.00  0.00    -0.044 SA
BRANCH  23  24
ATOM     24  C   UNL d   1     -51.389  26.927  36.331  0.00  0.00     0.107 C 
BRANCH  24  25
ATOM     25  C   UNL d   1     -51.426  26.550  37.073  0.00  0.00     0.307 C 
ATOM     26  O   UNL d   1     -50.742  26.420  37.512  0.00  0.00    -0.258 OA
BRANCH  25  27
ATOM     27  O   UNL d   1     -52.165  26.309  37.361  0.00  0.00    -0.271 OA
BRANCH  27  28
ATOM     28  C   UNL d   1     -52.197  25.653  37.869  0.00  0.00     0.126 C 
ATOM     29  C   UNL d   1     -52.858  25.553  38.315  0.00  0.00     0.029 C 
ENDBRANCH  27  28
ENDBRANCH  25  27
ENDBRANCH  24  25
ENDBRANCH  23  24
ENDBRANCH   2  23
BRANCH   1  30
ATOM     30  C   UNL d   1     -50.732  26.226  34.125  0.00  0.00     0.069 A 
ATOM     31  C   UNL d   1     -50.478  25.458  34.030  0.00  0.00     0.018 A 
ATOM     32  C   UNL d   1     -50.946  24.909  33.636  0.00  0.00     0.002 A 
ATOM     33  C   UNL d   1     -51.690  25.143  33.331  0.00  0.00     0.000 A 
ATOM     34  C   UNL d   1     -51.940  25.918  33.430  0.00  0.00     0.002 A 
ATOM     35  C   UNL d   1     -51.473  26.475  33.825  0.00  0.00     0.018 A 
ENDBRANCH   1  30
TORSDOF 8
ENDMDL
