MODEL 1
REMARK VINA RESULT:     -12.9      0.000      0.000
REMARK  1 active torsions:
REMARK  status: ('A' for Active; 'I' for Inactive)
REMARK    1  A    between atoms: C_3  and  C_1 
REMARK       I    between atoms: N_2  and  C_3 
ROOT
ATOM      1  N   UNL d   1      52.773  33.462  53.439  0.00  0.00    -0.303 N 
ATOM      2  C   UNL d   1      52.395  34.203  53.301  0.00  0.00     0.244 C 
ATOM      3  C   UNL d   1      52.458  32.806  53.015  0.00  0.00     0.088 A 
ATOM      4  C   UNL d   1      53.891  32.827  54.227  0.00  0.00     0.037 A 
ATOM      5  C   UNL d   1      53.417  33.467  53.983  0.00  0.00     0.051 A 
ATOM      6  C   UNL d   1      53.207  32.472  53.565  0.00  0.00     0.028 A 
ATOM      7  C   UNL d   1      53.321  31.658  53.463  0.00  0.00     0.002 A 
ATOM      8  C   UNL d   1      52.709  32.006  53.032  0.00  0.00     0.023 A 
ATOM      9  O   UNL d   1      52.659  34.837  53.678  0.00  0.00    -0.271 OA
ATOM     10  C   UNL d   1      53.840  32.037  53.992  0.00  0.00     0.006 A 
ATOM     11  C   UNL d   1      54.482  33.078  54.786  0.00  0.00     0.006 C 
ATOM     12  C   UNL d   1      53.890  31.153  53.820  0.00  0.00     0.000 C 
ATOM     13  C   UNL d   1      53.005  31.004  53.039  0.00  0.00     0.000 C 
ENDROOT
BRANCH   2  14
ATOM     14  C   UNL d   1      51.787  34.242  52.798  0.00  0.00     0.111 A 
ATOM     15  C   UNL d   1      50.375  34.343  52.401  0.00  0.00     0.025 A 
ATOM     16  C   UNL d   1      51.159  34.283  52.308  0.00  0.00     0.074 A 
ATOM     17  C   UNL d   1      49.863  34.388  53.012  0.00  0.00     0.002 C 
ATOM     18  C   UNL d   1      49.910  34.370  51.758  0.00  0.00     0.002 C 
ATOM     19  C   UNL d   1      50.694  34.310  51.682  0.00  0.00     0.012 C 
ATOM     20  C   UNL d   1      51.657  34.239  51.697  0.00  0.00    -0.023 A 
ATOM     21  C   UNL d   1      51.040  34.302  53.090  0.00  0.00     0.172 A 
ATOM     22  C   UNL d   1      52.272  34.199  52.188  0.00  0.00    -0.018 A 
ATOM     23  C   UNL d   1      51.662  34.261  53.587  0.00  0.00     0.024 A 
ATOM     24  O   UNL d   1      50.403  34.355  53.559  0.00  0.00    -0.291 OA
ENDBRANCH   2  14
TORSDOF 1
ENDMDL
MODEL 2
REMARK VINA RESULT:     -12.7      1.830      3.511
REMARK  1 active torsions:
REMARK  status: ('A' for Active; 'I' for Inactive)
REMARK    1  A    between atoms: C_3  and  C_1 
REMARK       I    between atoms: N_2  and  C_3 
ROOT
ATOM      1  N   UNL d   1      53.224  32.671  53.531  0.00  0.00    -0.303 N 
ATOM      2  C   UNL d   1      52.946  32.089  52.987  0.00  0.00     0.244 C 
ATOM      3  C   UNL d   1      53.663  32.378  54.186  0.00  0.00     0.088 A 
ATOM      4  C   UNL d   1      53.225  34.158  53.782  0.00  0.00     0.037 A 
ATOM      5  C   UNL d   1      53.029  33.472  53.353  0.00  0.00     0.051 A 
ATOM      6  C   UNL d   1      53.616  33.361  54.275  0.00  0.00     0.028 A 
ATOM      7  C   UNL d   1      54.011  33.625  54.953  0.00  0.00     0.002 A 
ATOM      8  C   UNL d   1      54.010  32.811  54.815  0.00  0.00     0.023 A 
ATOM      9  O   UNL d   1      52.533  32.323  52.363  0.00  0.00    -0.271 OA
ATOM     10  C   UNL d   1      53.656  34.214  54.484  0.00  0.00     0.006 A 
ATOM     11  C   UNL d   1      52.916  34.855  53.404  0.00  0.00     0.006 C 
ATOM     12  C   UNL d   1      54.107  34.409  55.239  0.00  0.00     0.000 C 
ATOM     13  C   UNL d   1      54.450  33.331  55.608  0.00  0.00     0.000 C 
ENDROOT
BRANCH   2  14
ATOM     14  C   UNL d   1      53.107  31.327  53.116  0.00  0.00     0.111 A 
ATOM     15  C   UNL d   1      52.805  29.926  53.442  0.00  0.00     0.025 A 
ATOM     16  C   UNL d   1      53.248  30.553  53.251  0.00  0.00     0.074 A 
ATOM     17  C   UNL d   1      52.033  29.778  53.583  0.00  0.00     0.002 C 
ATOM     18  C   UNL d   1      53.155  29.219  53.533  0.00  0.00     0.002 C 
ATOM     19  C   UNL d   1      53.583  29.854  53.343  0.00  0.00     0.012 C 
ATOM     20  C   UNL d   1      54.014  30.688  53.113  0.00  0.00    -0.023 A 
ATOM     21  C   UNL d   1      52.506  30.826  53.304  0.00  0.00     0.172 A 
ATOM     22  C   UNL d   1      53.866  31.451  52.981  0.00  0.00    -0.018 A 
ATOM     23  C   UNL d   1      52.357  31.597  53.171  0.00  0.00     0.024 A 
ATOM     24  O   UNL d   1      51.802  30.504  53.471  0.00  0.00    -0.291 OA
ENDBRANCH   2  14
TORSDOF 1
ENDMDL
MODEL 3
REMARK VINA RESULT:     -12.3      1.376      3.549
REMARK  1 active torsions:
REMARK  status: ('A' for Active; 'I' for Inactive)
REMARK    1  A    between atoms: C_3  and  C_1 
REMARK       I    between atoms: N_2  and  C_3 
ROOT
ATOM      1  N   UNL d   1      52.984  32.916  53.408  0.00  0.00    -0.303 N 
ATOM      2  C   UNL d   1      53.583  32.325  53.471  0.00  0.00     0.244 C 
ATOM      3  C   UNL d   1      52.208  32.635  53.246  0.00  0.00     0.088 A 
ATOM      4  C   UNL d   1      52.776  34.408  53.485  0.00  0.00     0.037 A 
ATOM      5  C   UNL d   1      53.236  33.714  53.515  0.00  0.00     0.051 A 
ATOM      6  C   UNL d   1      52.159  33.619  53.313  0.00  0.00     0.028 A 
ATOM      7  C   UNL d   1      51.388  33.895  53.194  0.00  0.00     0.002 A 
ATOM      8  C   UNL d   1      51.503  33.079  53.152  0.00  0.00     0.023 A 
ATOM      9  O   UNL d   1      54.319  32.547  53.621  0.00  0.00    -0.271 OA
ATOM     10  C   UNL d   1      51.965  34.476  53.343  0.00  0.00     0.006 A 
ATOM     11  C   UNL d   1      53.254  35.099  53.624  0.00  0.00     0.006 C 
ATOM     12  C   UNL d   1      51.100  34.685  53.203  0.00  0.00     0.000 C 
ATOM     13  C   UNL d   1      50.612  33.613  53.032  0.00  0.00     0.000 C 
ENDROOT
BRANCH   2  14
ATOM     14  C   UNL d   1      53.390  31.564  53.377  0.00  0.00     0.111 A 
ATOM     15  C   UNL d   1      53.156  30.176  53.797  0.00  0.00     0.025 A 
ATOM     16  C   UNL d   1      53.198  30.794  53.304  0.00  0.00     0.074 A 
ATOM     17  C   UNL d   1      53.281  30.040  54.574  0.00  0.00     0.002 C 
ATOM     18  C   UNL d   1      52.936  29.468  53.511  0.00  0.00     0.002 C 
ATOM     19  C   UNL d   1      52.983  30.094  53.033  0.00  0.00     0.012 C 
ATOM     20  C   UNL d   1      53.071  30.917  52.535  0.00  0.00    -0.023 A 
ATOM     21  C   UNL d   1      53.406  31.075  54.015  0.00  0.00     0.172 A 
ATOM     22  C   UNL d   1      53.262  31.678  52.615  0.00  0.00    -0.018 A 
ATOM     23  C   UNL d   1      53.598  31.844  54.096  0.00  0.00     0.024 A 
ATOM     24  O   UNL d   1      53.481  30.764  54.740  0.00  0.00    -0.291 OA
ENDBRANCH   2  14
TORSDOF 1
ENDMDL
MODEL 4
REMARK VINA RESULT:     -11.7      1.341      3.776
REMARK  1 active torsions:
REMARK  status: ('A' for Active; 'I' for Inactive)
REMARK    1  A    between atoms: C_3  and  C_1 
REMARK       I    between atoms: N_2  and  C_3 
ROOT
ATOM      1  N   UNL d   1      52.846  32.804  53.642  0.00  0.00    -0.303 N 
ATOM      2  C   UNL d   1      53.530  32.417  53.950  0.00  0.00     0.244 C 
ATOM      3  C   UNL d   1      52.898  33.641  53.575  0.00  0.00     0.088 A 
ATOM      4  C   UNL d   1      51.456  32.527  53.128  0.00  0.00     0.037 A 
ATOM      5  C   UNL d   1      52.196  32.306  53.440  0.00  0.00     0.051 A 
ATOM      6  C   UNL d   1      52.004  33.373  53.254  0.00  0.00     0.028 A 
ATOM      7  C   UNL d   1      51.558  34.027  53.011  0.00  0.00     0.002 A 
ATOM      8  C   UNL d   1      52.319  34.178  53.292  0.00  0.00     0.023 A 
ATOM      9  O   UNL d   1      53.520  31.638  54.028  0.00  0.00    -0.271 OA
ATOM     10  C   UNL d   1      51.187  33.285  52.943  0.00  0.00     0.006 A 
ATOM     11  C   UNL d   1      50.960  31.846  53.006  0.00  0.00     0.006 C 
ATOM     12  C   UNL d   1      50.777  34.051  52.703  0.00  0.00     0.000 C 
ATOM     13  C   UNL d   1      51.612  34.864  52.944  0.00  0.00     0.000 C 
ENDROOT
BRANCH   2  14
ATOM     14  C   UNL d   1      54.162  32.847  54.152  0.00  0.00     0.111 A 
ATOM     15  C   UNL d   1      55.077  33.545  55.066  0.00  0.00     0.025 A 
ATOM     16  C   UNL d   1      54.794  33.279  54.376  0.00  0.00     0.074 A 
ATOM     17  C   UNL d   1      54.868  33.505  55.836  0.00  0.00     0.002 C 
ATOM     18  C   UNL d   1      55.745  33.973  55.070  0.00  0.00     0.002 C 
ATOM     19  C   UNL d   1      55.450  33.701  54.391  0.00  0.00     0.012 C 
ATOM     20  C   UNL d   1      55.009  33.323  53.618  0.00  0.00    -0.023 A 
ATOM     21  C   UNL d   1      54.286  33.021  54.927  0.00  0.00     0.172 A 
ATOM     22  C   UNL d   1      54.383  32.896  53.404  0.00  0.00    -0.018 A 
ATOM     23  C   UNL d   1      53.652  32.589  54.710  0.00  0.00     0.024 A 
ATOM     24  O   UNL d   1      54.234  33.085  55.715  0.00  0.00    -0.291 OA
ENDBRANCH   2  14
TORSDOF 1
ENDMDL
MODEL 5
REMARK VINA RESULT:     -11.3      2.016      3.159
REMARK  1 active torsions:
REMARK  status: ('A' for Active; 'I' for Inactive)
REMARK    1  A    between atoms: C_3  and  C_1 
REMARK       I    between atoms: N_2  and  C_3 
ROOT
ATOM      1  N   UNL d   1      53.344  31.380  53.467  0.00  0.00    -0.303 N 
ATOM      2  C   UNL d   1      53.428  32.183  53.223  0.00  0.00     0.244 C 
ATOM      3  C   UNL d   1      53.559  31.215  54.264  0.00  0.00     0.088 A 
ATOM      4  C   UNL d   1      52.916  30.024  52.964  0.00  0.00     0.037 A 
ATOM      5  C   UNL d   1      53.055  30.841  52.886  0.00  0.00     0.051 A 
ATOM      6  C   UNL d   1      53.263  30.367  53.856  0.00  0.00     0.028 A 
ATOM      7  C   UNL d   1      53.305  29.739  54.393  0.00  0.00     0.002 A 
ATOM      8  C   UNL d   1      53.539  30.481  54.668  0.00  0.00     0.023 A 
ATOM      9  O   UNL d   1      53.237  32.376  52.488  0.00  0.00    -0.271 OA
ATOM     10  C   UNL d   1      53.029  29.550  53.631  0.00  0.00     0.006 A 
ATOM     11  C   UNL d   1      52.623  29.692  52.237  0.00  0.00     0.006 C 
ATOM     12  C   UNL d   1      53.108  28.929  54.280  0.00  0.00     0.000 C 
ATOM     13  C   UNL d   1      53.521  29.575  55.190  0.00  0.00     0.000 C 
ENDROOT
BRANCH   2  14
ATOM     14  C   UNL d   1      53.696  32.720  53.737  0.00  0.00     0.111 A 
ATOM     15  C   UNL d   1      53.604  33.858  54.662  0.00  0.00     0.025 A 
ATOM     16  C   UNL d   1      53.946  33.270  54.257  0.00  0.00     0.074 A 
ATOM     17  C   UNL d   1      52.870  34.165  54.736  0.00  0.00     0.002 C 
ATOM     18  C   UNL d   1      54.048  34.305  55.145  0.00  0.00     0.002 C 
ATOM     19  C   UNL d   1      54.374  33.715  54.735  0.00  0.00     0.012 C 
ATOM     20  C   UNL d   1      54.675  32.974  54.192  0.00  0.00    -0.023 A 
ATOM     21  C   UNL d   1      53.181  33.252  54.052  0.00  0.00     0.172 A 
ATOM     22  C   UNL d   1      54.420  32.434  53.678  0.00  0.00    -0.018 A 
ATOM     23  C   UNL d   1      52.924  32.705  53.533  0.00  0.00     0.024 A 
ATOM     24  O   UNL d   1      52.539  33.674  54.244  0.00  0.00    -0.291 OA
ENDBRANCH   2  14
TORSDOF 1
ENDMDL
