MODEL 1
REMARK VINA RESULT:      46.4      0.000      0.000
REMARK  5 active torsions:
REMARK  status: ('A' for Active; 'I' for Inactive)
REMARK    1  A    between atoms: N_15  and  C_6 
REMARK    2  A    between atoms: N_14  and  C_18 
REMARK    3  A    between atoms: C_24  and  N_15 
REMARK    4  A    between atoms: C_18  and  C_19 
REMARK    5  A    between atoms: C_19  and  C_24 
ROOT
ATOM      1  N   UNL d   1      14.523  14.722  -2.225  0.00  0.00    -0.183 N 
ATOM      2  C   UNL d   1      14.896  14.674  -1.490  0.00  0.00     0.169 A 
ATOM      3  C   UNL d   1      15.001  13.956  -1.125  0.00  0.00     0.073 A 
ATOM      4  C   UNL d   1      14.731  13.285  -1.498  0.00  0.00     0.185 A 
ATOM      5  N   UNL d   1      14.358  13.333  -2.232  0.00  0.00    -0.142 NA
ATOM      6  C   UNL d   1      14.428  15.450  -2.575  0.00  0.00     0.218 A 
ATOM      7  N   UNL d   1      15.163  15.355  -1.125  0.00  0.00    -0.226 NA
ATOM      8  C   UNL d   1      15.370  13.908  -0.398  0.00  0.00     0.007 A 
ATOM      9  N   UNL d   1      14.830  12.549  -1.140  0.00  0.00    -0.225 NA
ATOM     10  C   UNL d   1      14.690  16.126  -2.218  0.00  0.00     0.071 A 
ATOM     11  C   UNL d   1      15.475  13.189  -0.032  0.00  0.00     0.019 A 
ATOM     12  C   UNL d   1      15.063  16.077  -1.483  0.00  0.00     0.087 A 
ATOM     13  C   UNL d   1      15.202  12.501  -0.405  0.00  0.00     0.083 A 
ATOM     14  C   UNL d   1      15.637  14.592  -0.033  0.00  0.00     0.000 C 
ATOM     15  C   UNL d   1      15.340  16.786  -1.106  0.00  0.00     0.021 C 
ATOM     16  C   UNL d   1      15.303  11.782  -0.048  0.00  0.00     0.021 C 
ENDROOT
BRANCH   6  17
ATOM     17  N   UNL d   1      14.042  15.490  -3.333  0.00  0.00    -0.380 NA
BRANCH  17  18
ATOM     18  C   UNL d   1      13.609  15.440  -4.053  0.00  0.00     0.164 C 
BRANCH  18  19
ATOM     19  C   UNL d   1      13.108  14.780  -4.192  0.00  0.00     0.054 C 
BRANCH  19  20
ATOM     20  C   UNL d   1      13.146  14.370  -4.946  0.00  0.00     0.083 C 
BRANCH  20  21
ATOM     21  N   UNL d   1      13.210  13.527  -4.972  0.00  0.00    -0.299 N 
ATOM     22  C   UNL d   1      12.772  13.054  -4.411  0.00  0.00     0.107 A 
ATOM     23  C   UNL d   1      12.829  12.206  -4.430  0.00  0.00     0.142 A 
ATOM     24  O   UNL d   1      13.326  11.831  -5.010  0.00  0.00    -0.300 OA
ATOM     25  C   UNL d   1      13.758  12.299  -5.564  0.00  0.00     0.142 A 
ATOM     26  C   UNL d   1      13.700  13.147  -5.545  0.00  0.00     0.107 A 
ENDBRANCH  20  21
ENDBRANCH  19  20
ENDBRANCH  18  19
ENDBRANCH  17  18
ENDBRANCH   6  17
TORSDOF 5
ENDMDL
MODEL 2
REMARK VINA RESULT:      48.7      1.599      3.731
REMARK  5 active torsions:
REMARK  status: ('A' for Active; 'I' for Inactive)
REMARK    1  A    between atoms: N_15  and  C_6 
REMARK    2  A    between atoms: N_14  and  C_18 
REMARK    3  A    between atoms: C_24  and  N_15 
REMARK    4  A    between atoms: C_18  and  C_19 
REMARK    5  A    between atoms: C_19  and  C_24 
ROOT
ATOM      1  N   UNL d   1      13.961  14.637  -3.267  0.00  0.00    -0.183 N 
ATOM      2  C   UNL d   1      14.202  15.409  -3.427  0.00  0.00     0.169 A 
ATOM      3  C   UNL d   1      14.532  15.870  -2.844  0.00  0.00     0.073 A 
ATOM      4  C   UNL d   1      14.620  15.554  -2.099  0.00  0.00     0.185 A 
ATOM      5  N   UNL d   1      14.378  14.782  -1.939  0.00  0.00    -0.142 NA
ATOM      6  C   UNL d   1      13.634  14.192  -3.862  0.00  0.00     0.218 A 
ATOM      7  N   UNL d   1      14.110  15.716  -4.178  0.00  0.00    -0.226 NA
ATOM      8  C   UNL d   1      14.771  16.634  -3.003  0.00  0.00     0.007 A 
ATOM      9  N   UNL d   1      14.952  16.009  -1.498  0.00  0.00    -0.225 NA
ATOM     10  C   UNL d   1      13.540  14.490  -4.607  0.00  0.00     0.071 A 
ATOM     11  C   UNL d   1      15.101  17.095  -2.419  0.00  0.00     0.019 A 
ATOM     12  C   UNL d   1      13.781  15.263  -4.768  0.00  0.00     0.087 A 
ATOM     13  C   UNL d   1      15.194  16.781  -1.658  0.00  0.00     0.083 A 
ATOM     14  C   UNL d   1      14.678  16.941  -3.757  0.00  0.00     0.000 C 
ATOM     15  C   UNL d   1      13.684  15.579  -5.549  0.00  0.00     0.021 C 
ATOM     16  C   UNL d   1      15.521  17.234  -1.073  0.00  0.00     0.021 C 
ENDROOT
BRANCH   6  17
ATOM     17  N   UNL d   1      13.387  13.395  -3.688  0.00  0.00    -0.380 NA
BRANCH  17  18
ATOM     18  C   UNL d   1      13.237  12.577  -3.562  0.00  0.00     0.164 C 
BRANCH  18  19
ATOM     19  C   UNL d   1      13.205  12.275  -2.778  0.00  0.00     0.054 C 
BRANCH  19  20
ATOM     20  C   UNL d   1      13.848  11.785  -2.486  0.00  0.00     0.083 C 
BRANCH  20  21
ATOM     21  N   UNL d   1      14.045  11.783  -1.664  0.00  0.00    -0.299 N 
ATOM     22  C   UNL d   1      14.866  11.782  -1.427  0.00  0.00     0.107 A 
ATOM     23  C   UNL d   1      15.073  11.780  -0.602  0.00  0.00     0.142 A 
ATOM     24  O   UNL d   1      14.458  11.779  -0.014  0.00  0.00    -0.300 OA
ATOM     25  C   UNL d   1      13.647  11.780  -0.249  0.00  0.00     0.142 A 
ATOM     26  C   UNL d   1      13.440  11.782  -1.074  0.00  0.00     0.107 A 
ENDBRANCH  20  21
ENDBRANCH  19  20
ENDBRANCH  18  19
ENDBRANCH  17  18
ENDBRANCH   6  17
TORSDOF 5
ENDMDL
