MODEL 1
REMARK VINA RESULT:      -1.7      0.000      0.000
REMARK  4 active torsions:
REMARK  status: ('A' for Active; 'I' for Inactive)
REMARK    1  A    between atoms: C_2  and  S_1 
REMARK    2  A    between atoms: N_3  and  S_1 
REMARK    3  A    between atoms: C_5  and  C_6 
REMARK       I    between atoms: N_7  and  C_5 
REMARK    4  A    between atoms: C_15  and  N_7 
ROOT
ATOM      1  C   UNL d   1      32.765  20.366 -21.679  0.00  0.00     0.115 A 
ATOM      2  C   UNL d   1      32.606  19.938 -22.377  0.00  0.00     0.019 A 
ATOM      3  C   UNL d   1      32.765  19.129 -22.412  0.00  0.00     0.059 A 
ATOM      4  C   UNL d   1      33.080  19.972 -21.028  0.00  0.00     0.070 A 
ATOM      5  C   UNL d   1      33.082  18.744 -21.749  0.00  0.00     0.006 A 
ATOM      6  C   UNL d   1      33.238  19.163 -21.063  0.00  0.00     0.012 A 
ATOM      7 CL   UNL d   1      33.238  20.400 -20.330  0.00  0.00    -0.082 Cl
ENDROOT
BRANCH   1   8
ATOM      8  S   UNL d   1      32.606  21.175 -21.644  0.00  0.00     0.272 S 
ATOM      9  O   UNL d   1      33.215  21.318 -22.188  0.00  0.00    -0.200 OA
ATOM     10  O   UNL d   1      32.003  21.033 -21.105  0.00  0.00    -0.200 OA
BRANCH   8  11
ATOM     11  N   UNL d   1      32.449  21.979 -21.609  0.00  0.00    -0.229 N 
ATOM     12  C   UNL d   1      32.537  22.368 -22.374  0.00  0.00     0.092 A 
ATOM     13  C   UNL d   1      32.462  23.040 -22.612  0.00  0.00     0.020 A 
ATOM     14  C   UNL d   1      32.241  23.699 -22.145  0.00  0.00     0.002 A 
ATOM     15  C   UNL d   1      32.059  23.702 -21.290  0.00  0.00     0.002 A 
ATOM     16  C   UNL d   1      32.072  23.008 -20.735  0.00  0.00     0.020 A 
ATOM     17  C   UNL d   1      32.263  22.218 -20.940  0.00  0.00     0.092 A 
ENDBRANCH   8  11
ENDBRANCH   1   8
BRANCH   3  18
ATOM     18  C   UNL d   1      32.610  18.702 -23.098  0.00  0.00     0.279 C 
ATOM     19  N   UNL d   1      32.296  17.945 -23.057  0.00  0.00    -0.206 NA
ATOM     20  O   UNL d   1      32.772  19.039 -23.835  0.00  0.00    -0.265 OA
BRANCH  19  21
ATOM     21  C   UNL d   1      32.140  17.514 -23.743  0.00  0.00     0.104 A 
ATOM     22  C   UNL d   1      31.791  17.880 -24.380  0.00  0.00     0.118 A 
ATOM     23  N   UNL d   1      31.637  17.448 -25.063  0.00  0.00    -0.241 NA
ATOM     24  C   UNL d   1      31.838  16.644 -25.097  0.00  0.00     0.099 A 
ATOM     25  C   UNL d   1      32.190  16.279 -24.451  0.00  0.00     0.022 A 
ATOM     26  C   UNL d   1      32.346  16.716 -23.761  0.00  0.00     0.022 A 
ENDBRANCH  19  21
ENDBRANCH   3  18
TORSDOF 4
ENDMDL
MODEL 2
REMARK VINA RESULT:      -0.8      1.317      1.862
REMARK  4 active torsions:
REMARK  status: ('A' for Active; 'I' for Inactive)
REMARK    1  A    between atoms: C_2  and  S_1 
REMARK    2  A    between atoms: N_3  and  S_1 
REMARK    3  A    between atoms: C_5  and  C_6 
REMARK       I    between atoms: N_7  and  C_5 
REMARK    4  A    between atoms: C_15  and  N_7 
ROOT
ATOM      1  C   UNL d   1      32.924  21.364 -22.344  0.00  0.00     0.115 A 
ATOM      2  C   UNL d   1      32.843  20.534 -22.318  0.00  0.00     0.019 A 
ATOM      3  C   UNL d   1      32.961  20.085 -23.000  0.00  0.00     0.059 A 
ATOM      4  C   UNL d   1      33.123  21.727 -23.056  0.00  0.00     0.070 A 
ATOM      5  C   UNL d   1      33.161  20.463 -23.711  0.00  0.00     0.006 A 
ATOM      6  C   UNL d   1      33.241  21.277 -23.738  0.00  0.00     0.012 A 
ATOM      7 CL   UNL d   1      33.204  22.556 -23.082  0.00  0.00    -0.082 Cl
ENDROOT
BRANCH   1   8
ATOM      8  S   UNL d   1      32.806  21.813 -21.663  0.00  0.00     0.272 S 
ATOM      9  O   UNL d   1      33.241  21.262 -21.223  0.00  0.00    -0.200 OA
ATOM     10  O   UNL d   1      32.374  22.360 -22.098  0.00  0.00    -0.200 OA
BRANCH   8  11
ATOM     11  N   UNL d   1      32.688  22.260 -20.985  0.00  0.00    -0.229 N 
ATOM     12  C   UNL d   1      33.158  21.982 -20.318  0.00  0.00     0.092 A 
ATOM     13  C   UNL d   1      33.241  22.185 -19.635  0.00  0.00     0.020 A 
ATOM     14  C   UNL d   1      32.848  22.830 -19.270  0.00  0.00     0.002 A 
ATOM     15  C   UNL d   1      32.271  23.373 -19.639  0.00  0.00     0.002 A 
ATOM     16  C   UNL d   1      31.978  23.358 -20.478  0.00  0.00     0.020 A 
ATOM     17  C   UNL d   1      32.209  22.810 -21.069  0.00  0.00     0.092 A 
ENDBRANCH   8  11
ENDBRANCH   1   8
BRANCH   3  18
ATOM     18  C   UNL d   1      32.882  19.266 -22.980  0.00  0.00     0.279 C 
ATOM     19  N   UNL d   1      32.815  18.836 -23.676  0.00  0.00    -0.206 NA
ATOM     20  O   UNL d   1      32.871  18.874 -22.253  0.00  0.00    -0.265 OA
BRANCH  19  21
ATOM     21  C   UNL d   1      32.736  18.015 -23.659  0.00  0.00     0.104 A 
ATOM     22  C   UNL d   1      32.191  17.671 -23.162  0.00  0.00     0.118 A 
ATOM     23  N   UNL d   1      32.114  16.852 -23.148  0.00  0.00    -0.241 NA
ATOM     24  C   UNL d   1      32.592  16.384 -23.638  0.00  0.00     0.099 A 
ATOM     25  C   UNL d   1      33.141  16.735 -24.138  0.00  0.00     0.022 A 
ATOM     26  C   UNL d   1      33.218  17.564 -24.152  0.00  0.00     0.022 A 
ENDBRANCH  19  21
ENDBRANCH   3  18
TORSDOF 4
ENDMDL
MODEL 3
REMARK VINA RESULT:       0.5      2.002      3.043
REMARK  4 active torsions:
REMARK  status: ('A' for Active; 'I' for Inactive)
REMARK    1  A    between atoms: C_2  and  S_1 
REMARK    2  A    between atoms: N_3  and  S_1 
REMARK    3  A    between atoms: C_5  and  C_6 
REMARK       I    between atoms: N_7  and  C_5 
REMARK    4  A    between atoms: C_15  and  N_7 
ROOT
ATOM      1  C   UNL d   1      32.661  22.299 -20.571  0.00  0.00     0.115 A 
ATOM      2  C   UNL d   1      32.709  21.503 -20.817  0.00  0.00     0.019 A 
ATOM      3  C   UNL d   1      32.657  21.313 -21.618  0.00  0.00     0.059 A 
ATOM      4  C   UNL d   1      32.561  22.889 -21.136  0.00  0.00     0.070 A 
ATOM      5  C   UNL d   1      32.557  21.918 -22.177  0.00  0.00     0.006 A 
ATOM      6  C   UNL d   1      32.509  22.699 -21.937  0.00  0.00     0.012 A 
ATOM      7 CL   UNL d   1      32.513  23.685 -20.890  0.00  0.00    -0.082 Cl
ENDROOT
BRANCH   1   8
ATOM      8  S   UNL d   1      32.713  22.489 -19.770  0.00  0.00     0.272 S 
ATOM      9  O   UNL d   1      33.211  21.837 -19.647  0.00  0.00    -0.200 OA
ATOM     10  O   UNL d   1      32.220  23.134 -19.891  0.00  0.00    -0.200 OA
BRANCH   8  11
ATOM     11  N   UNL d   1      32.765  22.678 -18.973  0.00  0.00    -0.229 N 
ATOM     12  C   UNL d   1      33.093  22.036 -18.500  0.00  0.00     0.092 A 
ATOM     13  C   UNL d   1      33.241  21.942 -17.805  0.00  0.00     0.020 A 
ATOM     14  C   UNL d   1      33.113  22.509 -17.201  0.00  0.00     0.002 A 
ATOM     15  C   UNL d   1      32.781  23.312 -17.294  0.00  0.00     0.002 A 
ATOM     16  C   UNL d   1      32.509  23.699 -18.047  0.00  0.00     0.020 A 
ATOM     17  C   UNL d   1      32.524  23.353 -18.810  0.00  0.00     0.092 A 
ENDBRANCH   8  11
ENDBRANCH   1   8
BRANCH   3  18
ATOM     18  C   UNL d   1      32.705  20.530 -21.865  0.00  0.00     0.279 C 
ATOM     19  N   UNL d   1      33.094  20.335 -22.561  0.00  0.00    -0.206 NA
ATOM     20  O   UNL d   1      32.358  19.935 -21.409  0.00  0.00    -0.265 OA
BRANCH  19  21
ATOM     21  C   UNL d   1      33.143  19.551 -22.812  0.00  0.00     0.104 A 
ATOM     22  C   UNL d   1      33.166  19.381 -23.607  0.00  0.00     0.118 A 
ATOM     23  N   UNL d   1      33.214  18.597 -23.854  0.00  0.00    -0.241 NA
ATOM     24  C   UNL d   1      33.240  17.988 -23.292  0.00  0.00     0.099 A 
ATOM     25  C   UNL d   1      33.217  18.165 -22.491  0.00  0.00     0.022 A 
ATOM     26  C   UNL d   1      33.168  18.957 -22.241  0.00  0.00     0.022 A 
ENDBRANCH  19  21
ENDBRANCH   3  18
TORSDOF 4
ENDMDL
MODEL 4
REMARK VINA RESULT:       1.0      1.569      4.964
REMARK  4 active torsions:
REMARK  status: ('A' for Active; 'I' for Inactive)
REMARK    1  A    between atoms: C_2  and  S_1 
REMARK    2  A    between atoms: N_3  and  S_1 
REMARK    3  A    between atoms: C_5  and  C_6 
REMARK       I    between atoms: N_7  and  C_5 
REMARK    4  A    between atoms: C_15  and  N_7 
ROOT
ATOM      1  C   UNL d   1      32.689  18.465 -22.893  0.00  0.00     0.115 A 
ATOM      2  C   UNL d   1      32.548  19.237 -23.175  0.00  0.00     0.019 A 
ATOM      3  C   UNL d   1      32.754  19.890 -22.715  0.00  0.00     0.059 A 
ATOM      4  C   UNL d   1      33.035  18.364 -22.152  0.00  0.00     0.070 A 
ATOM      5  C   UNL d   1      33.102  19.774 -21.971  0.00  0.00     0.006 A 
ATOM      6  C   UNL d   1      33.241  19.017 -21.692  0.00  0.00     0.012 A 
ATOM      7 CL   UNL d   1      33.176  17.591 -21.871  0.00  0.00    -0.082 Cl
ENDROOT
BRANCH   1   8
ATOM      8  S   UNL d   1      32.483  17.812 -23.353  0.00  0.00     0.272 S 
ATOM      9  O   UNL d   1      33.214  17.855 -23.741  0.00  0.00    -0.200 OA
ATOM     10  O   UNL d   1      31.759  17.769 -22.969  0.00  0.00    -0.200 OA
BRANCH   8  11
ATOM     11  N   UNL d   1      32.278  17.163 -23.810  0.00  0.00    -0.229 N 
ATOM     12  C   UNL d   1      32.962  16.787 -24.178  0.00  0.00     0.092 A 
ATOM     13  C   UNL d   1      33.060  16.223 -24.610  0.00  0.00     0.020 A 
ATOM     14  C   UNL d   1      32.452  15.725 -24.903  0.00  0.00     0.002 A 
ATOM     15  C   UNL d   1      31.595  15.790 -24.744  0.00  0.00     0.002 A 
ATOM     16  C   UNL d   1      31.185  16.397 -24.241  0.00  0.00     0.020 A 
ATOM     17  C   UNL d   1      31.558  17.021 -23.823  0.00  0.00     0.092 A 
ENDBRANCH   8  11
ENDBRANCH   1   8
BRANCH   3  18
ATOM     18  C   UNL d   1      32.617  20.654 -22.988  0.00  0.00     0.279 C 
ATOM     19  N   UNL d   1      33.241  21.126 -23.237  0.00  0.00    -0.206 NA
ATOM     20  O   UNL d   1      31.845  20.948 -23.012  0.00  0.00    -0.265 OA
BRANCH  19  21
ATOM     21  C   UNL d   1      33.107  21.892 -23.512  0.00  0.00     0.104 A 
ATOM     22  C   UNL d   1      33.197  22.060 -24.303  0.00  0.00     0.118 A 
ATOM     23  N   UNL d   1      33.063  22.826 -24.574  0.00  0.00    -0.241 NA
ATOM     24  C   UNL d   1      32.836  23.419 -24.040  0.00  0.00     0.099 A 
ATOM     25  C   UNL d   1      32.746  23.244 -23.243  0.00  0.00     0.022 A 
ATOM     26  C   UNL d   1      32.882  22.471 -22.969  0.00  0.00     0.022 A 
ENDBRANCH  19  21
ENDBRANCH   3  18
TORSDOF 4
ENDMDL
