MODEL 1
REMARK VINA RESULT:      31.8      0.000      0.000
REMARK  5 active torsions:
REMARK  status: ('A' for Active; 'I' for Inactive)
REMARK    1  A    between atoms: C_7  and  C_1 
REMARK    2  A    between atoms: C_5  and  S_14 
REMARK       I    between atoms: N_13  and  C_7 
REMARK    3  A    between atoms: C_18  and  N_13 
REMARK    4  A    between atoms: S_14  and  C_19 
REMARK    5  A    between atoms: C_19  and  C_18 
ROOT
ATOM      1  C   UNL d   1      14.733  14.080  -0.016  0.00  0.00     0.056 C 
ENDROOT
BRANCH   1   2
ATOM      2  S   UNL d   1      14.150  13.624  -0.398  0.00  0.00    -0.083 SA
BRANCH   2   3
ATOM      3  C   UNL d   1      14.372  12.956  -0.841  0.00  0.00     0.050 A 
ATOM      4  C   UNL d   1      14.151  12.805  -1.620  0.00  0.00     0.025 A 
ATOM      5  C   UNL d   1      14.495  12.080  -1.844  0.00  0.00     0.082 A 
ATOM      6  C   UNL d   1      13.684  13.225  -2.161  0.00  0.00     0.002 A 
ATOM      7  C   UNL d   1      14.370  11.780  -2.604  0.00  0.00     0.019 A 
ATOM      8  N   UNL d   1      14.925  11.796  -1.195  0.00  0.00    -0.243 NA
ATOM      9  C   UNL d   1      13.905  12.201  -3.137  0.00  0.00     0.002 A 
ATOM     10  C   UNL d   1      13.560  12.930  -2.913  0.00  0.00     0.000 A 
ATOM     11  C   UNL d   1      14.848  12.337  -0.579  0.00  0.00     0.105 A 
ENDBRANCH   2   3
ENDBRANCH   1   2
BRANCH   1  12
ATOM     12  C   UNL d   1      15.087  14.711  -0.412  0.00  0.00     0.109 C 
BRANCH  12  13
ATOM     13  N   UNL d   1      15.743  15.104  -0.072  0.00  0.00    -0.204 NA
ATOM     14  C   UNL d   1      15.980  15.839  -0.358  0.00  0.00     0.302 C 
ATOM     15  O   UNL d   1      16.628  16.222  -0.019  0.00  0.00    -0.263 OA
BRANCH  14  16
ATOM     16  C   UNL d   1      15.565  16.195  -0.988  0.00  0.00     0.158 A 
ATOM     17  O   UNL d   1      15.523  16.020  -1.796  0.00  0.00    -0.296 OA
ATOM     18  C   UNL d   1      15.019  16.570  -2.145  0.00  0.00     0.134 A 
ATOM     19 BR   UNL d   1      14.816  16.603  -2.953  0.00  0.00    -0.022 Br
ATOM     20  C   UNL d   1      14.748  17.084  -1.562  0.00  0.00     0.034 A 
ATOM     21  C   UNL d   1      15.086  16.851  -0.848  0.00  0.00     0.032 A 
ENDBRANCH  14  16
ENDBRANCH  12  13
ENDBRANCH   1  12
TORSDOF 5
ENDMDL
