MODEL 1
REMARK VINA RESULT:      -5.6      0.000      0.000
REMARK  4 active torsions:
REMARK  status: ('A' for Active; 'I' for Inactive)
REMARK    1  A    between atoms: C_6  and  C_1 
REMARK    2  A    between atoms: O_15  and  C_6 
REMARK    3  A    between atoms: C_7  and  C_8 
REMARK    4  A    between atoms: C_16  and  O_15 
ROOT
ATOM      1  C   UNL d   1     -41.519-122.643 -52.073  0.00  0.00     0.145 A 
ATOM      2  N   UNL d   1     -41.230-123.230 -52.565  0.00  0.00    -0.240 NA
ATOM      3  C   UNL d   1     -41.855-122.052 -52.539  0.00  0.00     0.026 A 
ATOM      4  C   UNL d   1     -41.773-122.274 -53.328  0.00  0.00     0.019 A 
ATOM      5  C   UNL d   1     -41.383-123.009 -53.350  0.00  0.00     0.082 A 
ATOM      6  C   UNL d   1     -41.838-122.275 -54.763  0.00  0.00     0.065 A 
ATOM      7  C   UNL d   1     -42.001-121.906 -54.038  0.00  0.00     0.008 A 
ATOM      8  C   UNL d   1     -41.222-123.373 -54.068  0.00  0.00     0.019 A 
ATOM      9  C   UNL d   1     -41.450-123.006 -54.781  0.00  0.00     0.008 A 
ENDROOT
BRANCH   1  10
ATOM     10  C   UNL d   1     -41.484-122.637 -51.249  0.00  0.00     0.318 C 
ATOM     11  O   UNL d   1     -41.123-122.015 -50.852  0.00  0.00    -0.257 OA
BRANCH  10  12
ATOM     12  O   UNL d   1     -41.817-123.263 -50.818  0.00  0.00    -0.270 OA
BRANCH  12  13
ATOM     13  C   UNL d   1     -41.897-123.199 -50.003  0.00  0.00     0.126 C 
ATOM     14  C   UNL d   1     -42.254-123.802 -49.568  0.00  0.00     0.029 C 
ENDBRANCH  12  13
ENDBRANCH  10  12
ENDBRANCH   1  10
BRANCH   6  15
ATOM     15  C   UNL d   1     -42.063-121.912 -55.465  0.00  0.00     0.211 C 
ATOM     16  O   UNL d   1     -42.854-121.924 -55.699  0.00  0.00    -0.644 OA
ATOM     17  O   UNL d   1     -41.500-121.535 -55.937  0.00  0.00    -0.644 OA
ENDBRANCH   6  15
TORSDOF 4
ENDMDL
MODEL 2
REMARK VINA RESULT:      -5.0      1.138      4.218
REMARK  4 active torsions:
REMARK  status: ('A' for Active; 'I' for Inactive)
REMARK    1  A    between atoms: C_6  and  C_1 
REMARK    2  A    between atoms: O_15  and  C_6 
REMARK    3  A    between atoms: C_7  and  C_8 
REMARK    4  A    between atoms: C_16  and  O_15 
ROOT
ATOM      1  C   UNL d   1     -41.302-122.794 -53.145  0.00  0.00     0.145 A 
ATOM      2  N   UNL d   1     -41.127-122.099 -52.749  0.00  0.00    -0.240 NA
ATOM      3  C   UNL d   1     -41.507-123.368 -52.590  0.00  0.00     0.026 A 
ATOM      4  C   UNL d   1     -41.459-123.026 -51.843  0.00  0.00     0.019 A 
ATOM      5  C   UNL d   1     -41.222-122.234 -51.936  0.00  0.00     0.082 A 
ATOM      6  C   UNL d   1     -41.501-122.837 -50.420  0.00  0.00     0.065 A 
ATOM      7  C   UNL d   1     -41.599-123.329 -51.081  0.00  0.00     0.008 A 
ATOM      8  C   UNL d   1     -41.125-121.749 -51.281  0.00  0.00     0.019 A 
ATOM      9  C   UNL d   1     -41.265-122.050 -50.516  0.00  0.00     0.008 A 
ENDROOT
BRANCH   1  10
ATOM     10  C   UNL d   1     -41.280-122.908 -53.962  0.00  0.00     0.318 C 
ATOM     11  O   UNL d   1     -41.130-123.654 -54.275  0.00  0.00    -0.257 OA
BRANCH  10  12
ATOM     12  O   UNL d   1     -41.409-122.267 -54.472  0.00  0.00    -0.270 OA
BRANCH  12  13
ATOM     13  C   UNL d   1     -41.724-122.397 -55.219  0.00  0.00     0.126 C 
ATOM     14  C   UNL d   1     -41.952-121.763 -55.694  0.00  0.00     0.029 C 
ENDBRANCH  12  13
ENDBRANCH  10  12
ENDBRANCH   1  10
BRANCH   6  15
ATOM     15  C   UNL d   1     -41.639-123.135 -49.666  0.00  0.00     0.211 C 
ATOM     16  O   UNL d   1     -42.279-122.859 -49.225  0.00  0.00    -0.644 OA
ATOM     17  O   UNL d   1     -41.139-123.711 -49.349  0.00  0.00    -0.644 OA
ENDBRANCH   6  15
TORSDOF 4
ENDMDL
MODEL 3
REMARK VINA RESULT:      -4.0      1.771      2.707
REMARK  4 active torsions:
REMARK  status: ('A' for Active; 'I' for Inactive)
REMARK    1  A    between atoms: C_6  and  C_1 
REMARK    2  A    between atoms: O_15  and  C_6 
REMARK    3  A    between atoms: C_7  and  C_8 
REMARK    4  A    between atoms: C_16  and  O_15 
ROOT
ATOM      1  C   UNL d   1     -42.272-123.211 -49.684  0.00  0.00     0.145 A 
ATOM      2  N   UNL d   1     -41.840-123.776 -50.091  0.00  0.00    -0.240 NA
ATOM      3  C   UNL d   1     -42.353-122.546 -50.165  0.00  0.00     0.026 A 
ATOM      4  C   UNL d   1     -41.968-122.701 -50.878  0.00  0.00     0.019 A 
ATOM      5  C   UNL d   1     -41.647-123.467 -50.836  0.00  0.00     0.082 A 
ATOM      6  C   UNL d   1     -41.442-122.560 -52.206  0.00  0.00     0.065 A 
ATOM      7  C   UNL d   1     -41.865-122.245 -51.565  0.00  0.00     0.008 A 
ATOM      8  C   UNL d   1     -41.228-123.777 -51.471  0.00  0.00     0.019 A 
ATOM      9  C   UNL d   1     -41.123-123.322 -52.162  0.00  0.00     0.008 A 
ENDROOT
BRANCH   1  10
ATOM     10  C   UNL d   1     -42.576-123.286 -48.922  0.00  0.00     0.318 C 
ATOM     11  O   UNL d   1     -43.243-123.747 -48.783  0.00  0.00    -0.257 OA
BRANCH  10  12
ATOM     12  O   UNL d   1     -42.208-122.895 -48.290  0.00  0.00    -0.270 OA
BRANCH  12  13
ATOM     13  C   UNL d   1     -42.386-123.111 -47.517  0.00  0.00     0.126 C 
ATOM     14  C   UNL d   1     -41.995-122.760 -46.883  0.00  0.00     0.029 C 
ENDBRANCH  12  13
ENDBRANCH  10  12
ENDBRANCH   1  10
BRANCH   6  15
ATOM     15  C   UNL d   1     -41.339-122.111 -52.887  0.00  0.00     0.211 C 
ATOM     16  O   UNL d   1     -41.123-121.317 -52.827  0.00  0.00    -0.644 OA
ATOM     17  O   UNL d   1     -41.451-122.452 -53.630  0.00  0.00    -0.644 OA
ENDBRANCH   6  15
TORSDOF 4
ENDMDL
