MODEL 1
REMARK VINA RESULT:      50.3      0.000      0.000
REMARK  4 active torsions:
REMARK  status: ('A' for Active; 'I' for Inactive)
REMARK    1  A    between atoms: C_2  and  C_1 
REMARK    2  A    between atoms: C_3  and  C_1 
REMARK       I    between atoms: N_7  and  C_2 
REMARK    3  A    between atoms: C_4  and  C_3 
REMARK    4  A    between atoms: C_13  and  N_7 
ROOT
ATOM      1  C   UNL d   1     -50.895  25.895  34.098  0.00  0.00     0.128 C 
ATOM      2  C   UNL d   1     -51.380  26.449  33.744  0.00  0.00     0.106 C 
ATOM      3  N   UNL d   1     -51.873  27.015  33.378  0.00  0.00    -0.191 NA
ENDROOT
BRANCH   1   4
ATOM      4  C   UNL d   1     -50.268  25.542  33.676  0.00  0.00     0.289 C 
ATOM      5  N   UNL d   1     -50.384  24.815  33.311  0.00  0.00    -0.207 NA
ATOM      6  O   UNL d   1     -49.542  25.930  33.633  0.00  0.00    -0.264 OA
BRANCH   5   7
ATOM      7  C   UNL d   1     -51.111  24.427  33.355  0.00  0.00     0.085 A 
ATOM      8  C   UNL d   1     -51.135  23.607  33.447  0.00  0.00     0.019 A 
ATOM      9  C   UNL d   1     -51.862  23.219  33.491  0.00  0.00     0.002 A 
ATOM     10  C   UNL d   1     -52.564  23.649  33.442  0.00  0.00     0.000 A 
ATOM     11  C   UNL d   1     -52.539  24.469  33.350  0.00  0.00     0.002 A 
ATOM     12  C   UNL d   1     -53.291  23.252  33.487  0.00  0.00     0.000 C 
ATOM     13  C   UNL d   1     -51.813  24.857  33.306  0.00  0.00     0.019 A 
ENDBRANCH   5   7
ENDBRANCH   1   4
BRANCH   1  14
ATOM     14  C   UNL d   1     -51.025  25.680  34.884  0.00  0.00     0.040 C 
BRANCH  14  15
ATOM     15  C   UNL d   1     -50.923  26.231  35.495  0.00  0.00     0.101 A 
ATOM     16  O   UNL d   1     -51.223  26.279  36.257  0.00  0.00    -0.307 OA
ATOM     17  C   UNL d   1     -50.915  26.964  36.602  0.00  0.00     0.100 A 
ATOM     18  C   UNL d   1     -51.073  27.235  37.379  0.00  0.00     0.027 C 
ATOM     19  C   UNL d   1     -50.432  27.335  36.063  0.00  0.00     0.027 A 
ATOM     20  C   UNL d   1     -50.434  26.881  35.370  0.00  0.00     0.027 A 
ENDBRANCH  14  15
ENDBRANCH   1  14
TORSDOF 4
ENDMDL
