MODEL 1
REMARK VINA RESULT:      -2.5      0.000      0.000
REMARK  6 active torsions:
REMARK  status: ('A' for Active; 'I' for Inactive)
REMARK    1  A    between atoms: N_2  and  S_1 
REMARK    2  A    between atoms: C_5  and  S_1 
REMARK    3  A    between atoms: C_4  and  C_3 
REMARK       I    between atoms: N_6  and  C_4 
REMARK    4  A    between atoms: C_15  and  N_6 
REMARK    5  A    between atoms: C_9  and  C_10 
REMARK    6  A    between atoms: O_20  and  C_9 
ROOT
ATOM      1  N   UNL d   1      60.299  -0.538  28.916  0.00  0.00    -0.226 N 
ATOM      2  C   UNL d   1      60.091   0.019  29.492  0.00  0.00     0.133 A 
ATOM      3  C   UNL d   1      60.905  -0.223  28.458  0.00  0.00     0.092 A 
ATOM      4  C   UNL d   1      60.575   0.681  29.383  0.00  0.00     0.025 A 
ATOM      5  C   UNL d   1      61.074   0.527  28.745  0.00  0.00     0.021 A 
ENDROOT
BRANCH   2   6
ATOM      6  C   UNL d   1      59.506  -0.072  30.069  0.00  0.00     0.296 C 
ATOM      7  N   UNL d   1      58.833   0.398  30.026  0.00  0.00    -0.207 NA
ATOM      8  O   UNL d   1      59.601  -0.623  30.670  0.00  0.00    -0.264 OA
BRANCH   7   9
ATOM      9  C   UNL d   1      58.245   0.308  30.604  0.00  0.00     0.085 A 
ATOM     10  C   UNL d   1      57.459   0.161  30.382  0.00  0.00     0.019 A 
ATOM     11  C   UNL d   1      56.878   0.072  30.955  0.00  0.00     0.007 A 
ATOM     12  C   UNL d   1      57.073   0.128  31.757  0.00  0.00     0.063 A 
ATOM     13  C   UNL d   1      57.859   0.275  31.981  0.00  0.00     0.007 A 
ATOM     14  C   UNL d   1      58.444   0.365  31.400  0.00  0.00     0.019 A 
BRANCH  12  15
ATOM     15  C   UNL d   1      56.495   0.040  32.332  0.00  0.00     0.296 C 
ATOM     16  O   UNL d   1      55.998   0.674  32.528  0.00  0.00    -0.259 OA
BRANCH  15  17
ATOM     17  O   UNL d   1      56.402  -0.687  32.723  0.00  0.00    -0.296 OA
ATOM     18  C   UNL d   1      55.870  -0.758  33.349  0.00  0.00     0.185 C 
ENDBRANCH  15  17
ENDBRANCH  12  15
ENDBRANCH   7   9
ENDBRANCH   2   6
BRANCH   1  19
ATOM     19  S   UNL d   1      59.918  -1.270  28.869  0.00  0.00     0.271 S 
ATOM     20  O   UNL d   1      60.566  -1.569  29.274  0.00  0.00    -0.200 OA
ATOM     21  O   UNL d   1      59.268  -0.958  28.460  0.00  0.00    -0.200 OA
BRANCH  19  22
ATOM     22  C   UNL d   1      59.581  -2.019  28.848  0.00  0.00     0.104 A 
ATOM     23  C   UNL d   1      58.855  -2.134  28.474  0.00  0.00     0.013 A 
ATOM     24  C   UNL d   1      58.520  -2.888  28.455  0.00  0.00     0.001 A 
ATOM     25  C   UNL d   1      58.908  -3.524  28.809  0.00  0.00     0.000 A 
ATOM     26  C   UNL d   1      59.635  -3.405  29.184  0.00  0.00     0.001 A 
ATOM     27  C   UNL d   1      58.572  -4.277  28.791  0.00  0.00     0.000 C 
ATOM     28  C   UNL d   1      59.977  -2.654  29.207  0.00  0.00     0.013 A 
ENDBRANCH  19  22
ENDBRANCH   1  19
TORSDOF 6
ENDMDL
