MODEL 1
REMARK VINA RESULT:      38.8      0.000      0.000
REMARK  5 active torsions:
REMARK  status: ('A' for Active; 'I' for Inactive)
REMARK    1  A    between atoms: C_4  and  C_1 
REMARK    2  A    between atoms: N_8  and  C_4 
REMARK    3  A    between atoms: C_11  and  N_8 
REMARK    4  A    between atoms: O_17  and  C_12 
REMARK    5  A    between atoms: C_20  and  O_17 
ROOT
ATOM      1  C   UNL d   1     -51.129  26.214  33.306  0.00  0.00     0.105 C 
ENDROOT
BRANCH   1   2
ATOM      2  C   UNL d   1     -51.546  25.488  33.316  0.00  0.00     0.096 A 
ATOM      3  C   UNL d   1     -51.137  24.776  33.316  0.00  0.00     0.196 A 
ATOM      4  C   UNL d   1     -51.560  24.063  33.326  0.00  0.00     0.019 A 
ATOM      5  O   UNL d   1     -50.301  24.765  33.306  0.00  0.00    -0.287 OA
ATOM      6  C   UNL d   1     -52.387  24.068  33.335  0.00  0.00     0.043 A 
ATOM      7  C   UNL d   1     -52.791  24.791  33.335  0.00  0.00     0.019 A 
ATOM      8  C   UNL d   1     -52.143  23.294  33.338  0.00  0.00     0.009 C 
ATOM      9  C   UNL d   1     -53.103  23.657  33.346  0.00  0.00     0.009 C 
ATOM     10  C   UNL d   1     -52.377  25.501  33.325  0.00  0.00     0.196 A 
ATOM     11  O   UNL d   1     -52.803  26.219  33.325  0.00  0.00    -0.287 OA
ENDBRANCH   1   2
BRANCH   1  12
ATOM     12  N   UNL d   1     -50.313  26.234  33.370  0.00  0.00    -0.244 NA
BRANCH  12  13
ATOM     13  C   UNL d   1     -49.952  26.859  33.762  0.00  0.00     0.082 A 
ATOM     14  C   UNL d   1     -49.411  26.696  34.362  0.00  0.00     0.021 A 
ATOM     15  C   UNL d   1     -49.048  27.329  34.755  0.00  0.00     0.026 A 
ATOM     16  C   UNL d   1     -49.221  28.111  34.556  0.00  0.00     0.100 A 
ATOM     17  C   UNL d   1     -49.766  28.260  33.952  0.00  0.00     0.026 A 
ATOM     18  C   UNL d   1     -50.129  27.636  33.557  0.00  0.00     0.021 A 
BRANCH  16  19
ATOM     19  O   UNL d   1     -48.849  28.755  34.959  0.00  0.00    -0.305 OA
BRANCH  19  20
ATOM     20  C   UNL d   1     -48.010  28.848  34.949  0.00  0.00     0.123 C 
ATOM     21  C   UNL d   1     -47.667  29.404  35.453  0.00  0.00     0.029 C 
ENDBRANCH  19  20
ENDBRANCH  16  19
ENDBRANCH  12  13
ENDBRANCH   1  12
TORSDOF 5
ENDMDL
MODEL 2
REMARK VINA RESULT:      41.0      0.543      1.278
REMARK  5 active torsions:
REMARK  status: ('A' for Active; 'I' for Inactive)
REMARK    1  A    between atoms: C_4  and  C_1 
REMARK    2  A    between atoms: N_8  and  C_4 
REMARK    3  A    between atoms: C_11  and  N_8 
REMARK    4  A    between atoms: O_17  and  C_12 
REMARK    5  A    between atoms: C_20  and  O_17 
ROOT
ATOM      1  C   UNL d   1     -50.413  26.214  33.336  0.00  0.00     0.105 C 
ENDROOT
BRANCH   1   2
ATOM      2  C   UNL d   1     -50.918  25.547  33.331  0.00  0.00     0.096 A 
ATOM      3  C   UNL d   1     -51.733  25.646  33.317  0.00  0.00     0.196 A 
ATOM      4  C   UNL d   1     -52.225  24.979  33.312  0.00  0.00     0.019 A 
ATOM      5  O   UNL d   1     -52.069  26.412  33.307  0.00  0.00    -0.287 OA
ATOM      6  C   UNL d   1     -51.898  24.218  33.323  0.00  0.00     0.043 A 
ATOM      7  C   UNL d   1     -51.075  24.128  33.337  0.00  0.00     0.019 A 
ATOM      8  C   UNL d   1     -52.706  24.142  33.309  0.00  0.00     0.009 C 
ATOM      9  C   UNL d   1     -51.997  23.399  33.326  0.00  0.00     0.009 C 
ATOM     10  C   UNL d   1     -50.583  24.786  33.342  0.00  0.00     0.196 A 
ATOM     11  O   UNL d   1     -49.756  24.675  33.357  0.00  0.00    -0.287 OA
ENDBRANCH   1   2
BRANCH   1  12
ATOM     12  N   UNL d   1     -50.699  26.962  33.507  0.00  0.00    -0.244 NA
BRANCH  12  13
ATOM     13  C   UNL d   1     -50.192  27.532  33.808  0.00  0.00     0.082 A 
ATOM     14  C   UNL d   1     -49.619  27.309  34.359  0.00  0.00     0.021 A 
ATOM     15  C   UNL d   1     -49.109  27.888  34.660  0.00  0.00     0.026 A 
ATOM     16  C   UNL d   1     -49.165  28.675  34.420  0.00  0.00     0.100 A 
ATOM     17  C   UNL d   1     -49.744  28.885  33.868  0.00  0.00     0.026 A 
ATOM     18  C   UNL d   1     -50.255  28.316  33.564  0.00  0.00     0.021 A 
BRANCH  16  19
ATOM     19  O   UNL d   1     -48.642  29.263  34.731  0.00  0.00    -0.305 OA
BRANCH  19  20
ATOM     20  C   UNL d   1     -48.073  29.070  35.323  0.00  0.00     0.123 C 
ATOM     21  C   UNL d   1     -47.432  29.577  35.437  0.00  0.00     0.029 C 
ENDBRANCH  19  20
ENDBRANCH  16  19
ENDBRANCH  12  13
ENDBRANCH   1  12
TORSDOF 5
ENDMDL
