MODEL 1
REMARK VINA RESULT:      -4.8      0.000      0.000
REMARK  2 active torsions:
REMARK  status: ('A' for Active; 'I' for Inactive)
REMARK    1  A    between atoms: C_2  and  C_1 
REMARK       I    between atoms: N_3  and  C_1 
REMARK    2  A    between atoms: C_5  and  N_4 
ROOT
ATOM      1  C   UNL d   1      58.416   0.024  29.447  0.00  0.00     0.267 C 
ATOM      2  N   UNL d   1      57.984   0.026  30.150  0.00  0.00    -0.269 N 
ATOM      3  N   UNL d   1      57.119   0.029  31.558  0.00  0.00    -0.301 N 
ATOM      4  O   UNL d   1      58.387   0.674  28.944  0.00  0.00    -0.267 OA
ATOM      5  C   UNL d   1      57.522   0.677  30.352  0.00  0.00     0.102 A 
ATOM      6  C   UNL d   1      58.012  -0.625  30.656  0.00  0.00     0.102 A 
ATOM      7  C   UNL d   1      57.580  -0.624  31.359  0.00  0.00     0.100 A 
ATOM      8  C   UNL d   1      57.090   0.678  31.055  0.00  0.00     0.100 A 
ENDROOT
BRANCH   1   9
ATOM      9  C   UNL d   1      58.877  -0.628  29.248  0.00  0.00     0.084 A 
ATOM     10  C   UNL d   1      59.700  -0.557  29.205  0.00  0.00     0.145 A 
ATOM     11  F   UNL d   1      60.060   0.168  29.362  0.00  0.00    -0.204 F 
ATOM     12  C   UNL d   1      60.162  -1.216  29.004  0.00  0.00     0.030 A 
ATOM     13  C   UNL d   1      59.802  -1.936  28.848  0.00  0.00     0.002 A 
ATOM     14  C   UNL d   1      58.979  -2.008  28.891  0.00  0.00     0.000 A 
ATOM     15  C   UNL d   1      58.518  -1.359  29.089  0.00  0.00     0.007 A 
ENDBRANCH   1   9
BRANCH   3  16
ATOM     16  C   UNL d   1      56.685   0.031  32.263  0.00  0.00     0.064 A 
ATOM     17  C   UNL d   1      57.009   0.356  32.943  0.00  0.00     0.016 A 
ATOM     18  C   UNL d   1      56.576   0.358  33.648  0.00  0.00     0.001 A 
ATOM     19  C   UNL d   1      57.766   0.682  32.926  0.00  0.00     0.002 C 
ATOM     20  C   UNL d   1      55.821   0.034  33.669  0.00  0.00     0.000 A 
ATOM     21  C   UNL d   1      55.496  -0.293  32.985  0.00  0.00     0.002 A 
ATOM     22  C   UNL d   1      55.389   0.035  34.371  0.00  0.00     0.000 C 
ATOM     23  C   UNL d   1      55.930  -0.294  32.281  0.00  0.00     0.018 A 
ENDBRANCH   3  16
TORSDOF 2
ENDMDL
