MODEL 1
REMARK VINA RESULT:      -2.6      0.000      0.000
REMARK  2 active torsions:
REMARK  status: ('A' for Active; 'I' for Inactive)
REMARK    1  A    between atoms: N_2  and  N_1 
REMARK    2  A    between atoms: N_8  and  C_10 
ROOT
ATOM      1  N   UNL d   1      57.997  -0.367  30.642  0.00  0.00    -0.171 N 
ATOM      2  C   UNL d   1      57.384  -0.703  31.065  0.00  0.00     0.283 A 
ATOM      3  C   UNL d   1      57.367  -0.336  31.817  0.00  0.00     0.085 A 
ATOM      4  C   UNL d   1      58.368   0.203  31.108  0.00  0.00     0.282 A 
ATOM      5  C   UNL d   1      57.982   0.230  31.844  0.00  0.00     0.064 A 
ATOM      6  C   UNL d   1      56.880  -0.442  32.471  0.00  0.00     0.131 A 
ATOM      7  O   UNL d   1      56.887  -1.297  30.776  0.00  0.00    -0.265 OA
ATOM      8  O   UNL d   1      59.026   0.674  30.869  0.00  0.00    -0.265 OA
ATOM      9  C   UNL d   1      58.098   0.680  32.525  0.00  0.00     0.005 A 
ATOM     10  C   UNL d   1      56.995   0.005  33.148  0.00  0.00     0.024 A 
ATOM     11  C   UNL d   1      57.596   0.559  33.175  0.00  0.00     0.002 A 
ENDROOT
BRANCH   1  12
ATOM     12  N   UNL d   1      58.277  -0.502  29.880  0.00  0.00    -0.189 N 
ATOM     13  C   UNL d   1      58.771  -1.062  29.550  0.00  0.00     0.169 A 
ATOM     14  S   UNL d   1      58.837  -0.897  28.748  0.00  0.00    -0.051 SA
ATOM     15  S   UNL d   1      59.154  -1.706  29.963  0.00  0.00    -0.050 SA
ATOM     16  C   UNL d   1      58.383  -0.233  28.579  0.00  0.00     0.100 A 
ATOM     17  C   UNL d   1      58.035   0.015  29.269  0.00  0.00     0.287 A 
ATOM     18  O   UNL d   1      57.537   0.662  29.344  0.00  0.00    -0.265 OA
ENDBRANCH   1  12
BRANCH   6  19
ATOM     19  N   UNL d   1      56.259  -1.014  32.444  0.00  0.00    -0.114 N 
ATOM     20  O   UNL d   1      56.438  -1.815  32.502  0.00  0.00    -0.532 OA
ATOM     21  O   UNL d   1      55.482  -0.770  32.360  0.00  0.00    -0.532 OA
ENDBRANCH   6  19
TORSDOF 2
ENDMDL
MODEL 2
REMARK VINA RESULT:      -1.4      2.074      3.653
REMARK  2 active torsions:
REMARK  status: ('A' for Active; 'I' for Inactive)
REMARK    1  A    between atoms: N_2  and  N_1 
REMARK    2  A    between atoms: N_8  and  C_10 
ROOT
ATOM      1  N   UNL d   1      58.962  -0.707  29.650  0.00  0.00    -0.171 N 
ATOM      2  C   UNL d   1      58.918  -1.516  29.548  0.00  0.00     0.283 A 
ATOM      3  C   UNL d   1      59.636  -1.765  29.200  0.00  0.00     0.085 A 
ATOM      4  C   UNL d   1      59.692  -0.438  29.375  0.00  0.00     0.282 A 
ATOM      5  C   UNL d   1      60.120  -1.092  29.092  0.00  0.00     0.064 A 
ATOM      6  C   UNL d   1      59.911  -2.506  28.970  0.00  0.00     0.131 A 
ATOM      7  O   UNL d   1      58.266  -1.979  29.761  0.00  0.00    -0.265 OA
ATOM      8  O   UNL d   1      59.949   0.365  29.384  0.00  0.00    -0.265 OA
ATOM      9  C   UNL d   1      60.869  -1.171  28.756  0.00  0.00     0.005 A 
ATOM     10  C   UNL d   1      60.654  -2.587  28.637  0.00  0.00     0.024 A 
ATOM     11  C   UNL d   1      61.127  -1.928  28.531  0.00  0.00     0.002 A 
ENDROOT
BRANCH   1  12
ATOM     12  N   UNL d   1      58.429  -0.162  29.962  0.00  0.00    -0.189 N 
ATOM     13  C   UNL d   1      58.318   0.159  30.705  0.00  0.00     0.169 A 
ATOM     14  S   UNL d   1      57.684   0.679  30.661  0.00  0.00    -0.051 SA
ATOM     15  S   UNL d   1      58.777  -0.015  31.405  0.00  0.00    -0.050 SA
ATOM     16  C   UNL d   1      57.401   0.682  29.889  0.00  0.00     0.100 A 
ATOM     17  C   UNL d   1      57.853   0.167  29.454  0.00  0.00     0.287 A 
ATOM     18  O   UNL d   1      57.754   0.007  28.656  0.00  0.00    -0.265 OA
ENDBRANCH   1  12
BRANCH   6  19
ATOM     19  N   UNL d   1      59.422  -3.186  29.080  0.00  0.00    -0.114 N 
ATOM     20  O   UNL d   1      58.959  -3.462  28.458  0.00  0.00    -0.532 OA
ATOM     21  O   UNL d   1      59.410  -3.569  29.804  0.00  0.00    -0.532 OA
ENDBRANCH   6  19
TORSDOF 2
ENDMDL
MODEL 3
REMARK VINA RESULT:      -1.3      1.973      3.418
REMARK  2 active torsions:
REMARK  status: ('A' for Active; 'I' for Inactive)
REMARK    1  A    between atoms: N_2  and  N_1 
REMARK    2  A    between atoms: N_8  and  C_10 
ROOT
ATOM      1  N   UNL d   1      56.825  -0.358  32.241  0.00  0.00    -0.171 N 
ATOM      2  C   UNL d   1      57.021  -0.549  31.471  0.00  0.00     0.283 A 
ATOM      3  C   UNL d   1      57.747  -0.172  31.295  0.00  0.00     0.085 A 
ATOM      4  C   UNL d   1      57.411   0.130  32.556  0.00  0.00     0.282 A 
ATOM      5  C   UNL d   1      57.991   0.252  31.973  0.00  0.00     0.064 A 
ATOM      6  C   UNL d   1      58.212  -0.160  30.617  0.00  0.00     0.131 A 
ATOM      7  O   UNL d   1      56.563  -1.030  30.979  0.00  0.00    -0.265 OA
ATOM      8  O   UNL d   1      57.411   0.447  33.338  0.00  0.00    -0.265 OA
ATOM      9  C   UNL d   1      58.695   0.681  31.961  0.00  0.00     0.005 A 
ATOM     10  C   UNL d   1      58.911   0.266  30.602  0.00  0.00     0.024 A 
ATOM     11  C   UNL d   1      59.150   0.681  31.266  0.00  0.00     0.002 A 
ENDROOT
BRANCH   1  12
ATOM     12  N   UNL d   1      56.182  -0.564  32.712  0.00  0.00    -0.189 N 
ATOM     13  C   UNL d   1      55.543  -0.151  33.008  0.00  0.00     0.169 A 
ATOM     14  S   UNL d   1      55.088  -0.675  33.447  0.00  0.00    -0.051 SA
ATOM     15  S   UNL d   1      55.375   0.679  32.885  0.00  0.00    -0.050 SA
ATOM     16  C   UNL d   1      55.445  -1.415  33.423  0.00  0.00     0.100 A 
ATOM     17  C   UNL d   1      56.118  -1.355  32.974  0.00  0.00     0.287 A 
ATOM     18  O   UNL d   1      56.636  -1.969  32.811  0.00  0.00    -0.265 OA
ENDBRANCH   1  12
BRANCH   6  19
ATOM     19  N   UNL d   1      57.966  -0.589  29.932  0.00  0.00    -0.114 N 
ATOM     20  O   UNL d   1      57.924  -1.410  29.956  0.00  0.00    -0.532 OA
ATOM     21  O   UNL d   1      57.769  -0.186  29.246  0.00  0.00    -0.532 OA
ENDBRANCH   6  19
TORSDOF 2
ENDMDL
MODEL 4
REMARK VINA RESULT:      -0.7      1.304      1.817
REMARK  2 active torsions:
REMARK  status: ('A' for Active; 'I' for Inactive)
REMARK    1  A    between atoms: N_2  and  N_1 
REMARK    2  A    between atoms: N_8  and  C_10 
ROOT
ATOM      1  N   UNL d   1      57.675  -0.289  31.264  0.00  0.00    -0.171 N 
ATOM      2  C   UNL d   1      57.604   0.028  32.013  0.00  0.00     0.283 A 
ATOM      3  C   UNL d   1      57.035  -0.426  32.426  0.00  0.00     0.085 A 
ATOM      4  C   UNL d   1      57.164  -0.933  31.193  0.00  0.00     0.282 A 
ATOM      5  C   UNL d   1      56.761  -1.026  31.913  0.00  0.00     0.064 A 
ATOM      6  C   UNL d   1      56.735  -0.372  33.190  0.00  0.00     0.131 A 
ATOM      7  O   UNL d   1      58.031   0.682  32.286  0.00  0.00    -0.265 OA
ATOM      8  O   UNL d   1      57.075  -1.410  30.502  0.00  0.00    -0.265 OA
ATOM      9  C   UNL d   1      56.191  -1.563  32.174  0.00  0.00     0.005 A 
ATOM     10  C   UNL d   1      56.170  -0.904  33.450  0.00  0.00     0.024 A 
ATOM     11  C   UNL d   1      55.901  -1.492  32.949  0.00  0.00     0.002 A 
ENDROOT
BRANCH   1  12
ATOM     12  N   UNL d   1      58.143  -0.079  30.620  0.00  0.00    -0.189 N 
ATOM     13  C   UNL d   1      58.916  -0.232  30.409  0.00  0.00     0.169 A 
ATOM     14  S   UNL d   1      59.059   0.139  29.689  0.00  0.00    -0.051 SA
ATOM     15  S   UNL d   1      59.481  -0.695  30.855  0.00  0.00    -0.050 SA
ATOM     16  C   UNL d   1      58.371   0.523  29.453  0.00  0.00     0.100 A 
ATOM     17  C   UNL d   1      57.804   0.394  30.019  0.00  0.00     0.287 A 
ATOM     18  O   UNL d   1      57.037   0.682  29.996  0.00  0.00    -0.265 OA
ENDBRANCH   1  12
BRANCH   6  19
ATOM     19  N   UNL d   1      57.013   0.235  33.707  0.00  0.00    -0.114 N 
ATOM     20  O   UNL d   1      57.821   0.375  33.778  0.00  0.00    -0.532 OA
ATOM     21  O   UNL d   1      56.477   0.682  34.138  0.00  0.00    -0.532 OA
ENDBRANCH   6  19
TORSDOF 2
ENDMDL
MODEL 5
REMARK VINA RESULT:      -0.5      1.714      2.501
REMARK  2 active torsions:
REMARK  status: ('A' for Active; 'I' for Inactive)
REMARK    1  A    between atoms: N_2  and  N_1 
REMARK    2  A    between atoms: N_8  and  C_10 
ROOT
ATOM      1  N   UNL d   1      58.904  -1.819  29.507  0.00  0.00    -0.171 N 
ATOM      2  C   UNL d   1      58.395  -1.730  30.140  0.00  0.00     0.283 A 
ATOM      3  C   UNL d   1      58.165  -0.926  30.167  0.00  0.00     0.085 A 
ATOM      4  C   UNL d   1      59.001  -1.091  29.133  0.00  0.00     0.282 A 
ATOM      5  C   UNL d   1      58.544  -0.527  29.537  0.00  0.00     0.064 A 
ATOM      6  C   UNL d   1      57.668  -0.511  30.673  0.00  0.00     0.131 A 
ATOM      7  O   UNL d   1      58.167  -2.343  30.646  0.00  0.00    -0.265 OA
ATOM      8  O   UNL d   1      59.484  -0.953  28.455  0.00  0.00    -0.265 OA
ATOM      9  C   UNL d   1      58.418   0.281  29.425  0.00  0.00     0.005 A 
ATOM     10  C   UNL d   1      57.542   0.291  30.564  0.00  0.00     0.024 A 
ATOM     11  C   UNL d   1      57.913   0.682  29.948  0.00  0.00     0.002 A 
ENDROOT
BRANCH   1  12
ATOM     12  N   UNL d   1      59.302  -2.476  29.211  0.00  0.00    -0.189 N 
ATOM     13  C   UNL d   1      60.065  -2.757  29.288  0.00  0.00     0.169 A 
ATOM     14  S   UNL d   1      60.123  -3.449  28.850  0.00  0.00    -0.051 SA
ATOM     15  S   UNL d   1      60.694  -2.396  29.742  0.00  0.00    -0.050 SA
ATOM     16  C   UNL d   1      59.394  -3.599  28.501  0.00  0.00     0.100 A 
ATOM     17  C   UNL d   1      58.885  -3.006  28.718  0.00  0.00     0.287 A 
ATOM     18  O   UNL d   1      58.100  -2.946  28.488  0.00  0.00    -0.265 OA
ENDBRANCH   1  12
BRANCH   6  19
ATOM     19  N   UNL d   1      57.286  -0.914  31.310  0.00  0.00    -0.114 N 
ATOM     20  O   UNL d   1      57.580  -0.843  32.075  0.00  0.00    -0.532 OA
ATOM     21  O   UNL d   1      56.624  -1.374  31.163  0.00  0.00    -0.532 OA
ENDBRANCH   6  19
TORSDOF 2
ENDMDL
MODEL 6
REMARK VINA RESULT:      -0.5      8.873      9.752
REMARK  2 active torsions:
REMARK  status: ('A' for Active; 'I' for Inactive)
REMARK    1  A    between atoms: N_2  and  N_1 
REMARK    2  A    between atoms: N_8  and  C_10 
ROOT
ATOM      1  N   UNL d   1      59.565  -8.903  34.248  0.00  0.00    -0.171 N 
ATOM      2  C   UNL d   1      59.024  -9.145  33.686  0.00  0.00     0.283 A 
ATOM      3  C   UNL d   1      59.452  -9.358  33.000  0.00  0.00     0.085 A 
ATOM      4  C   UNL d   1      60.326  -8.959  33.934  0.00  0.00     0.282 A 
ATOM      5  C   UNL d   1      60.266  -9.242  33.155  0.00  0.00     0.064 A 
ATOM      6  C   UNL d   1      59.213  -9.639  32.265  0.00  0.00     0.131 A 
ATOM      7  O   UNL d   1      58.206  -9.164  33.803  0.00  0.00    -0.265 OA
ATOM      8  O   UNL d   1      61.037  -8.760  34.342  0.00  0.00    -0.265 OA
ATOM      9  C   UNL d   1      60.825  -9.409  32.572  0.00  0.00     0.005 A 
ATOM     10  C   UNL d   1      59.766  -9.805  31.685  0.00  0.00     0.024 A 
ATOM     11  C   UNL d   1      60.562  -9.692  31.836  0.00  0.00     0.002 A 
ENDROOT
BRANCH   1  12
ATOM     12  N   UNL d   1      59.472  -8.634  35.021  0.00  0.00    -0.189 N 
ATOM     13  C   UNL d   1      59.532  -8.988  35.754  0.00  0.00     0.169 A 
ATOM     14  S   UNL d   1      59.373  -8.416  36.322  0.00  0.00    -0.051 SA
ATOM     15  S   UNL d   1      59.725  -9.807  35.907  0.00  0.00    -0.050 SA
ATOM     16  C   UNL d   1      59.214  -7.705  35.940  0.00  0.00     0.100 A 
ATOM     17  C   UNL d   1      59.273  -7.831  35.141  0.00  0.00     0.287 A 
ATOM     18  O   UNL d   1      59.156  -7.263  34.562  0.00  0.00    -0.265 OA
ENDBRANCH   1  12
BRANCH   6  19
ATOM     19  N   UNL d   1      58.391  -9.756  32.108  0.00  0.00    -0.114 N 
ATOM     20  O   UNL d   1      57.859  -9.808  32.734  0.00  0.00    -0.532 OA
ATOM     21  O   UNL d   1      58.126  -9.818  31.335  0.00  0.00    -0.532 OA
ENDBRANCH   6  19
TORSDOF 2
ENDMDL
MODEL 7
REMARK VINA RESULT:       0.2      2.247      3.538
REMARK  2 active torsions:
REMARK  status: ('A' for Active; 'I' for Inactive)
REMARK    1  A    between atoms: N_2  and  N_1 
REMARK    2  A    between atoms: N_8  and  C_10 
ROOT
ATOM      1  N   UNL d   1      59.096  -2.127  29.306  0.00  0.00    -0.171 N 
ATOM      2  C   UNL d   1      59.345  -1.366  29.145  0.00  0.00     0.283 A 
ATOM      3  C   UNL d   1      58.871  -0.845  29.596  0.00  0.00     0.085 A 
ATOM      4  C   UNL d   1      58.475  -2.100  29.849  0.00  0.00     0.282 A 
ATOM      5  C   UNL d   1      58.327  -1.304  30.036  0.00  0.00     0.064 A 
ATOM      6  C   UNL d   1      58.862  -0.026  29.664  0.00  0.00     0.131 A 
ATOM      7  O   UNL d   1      59.958  -1.176  28.624  0.00  0.00    -0.265 OA
ATOM      8  O   UNL d   1      58.068  -2.772  30.155  0.00  0.00    -0.265 OA
ATOM      9  C   UNL d   1      57.785  -0.935  30.536  0.00  0.00     0.005 A 
ATOM     10  C   UNL d   1      58.324   0.343  30.159  0.00  0.00     0.024 A 
ATOM     11  C   UNL d   1      57.792  -0.106  30.590  0.00  0.00     0.002 A 
ENDROOT
BRANCH   1  12
ATOM     12  N   UNL d   1      59.352  -2.859  29.029  0.00  0.00    -0.189 N 
ATOM     13  C   UNL d   1      58.980  -3.487  28.662  0.00  0.00     0.169 A 
ATOM     14  S   UNL d   1      59.545  -4.067  28.523  0.00  0.00    -0.051 SA
ATOM     15  S   UNL d   1      58.150  -3.534  28.458  0.00  0.00    -0.050 SA
ATOM     16  C   UNL d   1      60.269  -3.798  28.804  0.00  0.00     0.100 A 
ATOM     17  C   UNL d   1      60.159  -3.058  29.117  0.00  0.00     0.287 A 
ATOM     18  O   UNL d   1      60.744  -2.594  29.456  0.00  0.00    -0.265 OA
ENDBRANCH   1  12
BRANCH   6  19
ATOM     19  N   UNL d   1      59.411   0.438  29.219  0.00  0.00    -0.114 N 
ATOM     20  O   UNL d   1      60.130   0.653  29.555  0.00  0.00    -0.532 OA
ATOM     21  O   UNL d   1      59.225   0.671  28.456  0.00  0.00    -0.532 OA
ENDBRANCH   6  19
TORSDOF 2
ENDMDL
