MODEL 1
REMARK VINA RESULT:      40.4      0.000      0.000
REMARK  4 active torsions:
REMARK  status: ('A' for Active; 'I' for Inactive)
REMARK    1  A    between atoms: C_9  and  C_2 
REMARK    2  A    between atoms: N_11  and  C_9 
REMARK    3  A    between atoms: C_14  and  N_11 
REMARK    4  A    between atoms: C_17  and  C_14 
ROOT
ATOM      1  C   UNL d   1      13.697  14.470  -4.340  0.00  0.00     0.106 A 
ATOM      2  C   UNL d   1      13.260  13.346  -3.576  0.00  0.00     0.025 A 
ATOM      3  C   UNL d   1      13.597  14.096  -3.612  0.00  0.00     0.025 A 
ATOM      4  O   UNL d   1      13.460  14.095  -5.032  0.00  0.00    -0.273 OA
ATOM      5  C   UNL d   1      14.034  15.221  -4.374  0.00  0.00     0.062 A 
ATOM      6  C   UNL d   1      13.120  13.338  -5.002  0.00  0.00     0.300 A 
ATOM      7  C   UNL d   1      13.019  12.963  -4.274  0.00  0.00     0.070 A 
ATOM      8  C   UNL d   1      13.834  14.472  -2.918  0.00  0.00     0.005 A 
ATOM      9  C   UNL d   1      14.270  15.594  -3.677  0.00  0.00     0.198 A 
ATOM     10  O   UNL d   1      12.882  12.962  -5.704  0.00  0.00    -0.259 OA
ATOM     11  C   UNL d   1      14.171  15.222  -2.954  0.00  0.00     0.042 A 
ATOM     12  O   UNL d   1      14.609  16.348  -3.711  0.00  0.00    -0.286 OA
ATOM     13  C   UNL d   1      14.134  15.595  -5.103  0.00  0.00     0.005 C 
ENDROOT
BRANCH   2  14
ATOM     14  C   UNL d   1      13.160  12.975  -2.855  0.00  0.00     0.081 C 
BRANCH  14  15
ATOM     15  N   UNL d   1      13.421  12.193  -2.754  0.00  0.00    -0.301 N 
ATOM     16  C   UNL d   1      13.854  11.832  -3.357  0.00  0.00     0.100 C 
BRANCH  15  17
ATOM     17  C   UNL d   1      13.248  11.780  -2.059  0.00  0.00     0.080 C 
BRANCH  17  18
ATOM     18  C   UNL d   1      13.757  11.829  -1.414  0.00  0.00     0.018 A 
ATOM     19  C   UNL d   1      13.456  11.921  -0.669  0.00  0.00     0.002 A 
ATOM     20  C   UNL d   1      13.958  11.971  -0.015  0.00  0.00     0.000 A 
ATOM     21  C   UNL d   1      14.788  11.925  -0.125  0.00  0.00     0.000 A 
ATOM     22  C   UNL d   1      15.080  11.831  -0.894  0.00  0.00     0.000 A 
ATOM     23  C   UNL d   1      14.572  11.783  -1.531  0.00  0.00     0.002 A 
ENDBRANCH  17  18
ENDBRANCH  15  17
ENDBRANCH  14  15
ENDBRANCH   2  14
TORSDOF 4
ENDMDL
MODEL 2
REMARK VINA RESULT:      41.6      1.798      4.002
REMARK  4 active torsions:
REMARK  status: ('A' for Active; 'I' for Inactive)
REMARK    1  A    between atoms: C_9  and  C_2 
REMARK    2  A    between atoms: N_11  and  C_9 
REMARK    3  A    between atoms: C_14  and  N_11 
REMARK    4  A    between atoms: C_17  and  C_14 
ROOT
ATOM      1  C   UNL d   1      14.708  13.695  -1.271  0.00  0.00     0.106 A 
ATOM      2  C   UNL d   1      14.038  13.847  -2.523  0.00  0.00     0.025 A 
ATOM      3  C   UNL d   1      14.299  13.367  -1.908  0.00  0.00     0.025 A 
ATOM      4  O   UNL d   1      14.856  14.504  -1.250  0.00  0.00    -0.273 OA
ATOM      5  C   UNL d   1      14.969  13.213  -0.656  0.00  0.00     0.062 A 
ATOM      6  C   UNL d   1      14.595  14.993  -1.868  0.00  0.00     0.300 A 
ATOM      7  C   UNL d   1      14.186  14.664  -2.505  0.00  0.00     0.070 A 
ATOM      8  C   UNL d   1      14.150  12.556  -1.929  0.00  0.00     0.005 A 
ATOM      9  C   UNL d   1      14.818  12.403  -0.681  0.00  0.00     0.198 A 
ATOM     10  O   UNL d   1      14.747  15.809  -1.843  0.00  0.00    -0.259 OA
ATOM     11  C   UNL d   1      14.411  12.076  -1.314  0.00  0.00     0.042 A 
ATOM     12  O   UNL d   1      15.079  11.918  -0.064  0.00  0.00    -0.286 OA
ATOM     13  C   UNL d   1      15.378  13.542  -0.019  0.00  0.00     0.005 C 
ENDROOT
BRANCH   2  14
ATOM     14  C   UNL d   1      13.633  13.522  -3.154  0.00  0.00     0.081 C 
BRANCH  14  15
ATOM     15  N   UNL d   1      13.357  14.013  -3.763  0.00  0.00    -0.301 N 
ATOM     16  C   UNL d   1      13.595  14.803  -3.783  0.00  0.00     0.100 C 
BRANCH  15  17
ATOM     17  C   UNL d   1      12.849  13.714  -4.344  0.00  0.00     0.080 C 
BRANCH  17  18
ATOM     18  C   UNL d   1      13.117  13.142  -4.871  0.00  0.00     0.018 A 
ATOM     19  C   UNL d   1      12.951  12.362  -4.738  0.00  0.00     0.002 A 
ATOM     20  C   UNL d   1      13.215  11.779  -5.261  0.00  0.00     0.000 A 
ATOM     21  C   UNL d   1      13.661  12.000  -5.936  0.00  0.00     0.000 A 
ATOM     22  C   UNL d   1      13.824  12.803  -6.058  0.00  0.00     0.000 A 
ATOM     23  C   UNL d   1      13.555  13.367  -5.532  0.00  0.00     0.002 A 
ENDBRANCH  17  18
ENDBRANCH  15  17
ENDBRANCH  14  15
ENDBRANCH   2  14
TORSDOF 4
ENDMDL
MODEL 3
REMARK VINA RESULT:      42.3      2.295      3.920
REMARK  4 active torsions:
REMARK  status: ('A' for Active; 'I' for Inactive)
REMARK    1  A    between atoms: C_9  and  C_2 
REMARK    2  A    between atoms: N_11  and  C_9 
REMARK    3  A    between atoms: C_14  and  N_11 
REMARK    4  A    between atoms: C_17  and  C_14 
ROOT
ATOM      1  C   UNL d   1      13.713  12.303  -2.033  0.00  0.00     0.106 A 
ATOM      2  C   UNL d   1      14.641  12.792  -1.064  0.00  0.00     0.025 A 
ATOM      3  C   UNL d   1      14.413  12.698  -1.850  0.00  0.00     0.025 A 
ATOM      4  O   UNL d   1      13.240  12.002  -1.431  0.00  0.00    -0.273 OA
ATOM      5  C   UNL d   1      13.486  12.210  -2.819  0.00  0.00     0.062 A 
ATOM      6  C   UNL d   1      13.465  12.094  -0.637  0.00  0.00     0.300 A 
ATOM      7  C   UNL d   1      14.166  12.489  -0.454  0.00  0.00     0.070 A 
ATOM      8  C   UNL d   1      14.887  13.000  -2.452  0.00  0.00     0.005 A 
ATOM      9  C   UNL d   1      13.963  12.514  -3.420  0.00  0.00     0.198 A 
ATOM     10  O   UNL d   1      12.985  11.788  -0.032  0.00  0.00    -0.259 OA
ATOM     11  C   UNL d   1      14.660  12.906  -3.238  0.00  0.00     0.042 A 
ATOM     12  O   UNL d   1      13.736  12.421  -4.210  0.00  0.00    -0.286 OA
ATOM     13  C   UNL d   1      12.786  11.815  -3.003  0.00  0.00     0.005 C 
ENDROOT
BRANCH   2  14
ATOM     14  C   UNL d   1      15.335  13.183  -0.883  0.00  0.00     0.081 C 
BRANCH  14  15
ATOM     15  N   UNL d   1      15.309  13.978  -0.644  0.00  0.00    -0.301 N 
ATOM     16  C   UNL d   1      15.783  14.225  -0.014  0.00  0.00     0.100 C 
BRANCH  15  17
ATOM     17  C   UNL d   1      14.815  14.516  -1.032  0.00  0.00     0.080 C 
BRANCH  17  18
ATOM     18  C   UNL d   1      15.014  15.314  -1.058  0.00  0.00     0.018 A 
ATOM     19  C   UNL d   1      14.926  15.729  -1.745  0.00  0.00     0.002 A 
ATOM     20  C   UNL d   1      15.122  16.531  -1.782  0.00  0.00     0.000 A 
ATOM     21  C   UNL d   1      15.415  16.917  -1.098  0.00  0.00     0.000 A 
ATOM     22  C   UNL d   1      15.500  16.478  -0.401  0.00  0.00     0.000 A 
ATOM     23  C   UNL d   1      15.302  15.686  -0.380  0.00  0.00     0.002 A 
ENDBRANCH  17  18
ENDBRANCH  15  17
ENDBRANCH  14  15
ENDBRANCH   2  14
TORSDOF 4
ENDMDL
