MODEL 1
REMARK VINA RESULT:      47.5      0.000      0.000
REMARK  5 active torsions:
REMARK  status: ('A' for Active; 'I' for Inactive)
REMARK    1  A    between atoms: N_12  and  C_5 
REMARK    2  A    between atoms: C_17  and  N_12 
REMARK    3  A    between atoms: C_19  and  C_17 
REMARK    4  A    between atoms: C_18  and  C_20 
REMARK    5  A    between atoms: C_20  and  C_19 
ROOT
ATOM      1  C   UNL d   1     -57.845 -98.765 -44.815  0.00  0.00     0.159 A 
ATOM      2  N   UNL d   1     -57.910 -98.762 -43.993  0.00  0.00    -0.275 N 
ATOM      3  C   UNL d   1     -58.535 -98.765 -45.284  0.00  0.00     0.103 A 
ATOM      4  N   UNL d   1     -57.100 -98.768 -45.171  0.00  0.00    -0.226 NA
ATOM      5  C   UNL d   1     -58.664 -98.759 -43.634  0.00  0.00     0.149 A 
ATOM      6  C   UNL d   1     -59.280 -98.762 -44.928  0.00  0.00     0.016 A 
ATOM      7  C   UNL d   1     -59.344 -98.759 -44.105  0.00  0.00     0.038 A 
ATOM      8  C   UNL d   1     -56.479 -98.765 -43.881  0.00  0.00     0.084 A 
ATOM      9  C   UNL d   1     -56.415 -98.768 -44.703  0.00  0.00     0.099 A 
ATOM     10  C   UNL d   1     -58.471 -98.768 -46.106  0.00  0.00     0.104 C 
ATOM     11  N   UNL d   1     -58.406 -98.771 -46.928  0.00  0.00    -0.191 NA
ATOM     12  C   UNL d   1     -59.961 -98.762 -45.395  0.00  0.00     0.001 C 
ATOM     13  C   UNL d   1     -55.790 -98.766 -43.409  0.00  0.00     0.019 A 
ATOM     14  C   UNL d   1     -55.661 -98.771 -45.059  0.00  0.00     0.021 A 
ATOM     15  C   UNL d   1     -55.053 -98.769 -43.769  0.00  0.00     0.002 A 
ATOM     16  C   UNL d   1     -54.989 -98.771 -44.592  0.00  0.00     0.002 A 
ENDROOT
BRANCH   5  17
ATOM     17  N   UNL d   1     -58.728 -98.757 -42.811  0.00  0.00    -0.227 NA
BRANCH  17  18
ATOM     18  C   UNL d   1     -59.396 -99.080 -42.449  0.00  0.00     0.101 C 
BRANCH  18  19
ATOM     19  C   UNL d   1     -59.385 -99.862 -42.188  0.00  0.00     0.024 C 
BRANCH  19  20
ATOM     20  C   UNL d   1     -59.795-100.075 -41.503  0.00  0.00     0.047 C 
BRANCH  20  21
ATOM     21  C   UNL d   1     -59.489 -99.881 -40.762  0.00  0.00     0.234 C 
ATOM     22  O   UNL d   1     -59.642 -99.139 -40.434  0.00  0.00    -0.283 OA
ENDBRANCH  20  21
ENDBRANCH  19  20
ENDBRANCH  18  19
ENDBRANCH  17  18
ENDBRANCH   5  17
TORSDOF 5
ENDMDL
