MODEL 1
REMARK VINA RESULT:      79.8      0.000      0.000
REMARK  4 active torsions:
REMARK  status: ('A' for Active; 'I' for Inactive)
REMARK    1  A    between atoms: C_9  and  C_1 
REMARK    2  A    between atoms: C_8  and  C_6 
REMARK    3  A    between atoms: C_14  and  C_9 
REMARK    4  A    between atoms: C_15  and  C_10 
ROOT
ATOM      1  C   UNL d   1     -56.199 -99.846 -43.824  0.00  0.00     0.089 A 
ATOM      2  C   UNL d   1     -55.581-100.948 -43.396  0.00  0.00     0.048 A 
ATOM      3  C   UNL d   1     -55.829-100.531 -44.065  0.00  0.00     0.114 A 
ATOM      4  C   UNL d   1     -55.807-100.507 -42.736  0.00  0.00     0.112 A 
ATOM      5  S   UNL d   1     -56.190 -99.823 -43.005  0.00  0.00    -0.063 SA
ATOM      6  C   UNL d   1     -55.183-101.667 -43.299  0.00  0.00     0.076 A 
ATOM      7  N   UNL d   1     -55.631-100.789 -41.986  0.00  0.00    -0.239 NA
ATOM      8  C   UNL d   1     -55.240-101.496 -41.881  0.00  0.00     0.082 A 
ATOM      9  C   UNL d   1     -55.015-101.938 -42.542  0.00  0.00     0.023 A 
ATOM     10  N   UNL d   1     -55.713-100.780 -44.855  0.00  0.00    -0.147 N 
ENDROOT
BRANCH   1  11
ATOM     11  C   UNL d   1     -56.526 -99.276 -44.317  0.00  0.00     0.203 C 
ATOM     12  O   UNL d   1     -56.063 -98.880 -44.841  0.00  0.00    -0.286 OA
BRANCH  11  13
ATOM     13  C   UNL d   1     -57.337 -99.114 -44.267  0.00  0.00     0.040 A 
ATOM     14  C   UNL d   1     -57.694 -98.937 -43.548  0.00  0.00     0.003 A 
ATOM     15  C   UNL d   1     -58.490 -98.780 -43.508  0.00  0.00     0.000 A 
ATOM     16  C   UNL d   1     -58.955 -98.798 -44.206  0.00  0.00     0.000 A 
ATOM     17  C   UNL d   1     -58.608 -98.973 -44.920  0.00  0.00     0.000 A 
ATOM     18  C   UNL d   1     -57.802 -99.133 -44.965  0.00  0.00     0.003 A 
ENDBRANCH  11  13
ENDBRANCH   1  11
BRANCH   6  19
ATOM     19  C   UNL d   1     -54.959-102.108 -43.958  0.00  0.00     0.419 C 
ATOM     20  F   UNL d   1     -54.737-102.543 -44.608  0.00  0.00    -0.166 F 
ATOM     21  F   UNL d   1     -54.784-101.407 -44.367  0.00  0.00    -0.166 F 
ATOM     22  F   UNL d   1     -55.131-102.802 -43.553  0.00  0.00    -0.166 F 
ENDBRANCH   6  19
BRANCH   8  23
ATOM     23  C   UNL d   1     -55.064-101.779 -41.130  0.00  0.00     0.018 A 
ATOM     24  C   UNL d   1     -55.059-101.253 -40.490  0.00  0.00     0.002 A 
ATOM     25  C   UNL d   1     -54.885-101.515 -39.724  0.00  0.00     0.000 A 
ATOM     26  C   UNL d   1     -54.713-102.328 -39.608  0.00  0.00     0.000 A 
ATOM     27  C   UNL d   1     -54.717-102.855 -40.249  0.00  0.00     0.000 A 
ATOM     28  C   UNL d   1     -54.895-102.567 -41.003  0.00  0.00     0.002 A 
ENDBRANCH   8  23
TORSDOF 4
ENDMDL
