MODEL 1
REMARK VINA RESULT:      -5.3      0.000      0.000
REMARK  4 active torsions:
REMARK  status: ('A' for Active; 'I' for Inactive)
REMARK    1  A    between atoms: N_7  and  S_1 
REMARK    2  A    between atoms: C_8  and  S_1 
REMARK    3  A    between atoms: C_16  and  N_7 
REMARK    4  A    between atoms: C_15  and  C_16 
ROOT
ATOM      1  C   UNL d   1      57.930  -0.091  30.196  0.00  0.00     0.112 C 
ENDROOT
BRANCH   1   2
ATOM      2  C   UNL d   1      57.645   0.014  30.961  0.00  0.00     0.020 A 
ATOM      3  C   UNL d   1      57.007  -0.440  31.236  0.00  0.00     0.003 A 
ATOM      4  C   UNL d   1      56.726  -0.329  32.006  0.00  0.00     0.018 A 
ATOM      5  C   UNL d   1      56.113  -0.690  32.426  0.00  0.00     0.019 A 
ATOM      6  C   UNL d   1      57.075   0.230  32.503  0.00  0.00     0.064 A 
ATOM      7  C   UNL d   1      56.086  -0.355  33.176  0.00  0.00     0.064 A 
ATOM      8  C   UNL d   1      55.555  -0.556  33.774  0.00  0.00     0.019 C 
ATOM      9  N   UNL d   1      56.680   0.212  33.222  0.00  0.00    -0.304 N 
ATOM     10  C   UNL d   1      56.847   0.682  33.883  0.00  0.00     0.099 C 
ATOM     11  C   UNL d   1      57.708   0.682  32.235  0.00  0.00     0.018 A 
ATOM     12  C   UNL d   1      57.998   0.579  31.464  0.00  0.00     0.003 A 
ENDBRANCH   1   2
BRANCH   1  13
ATOM     13  N   UNL d   1      58.303  -0.795  29.984  0.00  0.00    -0.157 NA
BRANCH  13  14
ATOM     14  S   UNL d   1      58.655  -0.872  29.244  0.00  0.00     0.285 S 
ATOM     15  O   UNL d   1      58.900  -0.764  28.460  0.00  0.00    -0.198 OA
ATOM     16  O   UNL d   1      58.202  -0.177  29.195  0.00  0.00    -0.198 OA
BRANCH  14  17
ATOM     17  C   UNL d   1      59.151  -1.504  29.085  0.00  0.00     0.105 A 
ATOM     18  C   UNL d   1      59.961  -1.375  28.997  0.00  0.00     0.013 A 
ATOM     19  C   UNL d   1      60.465  -2.015  28.835  0.00  0.00     0.001 A 
ATOM     20  C   UNL d   1      60.154  -2.776  28.764  0.00  0.00     0.000 A 
ATOM     21  C   UNL d   1      59.335  -2.899  28.854  0.00  0.00     0.001 A 
ATOM     22  C   UNL d   1      60.651  -3.412  28.604  0.00  0.00     0.000 C 
ATOM     23  C   UNL d   1      58.843  -2.262  29.013  0.00  0.00     0.013 A 
ENDBRANCH  14  17
ENDBRANCH  13  14
ENDBRANCH   1  13
TORSDOF 4
ENDMDL
MODEL 2
REMARK VINA RESULT:      -4.7      1.107      4.881
REMARK  4 active torsions:
REMARK  status: ('A' for Active; 'I' for Inactive)
REMARK    1  A    between atoms: N_7  and  S_1 
REMARK    2  A    between atoms: C_8  and  S_1 
REMARK    3  A    between atoms: C_16  and  N_7 
REMARK    4  A    between atoms: C_15  and  C_16 
ROOT
ATOM      1  C   UNL d   1      58.454  -0.459  29.833  0.00  0.00     0.112 C 
ENDROOT
BRANCH   1   2
ATOM      2  C   UNL d   1      58.959  -1.043  29.546  0.00  0.00     0.020 A 
ATOM      3  C   UNL d   1      58.681  -1.818  29.436  0.00  0.00     0.003 A 
ATOM      4  C   UNL d   1      59.193  -2.400  29.147  0.00  0.00     0.018 A 
ATOM      5  C   UNL d   1      59.079  -3.202  28.983  0.00  0.00     0.019 A 
ATOM      6  C   UNL d   1      59.978  -2.216  28.968  0.00  0.00     0.064 A 
ATOM      7  C   UNL d   1      59.789  -3.508  28.706  0.00  0.00     0.064 A 
ATOM      8  C   UNL d   1      59.919  -4.290  28.477  0.00  0.00     0.019 C 
ATOM      9  N   UNL d   1      60.343  -2.899  28.697  0.00  0.00    -0.304 N 
ATOM     10  C   UNL d   1      61.131  -2.969  28.455  0.00  0.00     0.099 C 
ATOM     11  C   UNL d   1      60.257  -1.450  29.076  0.00  0.00     0.018 A 
ATOM     12  C   UNL d   1      59.752  -0.858  29.365  0.00  0.00     0.003 A 
ENDBRANCH   1   2
BRANCH   1  13
ATOM     13  N   UNL d   1      57.893  -0.640  30.408  0.00  0.00    -0.157 NA
BRANCH  13  14
ATOM     14  S   UNL d   1      57.462  -0.039  30.772  0.00  0.00     0.285 S 
ATOM     15  O   UNL d   1      57.087   0.675  30.957  0.00  0.00    -0.198 OA
ATOM     16  O   UNL d   1      57.729   0.291  30.057  0.00  0.00    -0.198 OA
BRANCH  14  17
ATOM     17  C   UNL d   1      57.110  -0.165  31.500  0.00  0.00     0.105 A 
ATOM     18  C   UNL d   1      56.630  -0.827  31.612  0.00  0.00     0.013 A 
ATOM     19  C   UNL d   1      56.272  -0.957  32.349  0.00  0.00     0.001 A 
ATOM     20  C   UNL d   1      56.396  -0.424  32.966  0.00  0.00     0.000 A 
ATOM     21  C   UNL d   1      56.882   0.243  32.847  0.00  0.00     0.001 A 
ATOM     22  C   UNL d   1      56.042  -0.549  33.699  0.00  0.00     0.000 C 
ATOM     23  C   UNL d   1      57.233   0.364  32.115  0.00  0.00     0.013 A 
ENDBRANCH  14  17
ENDBRANCH  13  14
ENDBRANCH   1  13
TORSDOF 4
ENDMDL
MODEL 3
REMARK VINA RESULT:      -3.8      1.649      5.078
REMARK  4 active torsions:
REMARK  status: ('A' for Active; 'I' for Inactive)
REMARK    1  A    between atoms: N_7  and  S_1 
REMARK    2  A    between atoms: C_8  and  S_1 
REMARK    3  A    between atoms: C_16  and  N_7 
REMARK    4  A    between atoms: C_15  and  C_16 
ROOT
ATOM      1  C   UNL d   1      57.106  -0.332  30.796  0.00  0.00     0.112 C 
ENDROOT
BRANCH   1   2
ATOM      2  C   UNL d   1      57.802  -0.209  30.373  0.00  0.00     0.020 A 
ATOM      3  C   UNL d   1      58.204  -0.852  30.034  0.00  0.00     0.003 A 
ATOM      4  C   UNL d   1      58.902  -0.722  29.611  0.00  0.00     0.018 A 
ATOM      5  C   UNL d   1      59.415  -1.239  29.219  0.00  0.00     0.019 A 
ATOM      6  C   UNL d   1      59.203   0.043  29.523  0.00  0.00     0.064 A 
ATOM      7  C   UNL d   1      60.024  -0.795  28.893  0.00  0.00     0.064 A 
ATOM      8  C   UNL d   1      60.656  -1.094  28.455  0.00  0.00     0.019 C 
ATOM      9  N   UNL d   1      59.893  -0.005  29.082  0.00  0.00    -0.304 N 
ATOM     10  C   UNL d   1      60.377   0.629  28.861  0.00  0.00     0.099 C 
ATOM     11  C   UNL d   1      58.808   0.682  29.858  0.00  0.00     0.018 A 
ATOM     12  C   UNL d   1      58.106   0.562  30.285  0.00  0.00     0.003 A 
ENDBRANCH   1   2
BRANCH   1  13
ATOM     13  N   UNL d   1      57.094  -0.235  31.614  0.00  0.00    -0.157 NA
BRANCH  13  14
ATOM     14  S   UNL d   1      56.556  -0.655  32.075  0.00  0.00     0.285 S 
ATOM     15  O   UNL d   1      56.047  -1.231  32.384  0.00  0.00    -0.198 OA
ATOM     16  O   UNL d   1      56.745  -1.165  31.445  0.00  0.00    -0.198 OA
BRANCH  14  17
ATOM     17  C   UNL d   1      56.243  -0.322  32.754  0.00  0.00     0.105 A 
ATOM     18  C   UNL d   1      55.455  -0.464  32.951  0.00  0.00     0.013 A 
ATOM     19  C   UNL d   1      55.135  -0.128  33.640  0.00  0.00     0.001 A 
ATOM     20  C   UNL d   1      55.607   0.346  34.123  0.00  0.00     0.000 A 
ATOM     21  C   UNL d   1      56.402   0.485  33.917  0.00  0.00     0.001 A 
ATOM     22  C   UNL d   1      55.294   0.682  34.807  0.00  0.00     0.000 C 
ATOM     23  C   UNL d   1      56.711   0.149  33.236  0.00  0.00     0.013 A 
ENDBRANCH  14  17
ENDBRANCH  13  14
ENDBRANCH   1  13
TORSDOF 4
ENDMDL
