MODEL 1
REMARK VINA RESULT:      -4.9      0.000      0.000
REMARK  4 active torsions:
REMARK  status: ('A' for Active; 'I' for Inactive)
REMARK    1  A    between atoms: C_3  and  C_1 
REMARK    2  A    between atoms: N_2  and  C_9 
REMARK    3  A    between atoms: N_6  and  C_3 
REMARK    4  A    between atoms: C_10  and  C_5 
ROOT
ATOM      1  C   UNL d   1     -41.450-122.935 -53.278  0.00  0.00     0.126 A 
ATOM      2  O   UNL d   1     -41.643-123.418 -52.629  0.00  0.00    -0.305 OA
ATOM      3  C   UNL d   1     -41.540-122.961 -51.953  0.00  0.00     0.100 A 
ATOM      4  C   UNL d   1     -41.242-122.222 -52.985  0.00  0.00     0.029 A 
ATOM      5  C   UNL d   1     -41.292-122.224 -52.185  0.00  0.00     0.027 A 
ENDROOT
BRANCH   3   6
ATOM      6  C   UNL d   1     -41.643-123.129 -51.147  0.00  0.00     0.024 A 
ATOM      7  C   UNL d   1     -42.291-122.791 -50.734  0.00  0.00     0.025 A 
ATOM      8  C   UNL d   1     -42.394-122.959 -49.928  0.00  0.00     0.127 A 
ATOM      9  C   UNL d   1     -41.859-123.458 -49.535  0.00  0.00     0.024 A 
ATOM     10  C   UNL d   1     -41.231-123.783 -49.947  0.00  0.00     0.002 A 
ATOM     11  C   UNL d   1     -41.127-123.616 -50.749  0.00  0.00     0.002 A 
BRANCH   8  12
ATOM     12  N   UNL d   1     -43.022-122.631 -49.527  0.00  0.00    -0.114 N 
ATOM     13  O   UNL d   1     -43.741-122.419 -49.890  0.00  0.00    -0.532 OA
ATOM     14  O   UNL d   1     -43.030-122.469 -48.728  0.00  0.00    -0.532 OA
ENDBRANCH   8  12
ENDBRANCH   3   6
BRANCH   1  15
ATOM     15  C   UNL d   1     -41.459-123.121 -54.093  0.00  0.00     0.143 C 
ATOM     16  S   UNL d   1     -41.131-123.813 -54.376  0.00  0.00    -0.057 SA
BRANCH  15  17
ATOM     17  N   UNL d   1     -41.803-122.604 -54.643  0.00  0.00    -0.290 N 
ATOM     18  C   UNL d   1     -41.315-122.229 -55.167  0.00  0.00     0.108 A 
ATOM     19  C   UNL d   1     -41.666-121.714 -55.714  0.00  0.00     0.142 A 
ATOM     20  O   UNL d   1     -42.451-121.596 -55.720  0.00  0.00    -0.300 OA
ATOM     21  C   UNL d   1     -42.943-121.955 -55.215  0.00  0.00     0.142 A 
ATOM     22  C   UNL d   1     -42.603-122.489 -54.643  0.00  0.00     0.108 A 
ENDBRANCH  15  17
ENDBRANCH   1  15
TORSDOF 4
ENDMDL
MODEL 2
REMARK VINA RESULT:      -3.4      1.486      2.174
REMARK  4 active torsions:
REMARK  status: ('A' for Active; 'I' for Inactive)
REMARK    1  A    between atoms: C_3  and  C_1 
REMARK    2  A    between atoms: N_2  and  C_9 
REMARK    3  A    between atoms: N_6  and  C_3 
REMARK    4  A    between atoms: C_10  and  C_5 
ROOT
ATOM      1  C   UNL d   1     -41.650-122.479 -51.525  0.00  0.00     0.126 A 
ATOM      2  O   UNL d   1     -42.287-122.469 -50.991  0.00  0.00    -0.305 OA
ATOM      3  C   UNL d   1     -42.111-123.011 -50.398  0.00  0.00     0.100 A 
ATOM      4  C   UNL d   1     -41.123-123.011 -51.248  0.00  0.00     0.029 A 
ATOM      5  C   UNL d   1     -41.389-123.339 -50.567  0.00  0.00     0.027 A 
ENDROOT
BRANCH   3   6
ATOM      6  C   UNL d   1     -42.524-123.246 -49.718  0.00  0.00     0.024 A 
ATOM      7  C   UNL d   1     -42.170-123.144 -48.964  0.00  0.00     0.025 A 
ATOM      8  C   UNL d   1     -42.584-123.380 -48.283  0.00  0.00     0.127 A 
ATOM      9  C   UNL d   1     -43.341-123.713 -48.352  0.00  0.00     0.024 A 
ATOM     10  C   UNL d   1     -43.677-123.808 -49.092  0.00  0.00     0.002 A 
ATOM     11  C   UNL d   1     -43.266-123.574 -49.769  0.00  0.00     0.002 A 
BRANCH   8  12
ATOM     12  N   UNL d   1     -42.242-123.281 -47.551  0.00  0.00    -0.114 N 
ATOM     13  O   UNL d   1     -42.536-122.762 -46.970  0.00  0.00    -0.532 OA
ATOM     14  O   UNL d   1     -41.575-123.672 -47.293  0.00  0.00    -0.532 OA
ENDBRANCH   8  12
ENDBRANCH   3   6
BRANCH   1  15
ATOM     15  C   UNL d   1     -41.544-122.036 -52.225  0.00  0.00     0.143 C 
ATOM     16  S   UNL d   1     -41.400-121.233 -52.204  0.00  0.00    -0.057 SA
BRANCH  15  17
ATOM     17  N   UNL d   1     -41.581-122.402 -52.969  0.00  0.00    -0.290 N 
ATOM     18  C   UNL d   1     -41.957-122.008 -53.567  0.00  0.00     0.108 A 
ATOM     19  C   UNL d   1     -41.991-122.380 -54.307  0.00  0.00     0.142 A 
ATOM     20  O   UNL d   1     -41.665-123.095 -54.422  0.00  0.00    -0.300 OA
ATOM     21  C   UNL d   1     -41.293-123.494 -53.848  0.00  0.00     0.142 A 
ATOM     22  C   UNL d   1     -41.246-123.130 -53.078  0.00  0.00     0.108 A 
ENDBRANCH  15  17
ENDBRANCH   1  15
TORSDOF 4
ENDMDL
