MODEL 1
REMARK VINA RESULT:      66.3      0.000      0.000
REMARK  3 active torsions:
REMARK  status: ('A' for Active; 'I' for Inactive)
REMARK    1  A    between atoms: N_6  and  C_1 
REMARK       I    between atoms: C_8  and  N_6 
REMARK       I    between atoms: C_11  and  N_7 
REMARK    2  A    between atoms: C_14  and  C_8 
REMARK    3  A    between atoms: O_23  and  C_20 
ROOT
ATOM      1  C   UNL d   1     -50.114  27.018  33.817  0.00  0.00     0.124 A 
ATOM      2  C   UNL d   1     -50.907  26.972  33.592  0.00  0.00     0.093 A 
ATOM      3  C   UNL d   1     -50.453  25.729  33.724  0.00  0.00     0.049 A 
ATOM      4  C   UNL d   1     -51.112  26.162  33.536  0.00  0.00     0.021 A 
ATOM      5  S   UNL d   1     -49.828  26.243  33.899  0.00  0.00    -0.066 SA
ATOM      6  N   UNL d   1     -51.194  24.514  33.517  0.00  0.00    -0.272 N 
ATOM      7  C   UNL d   1     -50.488  24.883  33.716  0.00  0.00     0.089 A 
ATOM      8  C   UNL d   1     -51.403  27.612  33.450  0.00  0.00     0.103 C 
ATOM      9  C   UNL d   1     -51.242  23.686  33.506  0.00  0.00     0.265 C 
ATOM     10  N   UNL d   1     -51.897  28.246  33.309  0.00  0.00    -0.191 NA
ATOM     11  C   UNL d   1     -51.830  25.796  33.334  0.00  0.00     0.020 A 
ATOM     12  C   UNL d   1     -51.863  24.968  33.327  0.00  0.00     0.083 A 
ATOM     13  O   UNL d   1     -50.579  23.236  33.694  0.00  0.00    -0.267 OA
ATOM     14  C   UNL d   1     -51.950  23.313  33.306  0.00  0.00     0.066 C 
ENDROOT
BRANCH   1  15
ATOM     15  N   UNL d   1     -49.675  27.715  33.939  0.00  0.00    -0.201 NA
ATOM     16  C   UNL d   1     -49.151  27.755  34.574  0.00  0.00     0.280 C 
ATOM     17  O   UNL d   1     -49.054  27.122  35.087  0.00  0.00    -0.265 OA
BRANCH  16  18
ATOM     18  C   UNL d   1     -48.717  28.443  34.695  0.00  0.00     0.058 A 
ATOM     19  C   UNL d   1     -48.066  28.439  35.184  0.00  0.00     0.007 A 
ATOM     20  C   UNL d   1     -47.627  29.135  35.306  0.00  0.00     0.024 A 
ATOM     21  C   UNL d   1     -47.857  29.827  34.930  0.00  0.00     0.094 A 
ATOM     22  C   UNL d   1     -48.513  29.836  34.436  0.00  0.00     0.024 A 
ATOM     23  C   UNL d   1     -48.947  29.147  34.315  0.00  0.00     0.007 A 
BRANCH  21  24
ATOM     24  O   UNL d   1     -47.416  30.527  35.053  0.00  0.00    -0.328 OA
ATOM     25  C   UNL d   1     -46.962  30.626  35.742  0.00  0.00     0.181 C 
ENDBRANCH  21  24
ENDBRANCH  16  18
ENDBRANCH   1  15
TORSDOF 3
ENDMDL
MODEL 2
REMARK VINA RESULT:      68.1      1.128      1.682
REMARK  3 active torsions:
REMARK  status: ('A' for Active; 'I' for Inactive)
REMARK    1  A    between atoms: N_6  and  C_1 
REMARK       I    between atoms: C_8  and  N_6 
REMARK       I    between atoms: C_11  and  N_7 
REMARK    2  A    between atoms: C_14  and  C_8 
REMARK    3  A    between atoms: O_23  and  C_20 
ROOT
ATOM      1  C   UNL d   1     -50.097  26.540  33.858  0.00  0.00     0.124 A 
ATOM      2  C   UNL d   1     -49.883  25.780  33.615  0.00  0.00     0.093 A 
ATOM      3  C   UNL d   1     -51.205  25.799  33.759  0.00  0.00     0.049 A 
ATOM      4  C   UNL d   1     -50.582  25.323  33.555  0.00  0.00     0.021 A 
ATOM      5  S   UNL d   1     -50.922  26.554  33.949  0.00  0.00    -0.066 SA
ATOM      6  N   UNL d   1     -52.112  24.705  33.536  0.00  0.00    -0.272 N 
ATOM      7  C   UNL d   1     -51.993  25.489  33.752  0.00  0.00     0.089 A 
ATOM      8  C   UNL d   1     -49.117  25.525  33.460  0.00  0.00     0.103 C 
ATOM      9  C   UNL d   1     -52.878  24.390  33.525  0.00  0.00     0.265 C 
ATOM     10  N   UNL d   1     -48.358  25.269  33.306  0.00  0.00    -0.191 NA
ATOM     11  C   UNL d   1     -50.695  24.529  33.336  0.00  0.00     0.020 A 
ATOM     12  C   UNL d   1     -51.465  24.227  33.329  0.00  0.00     0.083 A 
ATOM     13  O   UNL d   1     -53.519  24.864  33.730  0.00  0.00    -0.267 OA
ATOM     14  C   UNL d   1     -53.001  23.603  33.309  0.00  0.00     0.066 C 
ENDROOT
BRANCH   1  15
ATOM     15  N   UNL d   1     -49.582  27.180  33.990  0.00  0.00    -0.201 NA
ATOM     16  C   UNL d   1     -49.499  27.480  34.754  0.00  0.00     0.280 C 
ATOM     17  O   UNL d   1     -49.915  27.160  35.385  0.00  0.00    -0.265 OA
BRANCH  16  18
ATOM     18  C   UNL d   1     -48.989  28.112  34.884  0.00  0.00     0.058 A 
ATOM     19  C   UNL d   1     -48.953  28.729  34.352  0.00  0.00     0.007 A 
ATOM     20  C   UNL d   1     -48.438  29.367  34.484  0.00  0.00     0.024 A 
ATOM     21  C   UNL d   1     -47.966  29.373  35.156  0.00  0.00     0.094 A 
ATOM     22  C   UNL d   1     -48.000  28.754  35.695  0.00  0.00     0.024 A 
ATOM     23  C   UNL d   1     -48.509  28.121  35.564  0.00  0.00     0.007 A 
BRANCH  21  24
ATOM     24  O   UNL d   1     -47.448  30.016  35.288  0.00  0.00    -0.328 OA
ATOM     25  C   UNL d   1     -47.677  30.651  35.773  0.00  0.00     0.181 C 
ENDBRANCH  21  24
ENDBRANCH  16  18
ENDBRANCH   1  15
TORSDOF 3
ENDMDL
