MODEL 1
REMARK VINA RESULT:      83.6      0.000      0.000
REMARK  4 active torsions:
REMARK  status: ('A' for Active; 'I' for Inactive)
REMARK    1  A    between atoms: C_4  and  C_1 
REMARK    2  A    between atoms: C_12  and  N_2 
REMARK    3  A    between atoms: C_11  and  N_5 
REMARK    4  A    between atoms: C_14  and  C_12 
ROOT
ATOM      1  C   UNL d   1      58.890  49.354  50.339  0.00  0.00     0.149 A 
ATOM      2  N   UNL d   1      58.181  49.110  50.715  0.00  0.00    -0.289 N 
ATOM      3  N   UNL d   1      58.702  49.610  49.575  0.00  0.00    -0.227 NA
ATOM      4  C   UNL d   1      57.560  49.222  50.172  0.00  0.00     0.083 A 
ATOM      5  C   UNL d   1      57.875  49.529  49.470  0.00  0.00     0.099 A 
ATOM      6  C   UNL d   1      56.741  49.081  50.230  0.00  0.00     0.019 A 
ATOM      7  C   UNL d   1      57.387  49.696  48.829  0.00  0.00     0.021 A 
ATOM      8  C   UNL d   1      56.253  49.251  49.581  0.00  0.00     0.002 A 
ATOM      9  C   UNL d   1      56.575  49.557  48.883  0.00  0.00     0.002 A 
ENDROOT
BRANCH   1  10
ATOM     10  C   UNL d   1      59.641  49.337  50.678  0.00  0.00     0.057 A 
ATOM     11  C   UNL d   1      59.833  49.041  51.420  0.00  0.00     0.081 A 
ATOM     12  N   UNL d   1      60.649  49.139  51.529  0.00  0.00    -0.298 N 
ATOM     13  C   UNL d   1      60.958  49.495  50.854  0.00  0.00     0.261 A 
ATOM     14  C   UNL d   1      60.336  49.619  50.325  0.00  0.00     0.065 A 
ATOM     15  O   UNL d   1      61.745  49.692  50.727  0.00  0.00    -0.267 OA
BRANCH  12  16
ATOM     16  C   UNL d   1      61.077  48.917  52.200  0.00  0.00     0.071 C 
ATOM     17  C   UNL d   1      61.546  48.822  52.863  0.00  0.00     0.023 C 
ATOM     18  C   UNL d   1      61.560  49.463  52.576  0.00  0.00     0.023 C 
ATOM     19  C   UNL d   1      61.015  48.146  52.485  0.00  0.00     0.023 C 
ENDBRANCH  12  16
ENDBRANCH   1  10
BRANCH   2  20
ATOM     20  C   UNL d   1      58.113  48.817  51.477  0.00  0.00     0.082 C 
BRANCH  20  21
ATOM     21  C   UNL d   1      57.417  48.939  51.909  0.00  0.00     0.018 A 
ATOM     22  C   UNL d   1      57.202  48.399  52.496  0.00  0.00     0.002 A 
ATOM     23  C   UNL d   1      56.512  48.515  52.928  0.00  0.00     0.000 A 
ATOM     24  C   UNL d   1      56.037  49.170  52.773  0.00  0.00     0.000 A 
ATOM     25  C   UNL d   1      56.257  49.708  52.183  0.00  0.00     0.000 A 
ATOM     26  C   UNL d   1      56.943  49.588  51.758  0.00  0.00     0.002 A 
ENDBRANCH  20  21
ENDBRANCH   2  20
TORSDOF 4
ENDMDL
