MODEL 1
REMARK VINA RESULT:      -9.3      0.000      0.000
REMARK  4 active torsions:
REMARK  status: ('A' for Active; 'I' for Inactive)
REMARK    1  A    between atoms: C_11  and  C_1 
REMARK    2  A    between atoms: C_6  and  C_17 
REMARK       I    between atoms: N_10  and  C_6 
REMARK    3  A    between atoms: C_17  and  N_8 
REMARK    4  A    between atoms: C_15  and  N_10 
ROOT
ATOM      1  N   UNL d   1      51.451  34.046  52.529  0.00  0.00    -0.299 N 
ATOM      2  C   UNL d   1      49.982  34.766  52.654  0.00  0.00     0.039 A 
ATOM      3  C   UNL d   1      50.188  34.365  51.963  0.00  0.00     0.022 A 
ATOM      4  C   UNL d   1      50.505  34.811  53.282  0.00  0.00     0.022 A 
ATOM      5  C   UNL d   1      51.244  34.448  53.220  0.00  0.00     0.081 A 
ATOM      6  C   UNL d   1      50.917  34.007  51.902  0.00  0.00     0.081 A 
ENDROOT
BRANCH   1   7
ATOM      7  C   UNL d   1      52.192  33.683  52.467  0.00  0.00     0.144 C 
BRANCH   7   8
ATOM      8  C   UNL d   1      52.354  32.997  52.902  0.00  0.00     0.297 C 
ATOM      9  N   UNL d   1      52.839  32.435  52.582  0.00  0.00    -0.207 NA
ATOM     10  O   UNL d   1      52.029  32.890  53.641  0.00  0.00    -0.264 OA
BRANCH   9  11
ATOM     11  C   UNL d   1      53.009  31.746  53.007  0.00  0.00     0.087 A 
ATOM     12  C   UNL d   1      52.593  31.065  52.847  0.00  0.00     0.045 A 
ATOM     13  C   UNL d   1      52.762  30.378  53.272  0.00  0.00     0.121 A 
ATOM     14  O   UNL d   1      52.449  29.616  53.243  0.00  0.00    -0.299 OA
ATOM     15  C   UNL d   1      53.342  30.382  53.849  0.00  0.00     0.119 A 
ATOM     16  C   UNL d   1      52.836  29.153  53.802  0.00  0.00     0.304 A 
ATOM     17  O   UNL d   1      53.392  29.630  54.178  0.00  0.00    -0.300 OA
ATOM     18  C   UNL d   1      53.759  31.083  54.002  0.00  0.00     0.028 A 
ATOM     19  C   UNL d   1      53.588  31.763  53.579  0.00  0.00     0.021 A 
ENDBRANCH   9  11
ENDBRANCH   7   8
ENDBRANCH   1   7
BRANCH   2  20
ATOM     20  C   UNL d   1      49.242  35.129  52.716  0.00  0.00     0.163 A 
ATOM     21  N   UNL d   1      48.959  35.554  53.355  0.00  0.00    -0.225 NA
ATOM     22  C   UNL d   1      48.200  35.815  53.180  0.00  0.00     0.101 A 
ATOM     23  C   UNL d   1      47.657  36.261  53.613  0.00  0.00     0.021 A 
ATOM     24  C   UNL d   1      48.009  35.548  52.421  0.00  0.00     0.101 A 
ATOM     25  C   UNL d   1      46.925  36.440  53.288  0.00  0.00     0.002 A 
ATOM     26  C   UNL d   1      46.731  36.175  52.529  0.00  0.00     0.002 A 
ATOM     27  C   UNL d   1      47.269  35.731  52.096  0.00  0.00     0.021 A 
ATOM     28  N   UNL d   1      48.653  35.123  52.132  0.00  0.00    -0.225 NA
ENDBRANCH   2  20
TORSDOF 4
ENDMDL
MODEL 2
REMARK VINA RESULT:      -8.9      1.775      2.280
REMARK  4 active torsions:
REMARK  status: ('A' for Active; 'I' for Inactive)
REMARK    1  A    between atoms: C_11  and  C_1 
REMARK    2  A    between atoms: C_6  and  C_17 
REMARK       I    between atoms: N_10  and  C_6 
REMARK    3  A    between atoms: C_17  and  N_8 
REMARK    4  A    between atoms: C_15  and  N_10 
ROOT
ATOM      1  N   UNL d   1      51.177  33.506  52.572  0.00  0.00    -0.299 N 
ATOM      2  C   UNL d   1      49.853  34.475  52.584  0.00  0.00     0.039 A 
ATOM      3  C   UNL d   1      50.372  34.493  51.944  0.00  0.00     0.022 A 
ATOM      4  C   UNL d   1      49.991  33.976  53.219  0.00  0.00     0.022 A 
ATOM      5  C   UNL d   1      50.658  33.489  53.213  0.00  0.00     0.081 A 
ATOM      6  C   UNL d   1      51.029  34.013  51.937  0.00  0.00     0.081 A 
ENDROOT
BRANCH   1   7
ATOM      7  C   UNL d   1      51.845  33.018  52.566  0.00  0.00     0.144 C 
BRANCH   7   8
ATOM      8  C   UNL d   1      52.528  33.248  52.973  0.00  0.00     0.297 C 
ATOM      9  N   UNL d   1      52.928  32.697  53.412  0.00  0.00    -0.207 NA
ATOM     10  O   UNL d   1      52.795  34.016  52.934  0.00  0.00    -0.264 OA
BRANCH   9  11
ATOM     11  C   UNL d   1      53.611  32.915  53.823  0.00  0.00     0.087 A 
ATOM     12  C   UNL d   1      53.543  33.304  54.534  0.00  0.00     0.045 A 
ATOM     13  C   UNL d   1      54.226  33.521  54.945  0.00  0.00     0.121 A 
ATOM     14  O   UNL d   1      54.342  33.911  55.661  0.00  0.00    -0.299 OA
ATOM     15  C   UNL d   1      54.964  33.345  54.638  0.00  0.00     0.119 A 
ATOM     16  C   UNL d   1      55.152  33.975  55.795  0.00  0.00     0.304 A 
ATOM     17  O   UNL d   1      55.538  33.623  55.158  0.00  0.00    -0.300 OA
ATOM     18  C   UNL d   1      55.019  32.948  53.912  0.00  0.00     0.028 A 
ATOM     19  C   UNL d   1      54.340  32.735  53.508  0.00  0.00     0.021 A 
ENDBRANCH   9  11
ENDBRANCH   7   8
ENDBRANCH   1   7
BRANCH   2  20
ATOM     20  C   UNL d   1      49.185  34.963  52.591  0.00  0.00     0.163 A 
ATOM     21  N   UNL d   1      48.610  35.010  52.011  0.00  0.00    -0.225 NA
ATOM     22  C   UNL d   1      48.050  35.565  52.244  0.00  0.00     0.101 A 
ATOM     23  C   UNL d   1      47.359  35.835  51.882  0.00  0.00     0.021 A 
ATOM     24  C   UNL d   1      48.282  35.866  52.979  0.00  0.00     0.101 A 
ATOM     25  C   UNL d   1      46.900  36.405  52.255  0.00  0.00     0.002 A 
ATOM     26  C   UNL d   1      47.129  36.708  52.989  0.00  0.00     0.002 A 
ATOM     27  C   UNL d   1      47.816  36.441  53.351  0.00  0.00     0.021 A 
ATOM     28  N   UNL d   1      48.984  35.494  53.195  0.00  0.00    -0.225 NA
ENDBRANCH   2  20
TORSDOF 4
ENDMDL
