MODEL 1
REMARK VINA RESULT:     117.3      0.000      0.000
REMARK  3 active torsions:
REMARK  status: ('A' for Active; 'I' for Inactive)
REMARK    1  A    between atoms: C_8  and  C_1 
REMARK    2  A    between atoms: O_12  and  C_8 
REMARK    3  A    between atoms: C_21  and  O_12 
ROOT
ATOM      1  C   UNL d   1      60.008  49.546  52.519  0.00  0.00     0.084 A 
ATOM      2  C   UNL d   1      59.550  49.555  51.847  0.00  0.00     0.065 A 
ATOM      3  C   UNL d   1      58.718  49.606  52.087  0.00  0.00     0.107 A 
ATOM      4  N   UNL d   1      58.673  49.628  52.894  0.00  0.00    -0.302 N 
ATOM      5  C   UNL d   1      59.474  49.591  53.160  0.00  0.00     0.070 A 
ATOM      6  C   UNL d   1      59.765  49.525  51.054  0.00  0.00     0.197 A 
ATOM      7  C   UNL d   1      58.108  49.627  51.533  0.00  0.00     0.212 A 
ATOM      8  C   UNL d   1      59.162  49.545  50.508  0.00  0.00     0.042 A 
ATOM      9  C   UNL d   1      58.331  49.596  50.748  0.00  0.00     0.043 A 
ATOM     10  C   UNL d   1      58.005  49.677  53.429  0.00  0.00     0.080 A 
ATOM     11  C   UNL d   1      59.602  49.603  53.963  0.00  0.00     0.018 A 
ATOM     12  O   UNL d   1      60.582  49.474  50.818  0.00  0.00    -0.286 OA
ATOM     13  O   UNL d   1      57.290  49.677  51.764  0.00  0.00    -0.285 OA
ATOM     14  C   UNL d   1      58.136  49.689  54.225  0.00  0.00     0.019 A 
ATOM     15  C   UNL d   1      58.944  49.651  54.494  0.00  0.00     0.003 A 
ATOM     16  C   UNL d   1      59.383  49.514  49.714  0.00  0.00     0.003 A 
ATOM     17  C   UNL d   1      57.730  49.615  50.191  0.00  0.00     0.003 A 
ATOM     18  C   UNL d   1      58.774  49.534  49.164  0.00  0.00     0.000 A 
ATOM     19  C   UNL d   1      57.952  49.585  49.402  0.00  0.00     0.000 A 
ENDROOT
BRANCH   1  20
ATOM     20  C   UNL d   1      60.861  49.500  52.537  0.00  0.00     0.302 C 
ATOM     21  O   UNL d   1      61.284  49.697  51.875  0.00  0.00    -0.259 OA
BRANCH  20  22
ATOM     22  O   UNL d   1      61.279  49.258  53.213  0.00  0.00    -0.273 OA
BRANCH  22  23
ATOM     23  C   UNL d   1      61.419  48.427  53.393  0.00  0.00     0.103 C 
ATOM     24  C   UNL d   1      61.871  47.947  52.847  0.00  0.00     0.027 C 
ATOM     25  C   UNL d   1      61.110  48.084  54.109  0.00  0.00     0.027 C 
ENDBRANCH  22  23
ENDBRANCH  20  22
ENDBRANCH   1  20
TORSDOF 3
ENDMDL
MODEL 2
REMARK VINA RESULT:     117.8      2.663      4.344
REMARK  3 active torsions:
REMARK  status: ('A' for Active; 'I' for Inactive)
REMARK    1  A    between atoms: C_8  and  C_1 
REMARK    2  A    between atoms: O_12  and  C_8 
REMARK    3  A    between atoms: C_21  and  O_12 
ROOT
ATOM      1  C   UNL d   1      60.386  48.192  50.988  0.00  0.00     0.084 A 
ATOM      2  C   UNL d   1      60.591  47.412  50.885  0.00  0.00     0.065 A 
ATOM      3  C   UNL d   1      61.190  47.369  50.260  0.00  0.00     0.107 A 
ATOM      4  N   UNL d   1      61.347  48.113  49.988  0.00  0.00    -0.302 N 
ATOM      5  C   UNL d   1      60.848  48.623  50.441  0.00  0.00     0.070 A 
ATOM      6  C   UNL d   1      60.321  46.736  51.267  0.00  0.00     0.197 A 
ATOM      7  C   UNL d   1      61.515  46.650  50.021  0.00  0.00     0.212 A 
ATOM      8  C   UNL d   1      60.642  46.027  51.030  0.00  0.00     0.042 A 
ATOM      9  C   UNL d   1      61.242  45.984  50.405  0.00  0.00     0.043 A 
ATOM     10  C   UNL d   1      61.883  48.401  49.383  0.00  0.00     0.080 A 
ATOM     11  C   UNL d   1      60.887  49.420  50.285  0.00  0.00     0.018 A 
ATOM     12  O   UNL d   1      59.732  46.778  51.881  0.00  0.00    -0.286 OA
ATOM     13  O   UNL d   1      62.104  46.603  49.408  0.00  0.00    -0.285 OA
ATOM     14  C   UNL d   1      61.919  49.192  49.231  0.00  0.00     0.019 A 
ATOM     15  C   UNL d   1      61.415  49.707  49.687  0.00  0.00     0.003 A 
ATOM     16  C   UNL d   1      60.369  45.350  51.415  0.00  0.00     0.003 A 
ATOM     17  C   UNL d   1      61.560  45.265  50.173  0.00  0.00     0.003 A 
ATOM     18  C   UNL d   1      60.694  44.636  51.175  0.00  0.00     0.000 A 
ATOM     19  C   UNL d   1      61.287  44.594  50.558  0.00  0.00     0.000 A 
ENDROOT
BRANCH   1  20
ATOM     20  C   UNL d   1      59.813  48.485  51.550  0.00  0.00     0.302 C 
ATOM     21  O   UNL d   1      60.054  48.688  52.295  0.00  0.00    -0.259 OA
BRANCH  20  22
ATOM     22  O   UNL d   1      59.009  48.570  51.360  0.00  0.00    -0.273 OA
BRANCH  22  23
ATOM     23  C   UNL d   1      58.577  49.301  51.511  0.00  0.00     0.103 C 
ATOM     24  C   UNL d   1      58.677  49.705  52.259  0.00  0.00     0.027 C 
ATOM     25  C   UNL d   1      58.054  49.621  50.919  0.00  0.00     0.027 C 
ENDBRANCH  22  23
ENDBRANCH  20  22
ENDBRANCH   1  20
TORSDOF 3
ENDMDL
