MODEL 1
REMARK VINA RESULT:      -7.0      0.000      0.000
REMARK  3 active torsions:
REMARK  status: ('A' for Active; 'I' for Inactive)
REMARK    1  A    between atoms: N_3  and  S_1 
REMARK    2  A    between atoms: C_8  and  S_1 
REMARK    3  A    between atoms: C_2  and  N_3 
ROOT
ATOM      1  S   UNL d   1     -41.267-122.646 -52.651  0.00  0.00     0.287 S 
ATOM      2  O   UNL d   1     -41.409-123.449 -52.786  0.00  0.00    -0.198 OA
ATOM      3  O   UNL d   1     -41.125-121.844 -52.507  0.00  0.00    -0.198 OA
ENDROOT
BRANCH   1   4
ATOM      4  N   UNL d   1     -41.275-122.503 -53.465  0.00  0.00    -0.131 NA
BRANCH   4   5
ATOM      5  C   UNL d   1     -41.846-122.262 -54.011  0.00  0.00     0.219 A 
ATOM      6  C   UNL d   1     -41.777-122.304 -54.832  0.00  0.00     0.064 A 
ATOM      7  C   UNL d   1     -42.476-122.003 -55.160  0.00  0.00     0.112 A 
ATOM      8  C   UNL d   1     -41.125-122.594 -55.254  0.00  0.00     0.005 C 
ATOM      9  C   UNL d   1     -42.643-121.942 -55.968  0.00  0.00     0.023 C 
ATOM     10  N   UNL d   1     -42.973-121.778 -54.538  0.00  0.00    -0.125 NA
ATOM     11  O   UNL d   1     -42.583-121.938 -53.825  0.00  0.00    -0.191 OA
ENDBRANCH   4   5
ENDBRANCH   1   4
BRANCH   1  12
ATOM     12  C   UNL d   1     -41.260-122.789 -51.837  0.00  0.00     0.105 A 
ATOM     13  C   UNL d   1     -41.299-122.159 -51.306  0.00  0.00     0.015 A 
ATOM     14  C   UNL d   1     -41.292-122.300 -50.504  0.00  0.00     0.022 A 
ATOM     15  C   UNL d   1     -41.246-123.061 -50.218  0.00  0.00     0.103 A 
ATOM     16  C   UNL d   1     -41.206-123.692 -50.745  0.00  0.00     0.022 A 
ATOM     17  N   UNL d   1     -41.238-123.204 -49.405  0.00  0.00    -0.148 N 
ATOM     18  C   UNL d   1     -41.213-123.550 -51.552  0.00  0.00     0.015 A 
ENDBRANCH   1  12
TORSDOF 3
ENDMDL
MODEL 2
REMARK VINA RESULT:      -6.3      1.034      3.965
REMARK  3 active torsions:
REMARK  status: ('A' for Active; 'I' for Inactive)
REMARK    1  A    between atoms: N_3  and  S_1 
REMARK    2  A    between atoms: C_8  and  S_1 
REMARK    3  A    between atoms: C_2  and  N_3 
ROOT
ATOM      1  S   UNL d   1     -41.499-122.621 -52.774  0.00  0.00     0.287 S 
ATOM      2  O   UNL d   1     -41.798-123.382 -52.891  0.00  0.00    -0.198 OA
ATOM      3  O   UNL d   1     -41.201-121.857 -52.667  0.00  0.00    -0.198 OA
ENDROOT
BRANCH   1   4
ATOM      4  N   UNL d   1     -41.363-122.791 -51.977  0.00  0.00    -0.131 NA
BRANCH   4   5
ATOM      5  C   UNL d   1     -41.796-122.705 -51.279  0.00  0.00     0.219 A 
ATOM      6  C   UNL d   1     -41.685-123.140 -50.586  0.00  0.00     0.064 A 
ATOM      7  C   UNL d   1     -42.238-122.872 -50.030  0.00  0.00     0.112 A 
ATOM      8  C   UNL d   1     -41.123-123.737 -50.467  0.00  0.00     0.005 C 
ATOM      9  C   UNL d   1     -42.322-123.158 -49.257  0.00  0.00     0.023 C 
ATOM     10  N   UNL d   1     -42.686-122.274 -50.382  0.00  0.00    -0.125 NA
ATOM     11  O   UNL d   1     -42.413-122.169 -51.158  0.00  0.00    -0.191 OA
ENDBRANCH   4   5
ENDBRANCH   1   4
BRANCH   1  12
ATOM     12  C   UNL d   1     -41.635-122.451 -53.572  0.00  0.00     0.105 A 
ATOM     13  C   UNL d   1     -41.253-122.887 -54.158  0.00  0.00     0.015 A 
ATOM     14  C   UNL d   1     -41.387-122.719 -54.945  0.00  0.00     0.022 A 
ATOM     15  C   UNL d   1     -41.898-122.122 -55.158  0.00  0.00     0.103 A 
ATOM     16  C   UNL d   1     -42.281-121.686 -54.575  0.00  0.00     0.022 A 
ATOM     17  N   UNL d   1     -42.034-121.953 -55.955  0.00  0.00    -0.148 N 
ATOM     18  C   UNL d   1     -42.146-121.854 -53.785  0.00  0.00     0.015 A 
ENDBRANCH   1  12
TORSDOF 3
ENDMDL
MODEL 3
REMARK VINA RESULT:      -5.5      1.466      4.177
REMARK  3 active torsions:
REMARK  status: ('A' for Active; 'I' for Inactive)
REMARK    1  A    between atoms: N_3  and  S_1 
REMARK    2  A    between atoms: C_8  and  S_1 
REMARK    3  A    between atoms: C_2  and  N_3 
ROOT
ATOM      1  S   UNL d   1     -41.333-122.998 -51.649  0.00  0.00     0.287 S 
ATOM      2  O   UNL d   1     -41.487-122.186 -51.631  0.00  0.00    -0.198 OA
ATOM      3  O   UNL d   1     -41.178-123.809 -51.678  0.00  0.00    -0.198 OA
ENDROOT
BRANCH   1   4
ATOM      4  N   UNL d   1     -41.359-123.026 -50.824  0.00  0.00    -0.131 NA
BRANCH   4   5
ATOM      5  C   UNL d   1     -41.960-123.076 -50.259  0.00  0.00     0.219 A 
ATOM      6  C   UNL d   1     -41.852-123.164 -49.446  0.00  0.00     0.064 A 
ATOM      7  C   UNL d   1     -42.602-123.189 -49.094  0.00  0.00     0.112 A 
ATOM      8  C   UNL d   1     -41.125-123.218 -49.052  0.00  0.00     0.005 C 
ATOM      9  C   UNL d   1     -42.752-123.272 -48.284  0.00  0.00     0.023 C 
ATOM     10  N   UNL d   1     -43.168-123.116 -49.692  0.00  0.00    -0.125 NA
ATOM     11  O   UNL d   1     -42.771-123.046 -50.416  0.00  0.00    -0.191 OA
ENDBRANCH   4   5
ENDBRANCH   1   4
BRANCH   1  12
ATOM     12  C   UNL d   1     -41.307-122.969 -52.475  0.00  0.00     0.105 A 
ATOM     13  C   UNL d   1     -41.186-123.660 -52.909  0.00  0.00     0.015 A 
ATOM     14  C   UNL d   1     -41.160-123.632 -53.723  0.00  0.00     0.022 A 
ATOM     15  C   UNL d   1     -41.253-122.925 -54.115  0.00  0.00     0.103 A 
ATOM     16  C   UNL d   1     -41.373-122.234 -53.685  0.00  0.00     0.022 A 
ATOM     17  N   UNL d   1     -41.226-122.896 -54.940  0.00  0.00    -0.148 N 
ATOM     18  C   UNL d   1     -41.399-122.262 -52.867  0.00  0.00     0.015 A 
ENDBRANCH   1  12
TORSDOF 3
ENDMDL
MODEL 4
REMARK VINA RESULT:      -5.3      1.629      2.293
REMARK  3 active torsions:
REMARK  status: ('A' for Active; 'I' for Inactive)
REMARK    1  A    between atoms: N_3  and  S_1 
REMARK    2  A    between atoms: C_8  and  S_1 
REMARK    3  A    between atoms: C_2  and  N_3 
ROOT
ATOM      1  S   UNL d   1     -41.845-122.630 -50.714  0.00  0.00     0.287 S 
ATOM      2  O   UNL d   1     -42.569-122.239 -50.790  0.00  0.00    -0.198 OA
ATOM      3  O   UNL d   1     -41.123-123.023 -50.627  0.00  0.00    -0.198 OA
ENDROOT
BRANCH   1   4
ATOM      4  N   UNL d   1     -41.644-122.421 -51.487  0.00  0.00    -0.131 NA
BRANCH   4   5
ATOM      5  C   UNL d   1     -41.599-122.822 -52.208  0.00  0.00     0.219 A 
ATOM      6  C   UNL d   1     -41.359-122.496 -52.927  0.00  0.00     0.064 A 
ATOM      7  C   UNL d   1     -41.397-123.094 -53.500  0.00  0.00     0.112 A 
ATOM      8  C   UNL d   1     -41.123-121.712 -53.055  0.00  0.00     0.005 C 
ATOM      9  C   UNL d   1     -41.205-123.009 -54.301  0.00  0.00     0.023 C 
ATOM     10  N   UNL d   1     -41.660-123.785 -53.131  0.00  0.00    -0.125 NA
ATOM     11  O   UNL d   1     -41.786-123.618 -52.329  0.00  0.00    -0.191 OA
ENDBRANCH   4   5
ENDBRANCH   1   4
BRANCH   1  12
ATOM     12  C   UNL d   1     -42.046-122.839 -49.939  0.00  0.00     0.105 A 
ATOM     13  C   UNL d   1     -41.471-123.143 -49.431  0.00  0.00     0.015 A 
ATOM     14  C   UNL d   1     -41.669-123.349 -48.668  0.00  0.00     0.022 A 
ATOM     15  C   UNL d   1     -42.432-123.258 -48.400  0.00  0.00     0.103 A 
ATOM     16  C   UNL d   1     -43.007-122.955 -48.904  0.00  0.00     0.022 A 
ATOM     17  N   UNL d   1     -42.632-123.467 -47.627  0.00  0.00    -0.148 N 
ATOM     18  C   UNL d   1     -42.808-122.748 -49.671  0.00  0.00     0.015 A 
ENDBRANCH   1  12
TORSDOF 3
ENDMDL
