MODEL 1
REMARK VINA RESULT:       1.3      0.000      0.000
REMARK  9 active torsions:
REMARK  status: ('A' for Active; 'I' for Inactive)
REMARK    1  A    between atoms: C_21  and  N_1 
REMARK    2  A    between atoms: S_17  and  C_3 
REMARK    3  A    between atoms: C_16  and  C_32 
REMARK       I    between atoms: N_19  and  C_16 
REMARK    4  A    between atoms: C_29  and  S_17 
REMARK    5  A    between atoms: C_22  and  N_19 
REMARK    6  A    between atoms: C_31  and  C_21 
REMARK    7  A    between atoms: C_23  and  C_22 
REMARK    8  A    between atoms: O_30  and  C_24 
REMARK    9  A    between atoms: C_32  and  C_31 
ROOT
ATOM      1  N   UNL d   1      32.914  15.473 -24.989  0.00  0.00    -0.195 NA
ATOM      2  C   UNL d   1      33.060  16.266 -24.829  0.00  0.00     0.086 C 
ATOM      3  C   UNL d   1      33.219  17.060 -24.656  0.00  0.00     0.170 C 
ENDROOT
BRANCH   3   4
ATOM      4  S   UNL d   1      32.837  17.654 -25.080  0.00  0.00    -0.060 SA
BRANCH   4   5
ATOM      5  C   UNL d   1      32.023  17.828 -24.924  0.00  0.00     0.178 A 
ATOM      6  N   UNL d   1      31.776  18.601 -24.932  0.00  0.00    -0.253 N 
ATOM      7  C   UNL d   1      30.982  18.782 -24.781  0.00  0.00     0.268 A 
ATOM      8  C   UNL d   1      30.433  18.176 -24.620  0.00  0.00     0.076 A 
ATOM      9  O   UNL d   1      30.731  19.566 -24.790  0.00  0.00    -0.267 OA
ATOM     10  C   UNL d   1      29.641  18.358 -24.470  0.00  0.00     0.033 A 
ATOM     11  C   UNL d   1      30.679  17.403 -24.612  0.00  0.00     0.090 A 
ATOM     12  C   UNL d   1      29.081  17.749 -24.306  0.00  0.00     0.119 A 
ATOM     13  O   UNL d   1      28.253  17.748 -24.134  0.00  0.00    -0.300 OA
ATOM     14  C   UNL d   1      29.332  16.976 -24.299  0.00  0.00     0.121 A 
ATOM     15  C   UNL d   1      27.990  16.971 -24.019  0.00  0.00     0.304 A 
ATOM     16  O   UNL d   1      28.660  16.502 -24.122  0.00  0.00    -0.299 OA
ATOM     17  C   UNL d   1      30.130  16.798 -24.451  0.00  0.00     0.046 A 
ATOM     18  N   UNL d   1      31.478  17.224 -24.764  0.00  0.00    -0.222 NA
BRANCH   6  19
ATOM     19  C   UNL d   1      32.341  19.212 -25.097  0.00  0.00     0.085 C 
BRANCH  19  20
ATOM     20  C   UNL d   1      32.541  19.743 -24.501  0.00  0.00     0.024 C 
BRANCH  20  21
ATOM     21  C   UNL d   1      33.230  20.192 -24.580  0.00  0.00     0.064 C 
BRANCH  21  22
ATOM     22  C   UNL d   1      33.207  21.005 -24.447  0.00  0.00     0.279 C 
ATOM     23  N   UNL d   1      33.190  21.293 -23.676  0.00  0.00    -0.206 NA
ATOM     24  O   UNL d   1      33.200  21.530 -25.087  0.00  0.00    -0.265 OA
BRANCH  23  25
ATOM     25  C   UNL d   1      33.197  20.770 -23.043  0.00  0.00     0.102 C 
BRANCH  25  26
ATOM     26  C   UNL d   1      32.977  21.042 -22.287  0.00  0.00     0.019 A 
ATOM     27  C   UNL d   1      32.881  21.836 -22.151  0.00  0.00     0.004 A 
ATOM     28  C   UNL d   1      32.665  22.097 -21.405  0.00  0.00     0.024 A 
ATOM     29  C   UNL d   1      32.544  21.563 -20.791  0.00  0.00     0.094 A 
ATOM     30  C   UNL d   1      32.643  20.758 -20.933  0.00  0.00     0.024 A 
ATOM     31  C   UNL d   1      32.863  20.486 -21.689  0.00  0.00     0.004 A 
BRANCH  29  32
ATOM     32  O   UNL d   1      32.327  21.824 -20.041  0.00  0.00    -0.328 OA
ATOM     33  C   UNL d   1      32.603  22.557 -19.785  0.00  0.00     0.181 C 
ENDBRANCH  29  32
ENDBRANCH  25  26
ENDBRANCH  23  25
ENDBRANCH  21  22
ENDBRANCH  20  21
ENDBRANCH  19  20
ENDBRANCH   6  19
ENDBRANCH   4   5
ENDBRANCH   3   4
TORSDOF 9
ENDMDL
