MODEL 1
REMARK VINA RESULT:      60.0      0.000      0.000
REMARK  7 active torsions:
REMARK  status: ('A' for Active; 'I' for Inactive)
REMARK    1  A    between atoms: N_4  and  C_1 
REMARK       I    between atoms: C_3  and  N_4 
REMARK    2  A    between atoms: C_8  and  C_3 
REMARK    3  A    between atoms: S_10  and  C_5 
REMARK    4  A    between atoms: C_9  and  C_15 
REMARK       I    between atoms: N_12  and  C_9 
REMARK    5  A    between atoms: C_15  and  S_10 
REMARK    6  A    between atoms: C_17  and  N_12 
REMARK    7  A    between atoms: O_18  and  C_13 
ROOT
ATOM      1  C   UNL d   1     -47.666  30.036  35.055  0.00  0.00     0.219 A 
ATOM      2  S   UNL d   1     -48.091  29.416  34.718  0.00  0.00    -0.019 SA
ATOM      3  C   UNL d   1     -48.194  28.828  35.283  0.00  0.00     0.165 A 
ATOM      4  N   UNL d   1     -47.504  29.828  35.841  0.00  0.00    -0.120 NA
ATOM      5  N   UNL d   1     -47.829  29.082  35.982  0.00  0.00    -0.133 NA
ENDROOT
BRANCH   1   6
ATOM      6  N   UNL d   1     -47.443  30.739  34.675  0.00  0.00    -0.181 NA
ATOM      7  C   UNL d   1     -47.963  31.385  34.679  0.00  0.00     0.283 C 
ATOM      8  O   UNL d   1     -48.691  31.329  35.057  0.00  0.00    -0.265 OA
BRANCH   7   9
ATOM      9  C   UNL d   1     -47.744  32.088  34.301  0.00  0.00     0.080 A 
ATOM     10  C   UNL d   1     -48.314  32.560  33.966  0.00  0.00     0.099 A 
ATOM     11  C   UNL d   1     -48.099  33.265  33.585  0.00  0.00     0.024 A 
ATOM     12  C   UNL d   1     -47.311  33.481  33.549  0.00  0.00     0.002 A 
ATOM     13  C   UNL d   1     -46.731  32.996  33.892  0.00  0.00     0.000 A 
ATOM     14  C   UNL d   1     -46.955  32.299  34.267  0.00  0.00     0.007 A 
BRANCH  10  15
ATOM     15  O   UNL d   1     -49.115  32.346  33.999  0.00  0.00    -0.328 OA
ATOM     16  C   UNL d   1     -49.695  32.907  34.148  0.00  0.00     0.181 C 
ENDBRANCH  10  15
ENDBRANCH   7   9
ENDBRANCH   1   6
BRANCH   3  17
ATOM     17  S   UNL d   1     -48.591  28.113  35.169  0.00  0.00    -0.054 SA
BRANCH  17  18
ATOM     18  C   UNL d   1     -48.860  27.912  34.408  0.00  0.00     0.100 C 
BRANCH  18  19
ATOM     19  C   UNL d   1     -49.511  27.416  34.321  0.00  0.00     0.286 C 
ATOM     20  N   UNL d   1     -49.754  27.179  33.566  0.00  0.00    -0.208 NA
ATOM     21  O   UNL d   1     -49.931  27.148  34.986  0.00  0.00    -0.265 OA
BRANCH  20  22
ATOM     22  C   UNL d   1     -50.399  26.688  33.468  0.00  0.00     0.085 A 
ATOM     23  C   UNL d   1     -51.193  26.924  33.395  0.00  0.00     0.019 A 
ATOM     24  C   UNL d   1     -51.653  26.249  33.307  0.00  0.00     0.002 A 
ATOM     25  C   UNL d   1     -51.153  25.587  33.325  0.00  0.00     0.002 A 
ATOM     26  C   UNL d   1     -50.378  25.865  33.425  0.00  0.00     0.019 A 
ENDBRANCH  20  22
ENDBRANCH  18  19
ENDBRANCH  17  18
ENDBRANCH   3  17
TORSDOF 7
ENDMDL
MODEL 2
REMARK VINA RESULT:      61.1      1.610      2.852
REMARK  7 active torsions:
REMARK  status: ('A' for Active; 'I' for Inactive)
REMARK    1  A    between atoms: N_4  and  C_1 
REMARK       I    between atoms: C_3  and  N_4 
REMARK    2  A    between atoms: C_8  and  C_3 
REMARK    3  A    between atoms: S_10  and  C_5 
REMARK    4  A    between atoms: C_9  and  C_15 
REMARK       I    between atoms: N_12  and  C_9 
REMARK    5  A    between atoms: C_15  and  S_10 
REMARK    6  A    between atoms: C_17  and  N_12 
REMARK    7  A    between atoms: O_18  and  C_13 
ROOT
ATOM      1  C   UNL d   1     -49.177  27.997  34.860  0.00  0.00     0.219 A 
ATOM      2  S   UNL d   1     -49.680  28.051  34.210  0.00  0.00    -0.019 SA
ATOM      3  C   UNL d   1     -49.875  27.292  33.962  0.00  0.00     0.165 A 
ATOM      4  N   UNL d   1     -49.059  27.191  35.016  0.00  0.00    -0.120 NA
ATOM      5  N   UNL d   1     -49.490  26.756  34.462  0.00  0.00    -0.133 NA
ENDROOT
BRANCH   1   6
ATOM      6  N   UNL d   1     -48.849  28.634  35.279  0.00  0.00    -0.181 NA
ATOM      7  C   UNL d   1     -48.072  28.870  35.115  0.00  0.00     0.283 C 
ATOM      8  O   UNL d   1     -47.631  28.477  34.544  0.00  0.00    -0.265 OA
BRANCH   7   9
ATOM      9  C   UNL d   1     -47.742  29.505  35.531  0.00  0.00     0.080 A 
ATOM     10  C   UNL d   1     -47.628  30.217  35.155  0.00  0.00     0.099 A 
ATOM     11  C   UNL d   1     -47.298  30.856  35.568  0.00  0.00     0.024 A 
ATOM     12  C   UNL d   1     -47.089  30.766  36.354  0.00  0.00     0.002 A 
ATOM     13  C   UNL d   1     -47.207  30.037  36.734  0.00  0.00     0.000 A 
ATOM     14  C   UNL d   1     -47.535  29.410  36.316  0.00  0.00     0.007 A 
BRANCH  10  15
ATOM     15  O   UNL d   1     -47.838  30.315  34.359  0.00  0.00    -0.328 OA
ATOM     16  C   UNL d   1     -48.138  31.028  34.087  0.00  0.00     0.181 C 
ENDBRANCH  10  15
ENDBRANCH   7   9
ENDBRANCH   1   6
BRANCH   3  17
ATOM     17  S   UNL d   1     -50.368  27.103  33.327  0.00  0.00    -0.054 SA
BRANCH  17  18
ATOM     18  C   UNL d   1     -51.039  26.630  33.459  0.00  0.00     0.100 C 
BRANCH  18  19
ATOM     19  C   UNL d   1     -50.975  25.810  33.426  0.00  0.00     0.286 C 
ATOM     20  N   UNL d   1     -51.650  25.337  33.509  0.00  0.00    -0.208 NA
ATOM     21  O   UNL d   1     -50.238  25.446  33.309  0.00  0.00    -0.265 OA
BRANCH  20  22
ATOM     22  C   UNL d   1     -51.598  24.523  33.477  0.00  0.00     0.085 A 
ATOM     23  C   UNL d   1     -52.220  23.994  33.316  0.00  0.00     0.019 A 
ATOM     24  C   UNL d   1     -51.918  23.231  33.341  0.00  0.00     0.002 A 
ATOM     25  C   UNL d   1     -51.109  23.274  33.518  0.00  0.00     0.002 A 
ATOM     26  C   UNL d   1     -50.917  24.076  33.601  0.00  0.00     0.019 A 
ENDBRANCH  20  22
ENDBRANCH  18  19
ENDBRANCH  17  18
ENDBRANCH   3  17
TORSDOF 7
ENDMDL
MODEL 3
REMARK VINA RESULT:      61.4      1.151      5.866
REMARK  7 active torsions:
REMARK  status: ('A' for Active; 'I' for Inactive)
REMARK    1  A    between atoms: N_4  and  C_1 
REMARK       I    between atoms: C_3  and  N_4 
REMARK    2  A    between atoms: C_8  and  C_3 
REMARK    3  A    between atoms: S_10  and  C_5 
REMARK    4  A    between atoms: C_9  and  C_15 
REMARK       I    between atoms: N_12  and  C_9 
REMARK    5  A    between atoms: C_15  and  S_10 
REMARK    6  A    between atoms: C_17  and  N_12 
REMARK    7  A    between atoms: O_18  and  C_13 
ROOT
ATOM      1  C   UNL d   1     -49.350  27.511  34.744  0.00  0.00     0.219 A 
ATOM      2  S   UNL d   1     -49.243  28.188  35.202  0.00  0.00    -0.019 SA
ATOM      3  C   UNL d   1     -48.441  28.359  35.240  0.00  0.00     0.165 A 
ATOM      4  N   UNL d   1     -48.600  27.260  34.494  0.00  0.00    -0.120 NA
ATOM      5  N   UNL d   1     -48.039  27.783  34.801  0.00  0.00    -0.133 NA
ENDROOT
BRANCH   1   6
ATOM      6  N   UNL d   1     -50.076  27.151  34.567  0.00  0.00    -0.181 NA
ATOM      7  C   UNL d   1     -50.167  26.757  33.843  0.00  0.00     0.283 C 
ATOM      8  O   UNL d   1     -49.545  26.725  33.307  0.00  0.00    -0.265 OA
BRANCH   7   9
ATOM      9  C   UNL d   1     -50.890  26.396  33.663  0.00  0.00     0.080 A 
ATOM     10  C   UNL d   1     -50.941  25.585  33.638  0.00  0.00     0.099 A 
ATOM     11  C   UNL d   1     -51.663  25.219  33.458  0.00  0.00     0.024 A 
ATOM     12  C   UNL d   1     -52.323  25.679  33.307  0.00  0.00     0.002 A 
ATOM     13  C   UNL d   1     -52.267  26.507  33.333  0.00  0.00     0.000 A 
ATOM     14  C   UNL d   1     -51.547  26.860  33.513  0.00  0.00     0.007 A 
BRANCH  10  15
ATOM     15  O   UNL d   1     -50.275  25.114  33.791  0.00  0.00    -0.328 OA
ATOM     16  C   UNL d   1     -49.611  25.154  33.311  0.00  0.00     0.181 C 
ENDBRANCH  10  15
ENDBRANCH   7   9
ENDBRANCH   1   6
BRANCH   3  17
ATOM     17  S   UNL d   1     -48.100  28.992  35.645  0.00  0.00    -0.054 SA
BRANCH  17  18
ATOM     18  C   UNL d   1     -47.469  29.407  35.296  0.00  0.00     0.100 C 
BRANCH  18  19
ATOM     19  C   UNL d   1     -47.479  30.230  35.279  0.00  0.00     0.286 C 
ATOM     20  N   UNL d   1     -47.687  30.628  34.583  0.00  0.00    -0.208 NA
ATOM     21  O   UNL d   1     -47.283  30.671  35.955  0.00  0.00    -0.265 OA
BRANCH  20  22
ATOM     22  C   UNL d   1     -47.700  31.444  34.555  0.00  0.00     0.085 A 
ATOM     23  C   UNL d   1     -47.151  31.959  34.909  0.00  0.00     0.019 A 
ATOM     24  C   UNL d   1     -47.379  32.730  34.739  0.00  0.00     0.002 A 
ATOM     25  C   UNL d   1     -48.069  32.705  34.280  0.00  0.00     0.002 A 
ATOM     26  C   UNL d   1     -48.263  31.906  34.169  0.00  0.00     0.019 A 
ENDBRANCH  20  22
ENDBRANCH  18  19
ENDBRANCH  17  18
ENDBRANCH   3  17
TORSDOF 7
ENDMDL
