MODEL 1
REMARK VINA RESULT:      -6.0      0.000      0.000
REMARK  6 active torsions:
REMARK  status: ('A' for Active; 'I' for Inactive)
REMARK    1  A    between atoms: N_4  and  C_2 
REMARK    2  A    between atoms: C_9  and  N_4 
REMARK    3  A    between atoms: O_16  and  C_8 
REMARK    4  A    between atoms: O_24  and  C_10 
REMARK    5  A    between atoms: C_22  and  O_16 
REMARK    6  A    between atoms: C_26  and  C_22 
ROOT
ATOM      1  C   UNL d   1      50.155  34.702  52.655  0.00  0.00     0.056 A 
ATOM      2  C   UNL d   1      50.929  34.452  52.776  0.00  0.00     0.166 A 
ATOM      3  C   UNL d   1      49.801  34.609  51.914  0.00  0.00     0.088 A 
ATOM      4  C   UNL d   1      49.733  35.046  53.272  0.00  0.00     0.031 A 
ATOM      5  N   UNL d   1      51.358  34.105  52.155  0.00  0.00    -0.205 NA
ATOM      6  C   UNL d   1      49.025  34.859  51.794  0.00  0.00     0.046 A 
ATOM      7  C   UNL d   1      48.604  35.202  52.411  0.00  0.00     0.124 A 
ATOM      8  C   UNL d   1      48.958  35.296  53.151  0.00  0.00     0.117 A 
ATOM      9  N   UNL d   1      50.222  34.265  51.297  0.00  0.00    -0.224 NA
ATOM     10  C   UNL d   1      51.004  34.011  51.415  0.00  0.00     0.200 A 
ENDROOT
BRANCH   2  11
ATOM     11  N   UNL d   1      51.286  34.547  53.522  0.00  0.00    -0.224 NA
BRANCH  11  12
ATOM     12  C   UNL d   1      51.993  34.165  53.683  0.00  0.00     0.110 A 
ATOM     13  C   UNL d   1      52.675  34.590  53.870  0.00  0.00     0.158 A 
ATOM     14  C   UNL d   1      53.386  34.208  54.032  0.00  0.00     0.038 A 
ATOM     15  F   UNL d   1      52.644  35.422  53.895  0.00  0.00    -0.203 F 
ATOM     16  C   UNL d   1      53.418  33.375  54.008  0.00  0.00     0.037 A 
ATOM     17  C   UNL d   1      52.731  32.942  53.820  0.00  0.00     0.008 A 
ATOM     18 BR   UNL d   1      54.136  32.985  54.172  0.00  0.00    -0.049 Br
ATOM     19  C   UNL d   1      52.024  33.332  53.659  0.00  0.00     0.022 A 
ENDBRANCH  11  12
ENDBRANCH   2  11
BRANCH   8  20
ATOM     20  O   UNL d   1      48.526  35.645  53.773  0.00  0.00    -0.326 OA
ATOM     21  C   UNL d   1      48.841  36.287  54.187  0.00  0.00     0.181 C 
ENDBRANCH   8  20
BRANCH   7  22
ATOM     22  O   UNL d   1      47.817  35.457  52.291  0.00  0.00    -0.303 OA
BRANCH  22  23
ATOM     23  C   UNL d   1      47.516  35.532  51.525  0.00  0.00     0.123 C 
BRANCH  23  24
ATOM     24  C   UNL d   1      46.720  35.732  51.416  0.00  0.00     0.028 A 
ATOM     25  C   UNL d   1      46.401  36.397  51.797  0.00  0.00     0.021 A 
ATOM     26  C   UNL d   1      45.609  36.590  51.685  0.00  0.00     0.080 A 
ATOM     27  N   UNL d   1      45.123  36.129  51.195  0.00  0.00    -0.301 N 
ATOM     28  C   UNL d   1      45.441  35.469  50.816  0.00  0.00     0.080 A 
ATOM     29  C   UNL d   1      44.315  36.331  51.083  0.00  0.00     0.100 C 
ATOM     30  C   UNL d   1      46.241  35.268  50.926  0.00  0.00     0.021 A 
ENDBRANCH  23  24
ENDBRANCH  22  23
ENDBRANCH   7  22
TORSDOF 6
ENDMDL
MODEL 2
REMARK VINA RESULT:      -6.0      1.695      2.503
REMARK  6 active torsions:
REMARK  status: ('A' for Active; 'I' for Inactive)
REMARK    1  A    between atoms: N_4  and  C_2 
REMARK    2  A    between atoms: C_9  and  N_4 
REMARK    3  A    between atoms: O_16  and  C_8 
REMARK    4  A    between atoms: O_24  and  C_10 
REMARK    5  A    between atoms: C_22  and  O_16 
REMARK    6  A    between atoms: C_26  and  C_22 
ROOT
ATOM      1  C   UNL d   1      51.301  34.091  53.009  0.00  0.00     0.056 A 
ATOM      2  C   UNL d   1      52.020  33.698  53.078  0.00  0.00     0.166 A 
ATOM      3  C   UNL d   1      51.130  34.731  53.502  0.00  0.00     0.088 A 
ATOM      4  C   UNL d   1      50.751  33.845  52.448  0.00  0.00     0.031 A 
ATOM      5  N   UNL d   1      52.577  33.943  53.643  0.00  0.00    -0.205 NA
ATOM      6  C   UNL d   1      50.409  35.124  53.432  0.00  0.00     0.046 A 
ATOM      7  C   UNL d   1      49.860  34.878  52.871  0.00  0.00     0.124 A 
ATOM      8  C   UNL d   1      50.031  34.238  52.378  0.00  0.00     0.117 A 
ATOM      9  N   UNL d   1      51.679  34.977  54.063  0.00  0.00    -0.224 NA
ATOM     10  C   UNL d   1      52.406  34.584  54.136  0.00  0.00     0.200 A 
ENDROOT
BRANCH   2  11
ATOM     11  N   UNL d   1      52.192  33.052  52.581  0.00  0.00    -0.224 NA
BRANCH  11  12
ATOM     12  C   UNL d   1      52.642  32.430  52.868  0.00  0.00     0.110 A 
ATOM     13  C   UNL d   1      52.322  31.674  52.950  0.00  0.00     0.158 A 
ATOM     14  C   UNL d   1      52.772  31.048  53.238  0.00  0.00     0.038 A 
ATOM     15  F   UNL d   1      51.528  31.542  52.738  0.00  0.00    -0.203 F 
ATOM     16  C   UNL d   1      53.568  31.180  53.452  0.00  0.00     0.037 A 
ATOM     17  C   UNL d   1      53.895  31.943  53.370  0.00  0.00     0.008 A 
ATOM     18 BR   UNL d   1      54.026  30.548  53.744  0.00  0.00    -0.049 Br
ATOM     19  C   UNL d   1      53.438  32.562  53.081  0.00  0.00     0.022 A 
ENDBRANCH  11  12
ENDBRANCH   2  11
BRANCH   8  20
ATOM     20  O   UNL d   1      49.470  33.993  51.812  0.00  0.00    -0.326 OA
ATOM     21  C   UNL d   1      49.639  34.063  51.006  0.00  0.00     0.181 C 
ENDBRANCH   8  20
BRANCH   7  22
ATOM     22  O   UNL d   1      49.128  35.275  52.799  0.00  0.00    -0.303 OA
BRANCH  22  23
ATOM     23  C   UNL d   1      48.842  35.739  53.420  0.00  0.00     0.123 C 
BRANCH  23  24
ATOM     24  C   UNL d   1      48.051  35.981  53.420  0.00  0.00     0.028 A 
ATOM     25  C   UNL d   1      47.757  36.443  52.796  0.00  0.00     0.021 A 
ATOM     26  C   UNL d   1      46.968  36.680  52.801  0.00  0.00     0.080 A 
ATOM     27  N   UNL d   1      46.463  36.464  53.423  0.00  0.00    -0.301 N 
ATOM     28  C   UNL d   1      46.756  36.005  54.043  0.00  0.00     0.080 A 
ATOM     29  C   UNL d   1      45.659  36.709  53.424  0.00  0.00     0.100 C 
ATOM     30  C   UNL d   1      47.552  35.763  54.042  0.00  0.00     0.021 A 
ENDBRANCH  23  24
ENDBRANCH  22  23
ENDBRANCH   7  22
TORSDOF 6
ENDMDL
MODEL 3
REMARK VINA RESULT:      -5.3      2.583      5.868
REMARK  6 active torsions:
REMARK  status: ('A' for Active; 'I' for Inactive)
REMARK    1  A    between atoms: N_4  and  C_2 
REMARK    2  A    between atoms: C_9  and  N_4 
REMARK    3  A    between atoms: O_16  and  C_8 
REMARK    4  A    between atoms: O_24  and  C_10 
REMARK    5  A    between atoms: C_22  and  O_16 
REMARK    6  A    between atoms: C_26  and  C_22 
ROOT
ATOM      1  C   UNL d   1      49.919  34.699  52.616  0.00  0.00     0.056 A 
ATOM      2  C   UNL d   1      49.239  35.144  52.488  0.00  0.00     0.166 A 
ATOM      3  C   UNL d   1      50.158  34.139  52.057  0.00  0.00     0.088 A 
ATOM      4  C   UNL d   1      50.361  34.811  53.301  0.00  0.00     0.031 A 
ATOM      5  N   UNL d   1      48.791  35.033  51.798  0.00  0.00    -0.205 NA
ATOM      6  C   UNL d   1      50.839  33.694  52.185  0.00  0.00     0.046 A 
ATOM      7  C   UNL d   1      51.280  33.807  52.870  0.00  0.00     0.124 A 
ATOM      8  C   UNL d   1      51.041  34.366  53.429  0.00  0.00     0.117 A 
ATOM      9  N   UNL d   1      49.717  34.026  51.372  0.00  0.00    -0.224 NA
ATOM     10  C   UNL d   1      49.030  34.474  51.239  0.00  0.00     0.200 A 
ENDROOT
BRANCH   2  11
ATOM     11  N   UNL d   1      48.998  35.708  53.051  0.00  0.00    -0.224 NA
BRANCH  11  12
ATOM     12  C   UNL d   1      48.216  35.954  53.067  0.00  0.00     0.110 A 
ATOM     13  C   UNL d   1      47.775  35.931  53.764  0.00  0.00     0.158 A 
ATOM     14  C   UNL d   1      46.990  36.179  53.782  0.00  0.00     0.038 A 
ATOM     15  F   UNL d   1      48.131  35.652  54.464  0.00  0.00    -0.203 F 
ATOM     16  C   UNL d   1      46.633  36.458  53.082  0.00  0.00     0.037 A 
ATOM     17  C   UNL d   1      47.075  36.483  52.376  0.00  0.00     0.008 A 
ATOM     18 BR   UNL d   1      45.838  36.709  53.097  0.00  0.00    -0.049 Br
ATOM     19  C   UNL d   1      47.859  36.234  52.367  0.00  0.00     0.022 A 
ENDBRANCH  11  12
ENDBRANCH   2  11
BRANCH   8  20
ATOM     20  O   UNL d   1      51.492  34.476  54.121  0.00  0.00    -0.326 OA
ATOM     21  C   UNL d   1      51.886  35.191  54.250  0.00  0.00     0.181 C 
ENDBRANCH   8  20
BRANCH   7  22
ATOM     22  O   UNL d   1      51.971  33.356  53.003  0.00  0.00    -0.303 OA
BRANCH  22  23
ATOM     23  C   UNL d   1      52.139  32.701  52.526  0.00  0.00     0.123 C 
BRANCH  23  24
ATOM     24  C   UNL d   1      52.611  32.089  52.824  0.00  0.00     0.028 A 
ATOM     25  C   UNL d   1      53.385  32.246  53.078  0.00  0.00     0.021 A 
ATOM     26  C   UNL d   1      53.849  31.633  53.373  0.00  0.00     0.080 A 
ATOM     27  N   UNL d   1      53.552  30.859  53.420  0.00  0.00    -0.301 N 
ATOM     28  C   UNL d   1      52.782  30.705  53.167  0.00  0.00     0.080 A 
ATOM     29  C   UNL d   1      54.029  30.237  53.722  0.00  0.00     0.100 C 
ATOM     30  C   UNL d   1      52.309  31.320  52.868  0.00  0.00     0.021 A 
ENDBRANCH  23  24
ENDBRANCH  22  23
ENDBRANCH   7  22
TORSDOF 6
ENDMDL
MODEL 4
REMARK VINA RESULT:      -4.3      1.592      2.392
REMARK  6 active torsions:
REMARK  status: ('A' for Active; 'I' for Inactive)
REMARK    1  A    between atoms: N_4  and  C_2 
REMARK    2  A    between atoms: C_9  and  N_4 
REMARK    3  A    between atoms: O_16  and  C_8 
REMARK    4  A    between atoms: O_24  and  C_10 
REMARK    5  A    between atoms: C_22  and  O_16 
REMARK    6  A    between atoms: C_26  and  C_22 
ROOT
ATOM      1  C   UNL d   1      52.039  33.879  52.950  0.00  0.00     0.056 A 
ATOM      2  C   UNL d   1      52.823  33.773  53.174  0.00  0.00     0.166 A 
ATOM      3  C   UNL d   1      51.836  34.483  52.424  0.00  0.00     0.088 A 
ATOM      4  C   UNL d   1      51.455  33.382  53.252  0.00  0.00     0.031 A 
ATOM      5  N   UNL d   1      53.414  34.272  52.872  0.00  0.00    -0.205 NA
ATOM      6  C   UNL d   1      51.051  34.588  52.201  0.00  0.00     0.046 A 
ATOM      7  C   UNL d   1      50.468  34.092  52.502  0.00  0.00     0.124 A 
ATOM      8  C   UNL d   1      50.671  33.488  53.029  0.00  0.00     0.117 A 
ATOM      9  N   UNL d   1      52.419  34.979  52.123  0.00  0.00    -0.224 NA
ATOM     10  C   UNL d   1      53.212  34.876  52.345  0.00  0.00     0.200 A 
ENDROOT
BRANCH   2  11
ATOM     11  N   UNL d   1      53.028  33.164  53.704  0.00  0.00    -0.224 NA
BRANCH  11  12
ATOM     12  C   UNL d   1      53.613  33.295  54.263  0.00  0.00     0.110 A 
ATOM     13  C   UNL d   1      54.291  32.826  54.289  0.00  0.00     0.158 A 
ATOM     14  C   UNL d   1      54.880  32.955  54.850  0.00  0.00     0.038 A 
ATOM     15  F   UNL d   1      54.381  32.208  53.737  0.00  0.00    -0.203 F 
ATOM     16  C   UNL d   1      54.789  33.573  55.403  0.00  0.00     0.037 A 
ATOM     17  C   UNL d   1      54.105  34.050  55.380  0.00  0.00     0.008 A 
ATOM     18 BR   UNL d   1      55.384  33.707  55.972  0.00  0.00    -0.049 Br
ATOM     19  C   UNL d   1      53.522  33.913  54.816  0.00  0.00     0.022 A 
ENDBRANCH  11  12
ENDBRANCH   2  11
BRANCH   8  20
ATOM     20  O   UNL d   1      50.076  32.988  53.331  0.00  0.00    -0.326 OA
ATOM     21  C   UNL d   1      50.230  32.185  53.448  0.00  0.00     0.181 C 
ENDBRANCH   8  20
BRANCH   7  22
ATOM     22  O   UNL d   1      49.670  34.197  52.277  0.00  0.00    -0.303 OA
BRANCH  22  23
ATOM     23  C   UNL d   1      49.464  34.788  51.737  0.00  0.00     0.123 C 
BRANCH  23  24
ATOM     24  C   UNL d   1      48.669  35.000  51.647  0.00  0.00     0.028 A 
ATOM     25  C   UNL d   1      48.299  35.484  52.211  0.00  0.00     0.021 A 
ATOM     26  C   UNL d   1      47.508  35.691  52.115  0.00  0.00     0.080 A 
ATOM     27  N   UNL d   1      47.074  35.422  51.461  0.00  0.00    -0.301 N 
ATOM     28  C   UNL d   1      47.442  34.941  50.900  0.00  0.00     0.080 A 
ATOM     29  C   UNL d   1      46.267  35.636  51.367  0.00  0.00     0.100 C 
ATOM     30  C   UNL d   1      48.241  34.729  50.992  0.00  0.00     0.021 A 
ENDBRANCH  23  24
ENDBRANCH  22  23
ENDBRANCH   7  22
TORSDOF 6
ENDMDL
MODEL 5
REMARK VINA RESULT:      -3.7      1.816      2.867
REMARK  6 active torsions:
REMARK  status: ('A' for Active; 'I' for Inactive)
REMARK    1  A    between atoms: N_4  and  C_2 
REMARK    2  A    between atoms: C_9  and  N_4 
REMARK    3  A    between atoms: O_16  and  C_8 
REMARK    4  A    between atoms: O_24  and  C_10 
REMARK    5  A    between atoms: C_22  and  O_16 
REMARK    6  A    between atoms: C_26  and  C_22 
ROOT
ATOM      1  C   UNL d   1      52.216  32.843  52.969  0.00  0.00     0.056 A 
ATOM      2  C   UNL d   1      52.840  32.355  53.189  0.00  0.00     0.166 A 
ATOM      3  C   UNL d   1      51.439  32.567  53.012  0.00  0.00     0.088 A 
ATOM      4  C   UNL d   1      52.367  33.609  52.705  0.00  0.00     0.031 A 
ATOM      5  N   UNL d   1      52.692  31.583  53.456  0.00  0.00    -0.205 NA
ATOM      6  C   UNL d   1      50.815  33.056  52.791  0.00  0.00     0.046 A 
ATOM      7  C   UNL d   1      50.966  33.821  52.528  0.00  0.00     0.124 A 
ATOM      8  C   UNL d   1      51.743  34.097  52.484  0.00  0.00     0.117 A 
ATOM      9  N   UNL d   1      51.288  31.803  53.276  0.00  0.00    -0.224 NA
ATOM     10  C   UNL d   1      51.915  31.306  53.500  0.00  0.00     0.200 A 
ENDROOT
BRANCH   2  11
ATOM     11  N   UNL d   1      53.624  32.634  53.146  0.00  0.00    -0.224 NA
BRANCH  11  12
ATOM     12  C   UNL d   1      54.015  32.850  53.833  0.00  0.00     0.110 A 
ATOM     13  C   UNL d   1      54.793  33.125  53.813  0.00  0.00     0.158 A 
ATOM     14  C   UNL d   1      55.187  33.343  54.502  0.00  0.00     0.038 A 
ATOM     15  F   UNL d   1      55.186  33.184  53.081  0.00  0.00    -0.203 F 
ATOM     16  C   UNL d   1      54.793  33.284  55.235  0.00  0.00     0.037 A 
ATOM     17  C   UNL d   1      54.007  33.006  55.259  0.00  0.00     0.008 A 
ATOM     18 BR   UNL d   1      55.190  33.504  55.935  0.00  0.00    -0.049 Br
ATOM     19  C   UNL d   1      53.621  32.791  54.566  0.00  0.00     0.022 A 
ENDBRANCH  11  12
ENDBRANCH   2  11
BRANCH   8  20
ATOM     20  O   UNL d   1      51.890  34.873  52.216  0.00  0.00    -0.326 OA
ATOM     21  C   UNL d   1      52.611  35.239  52.384  0.00  0.00     0.181 C 
ENDBRANCH   8  20
BRANCH   7  22
ATOM     22  O   UNL d   1      50.334  34.319  52.303  0.00  0.00    -0.303 OA
BRANCH  22  23
ATOM     23  C   UNL d   1      49.620  34.302  52.721  0.00  0.00     0.123 C 
BRANCH  23  24
ATOM     24  C   UNL d   1      49.006  34.812  52.502  0.00  0.00     0.028 A 
ATOM     25  C   UNL d   1      48.730  35.385  53.035  0.00  0.00     0.021 A 
ATOM     26  C   UNL d   1      48.118  35.889  52.812  0.00  0.00     0.080 A 
ATOM     27  N   UNL d   1      47.773  35.831  52.059  0.00  0.00    -0.301 N 
ATOM     28  C   UNL d   1      48.048  35.261  51.530  0.00  0.00     0.080 A 
ATOM     29  C   UNL d   1      47.149  36.348  51.835  0.00  0.00     0.100 C 
ATOM     30  C   UNL d   1      48.666  34.750  51.750  0.00  0.00     0.021 A 
ENDBRANCH  23  24
ENDBRANCH  22  23
ENDBRANCH   7  22
TORSDOF 6
ENDMDL
