MODEL 1
REMARK VINA RESULT:     145.6      0.000      0.000
REMARK  3 active torsions:
REMARK  status: ('A' for Active; 'I' for Inactive)
REMARK    1  A    between atoms: N_9  and  C_3 
REMARK    2  A    between atoms: C_14  and  C_5 
REMARK       I    between atoms: C_10  and  N_11 
REMARK    3  A    between atoms: C_13  and  C_10 
ROOT
ATOM      1  N   UNL d   1     -56.307-100.786 -43.043  0.00  0.00    -0.196 N 
ATOM      2  C   UNL d   1     -56.470-100.611 -43.832  0.00  0.00     0.167 A 
ATOM      3  C   UNL d   1     -55.746-101.357 -42.855  0.00  0.00     0.152 A 
ATOM      4  N   UNL d   1     -56.783-100.311 -42.574  0.00  0.00    -0.163 NA
ATOM      5  C   UNL d   1     -57.045-100.029 -43.845  0.00  0.00     0.055 A 
ATOM      6  C   UNL d   1     -57.240 -99.842 -43.071  0.00  0.00     0.104 A 
ATOM      7  N   UNL d   1     -56.072-101.006 -44.433  0.00  0.00    -0.227 NA
ATOM      8  C   UNL d   1     -55.341-101.759 -43.459  0.00  0.00     0.057 A 
ATOM      9  C   UNL d   1     -55.504-101.583 -44.248  0.00  0.00     0.086 A 
ATOM     10  C   UNL d   1     -57.798 -99.280 -42.840  0.00  0.00     0.023 C 
ATOM     11  C   UNL d   1     -55.104-101.980 -44.858  0.00  0.00     0.021 C 
ENDROOT
BRANCH   3  12
ATOM     12  N   UNL d   1     -55.582-101.533 -42.061  0.00  0.00    -0.286 N 
ATOM     13  C   UNL d   1     -55.604-100.955 -41.476  0.00  0.00     0.101 A 
ATOM     14  C   UNL d   1     -55.437-101.154 -40.694  0.00  0.00     0.102 A 
ATOM     15  N   UNL d   1     -55.250-101.919 -40.492  0.00  0.00    -0.267 N 
ATOM     16  C   UNL d   1     -55.082-102.112 -39.700  0.00  0.00     0.288 C 
ATOM     17  C   UNL d   1     -55.225-102.510 -41.077  0.00  0.00     0.102 A 
ATOM     18  O   UNL d   1     -54.893-102.880 -39.487  0.00  0.00    -0.264 OA
ATOM     19  C   UNL d   1     -55.392-102.310 -41.860  0.00  0.00     0.101 A 
BRANCH  16  20
ATOM     20  C   UNL d   1     -55.110-101.519 -39.127  0.00  0.00     0.156 A 
ATOM     21  O   UNL d   1     -55.425-100.767 -39.128  0.00  0.00    -0.300 OA
ATOM     22  C   UNL d   1     -55.280-100.434 -38.390  0.00  0.00     0.123 A 
ATOM     23  C   UNL d   1     -54.881-100.967 -37.938  0.00  0.00     0.029 A 
ATOM     24  C   UNL d   1     -54.769-101.648 -38.387  0.00  0.00     0.032 A 
ENDBRANCH  16  20
ENDBRANCH   3  12
BRANCH   5  25
ATOM     25  C   UNL d   1     -57.423 -99.639 -44.472  0.00  0.00     0.004 A 
ATOM     26  C   UNL d   1     -58.147 -99.265 -44.347  0.00  0.00     0.000 A 
ATOM     27  C   UNL d   1     -58.525 -98.875 -44.975  0.00  0.00     0.000 A 
ATOM     28  C   UNL d   1     -58.176 -98.861 -45.723  0.00  0.00     0.000 A 
ATOM     29  C   UNL d   1     -57.447 -99.237 -45.846  0.00  0.00     0.000 A 
ATOM     30  C   UNL d   1     -57.074 -99.625 -45.220  0.00  0.00     0.000 A 
ENDBRANCH   5  25
TORSDOF 3
ENDMDL
