MODEL 1
REMARK VINA RESULT:      -5.9      0.000      0.000
REMARK  5 active torsions:
REMARK  status: ('A' for Active; 'I' for Inactive)
REMARK    1  A    between atoms: S_9  and  C_3 
REMARK    2  A    between atoms: C_14  and  S_9 
REMARK    3  A    between atoms: C_10  and  C_11 
REMARK    4  A    between atoms: C_12  and  C_10 
REMARK    5  A    between atoms: C_11  and  C_14 
ROOT
ATOM      1  S   UNL d   1     -41.187-122.634 -52.519  0.00  0.00    -0.046 SA
ENDROOT
BRANCH   1   2
ATOM      2  C   UNL d   1     -41.453-122.449 -53.278  0.00  0.00     0.220 A 
ATOM      3  N   UNL d   1     -41.421-123.016 -53.879  0.00  0.00    -0.149 N 
ATOM      4  C   UNL d   1     -41.687-122.839 -54.647  0.00  0.00     0.303 A 
ATOM      5  N   UNL d   1     -41.123-123.769 -53.721  0.00  0.00    -0.037 N 
ATOM      6  C   UNL d   1     -41.986-122.078 -54.795  0.00  0.00     0.161 A 
ATOM      7  O   UNL d   1     -41.655-123.400 -55.241  0.00  0.00    -0.263 OA
ATOM      8  C   UNL d   1     -42.253-121.892 -55.553  0.00  0.00     0.028 C 
ATOM      9  N   UNL d   1     -42.018-121.510 -54.194  0.00  0.00    -0.141 NA
ATOM     10  N   UNL d   1     -41.751-121.699 -53.439  0.00  0.00    -0.121 NA
ENDBRANCH   1   2
BRANCH   1  11
ATOM     11  C   UNL d   1     -41.555-122.306 -51.862  0.00  0.00     0.038 C 
BRANCH  11  12
ATOM     12  C   UNL d   1     -41.527-122.702 -51.143  0.00  0.00     0.007 C 
BRANCH  12  13
ATOM     13  C   UNL d   1     -41.731-122.313 -50.445  0.00  0.00     0.001 C 
BRANCH  13  14
ATOM     14  C   UNL d   1     -41.978-122.756 -49.789  0.00  0.00     0.000 A 
ATOM     15  C   UNL d   1     -42.773-122.811 -49.599  0.00  0.00     0.000 A 
ATOM     16  C   UNL d   1     -43.009-123.260 -48.936  0.00  0.00     0.000 A 
ATOM     17  C   UNL d   1     -42.445-123.641 -48.484  0.00  0.00     0.000 A 
ATOM     18  C   UNL d   1     -41.647-123.586 -48.675  0.00  0.00     0.000 A 
ATOM     19  C   UNL d   1     -41.408-123.143 -49.329  0.00  0.00     0.000 A 
ENDBRANCH  13  14
ENDBRANCH  12  13
ENDBRANCH  11  12
ENDBRANCH   1  11
TORSDOF 5
ENDMDL
MODEL 2
REMARK VINA RESULT:      -5.1      1.153      1.882
REMARK  5 active torsions:
REMARK  status: ('A' for Active; 'I' for Inactive)
REMARK    1  A    between atoms: S_9  and  C_3 
REMARK    2  A    between atoms: C_14  and  S_9 
REMARK    3  A    between atoms: C_10  and  C_11 
REMARK    4  A    between atoms: C_12  and  C_10 
REMARK    5  A    between atoms: C_11  and  C_14 
ROOT
ATOM      1  S   UNL d   1     -41.302-122.760 -51.224  0.00  0.00    -0.046 SA
ENDROOT
BRANCH   1   2
ATOM      2  C   UNL d   1     -41.341-122.905 -52.036  0.00  0.00     0.220 A 
ATOM      3  N   UNL d   1     -41.251-122.282 -52.573  0.00  0.00    -0.149 N 
ATOM      4  C   UNL d   1     -41.288-122.418 -53.393  0.00  0.00     0.303 A 
ATOM      5  N   UNL d   1     -41.123-121.515 -52.299  0.00  0.00    -0.037 N 
ATOM      6  C   UNL d   1     -41.417-123.195 -53.659  0.00  0.00     0.161 A 
ATOM      7  O   UNL d   1     -41.199-121.802 -53.924  0.00  0.00    -0.263 OA
ATOM      8  C   UNL d   1     -41.455-123.340 -54.470  0.00  0.00     0.028 C 
ATOM      9  N   UNL d   1     -41.507-123.817 -53.122  0.00  0.00    -0.141 NA
ATOM     10  N   UNL d   1     -41.468-123.669 -52.313  0.00  0.00    -0.121 NA
ENDBRANCH   1   2
BRANCH   1  11
ATOM     11  C   UNL d   1     -41.405-123.376 -50.690  0.00  0.00     0.038 C 
BRANCH  11  12
ATOM     12  C   UNL d   1     -41.401-123.219 -49.885  0.00  0.00     0.007 C 
BRANCH  12  13
ATOM     13  C   UNL d   1     -41.913-123.622 -49.378  0.00  0.00     0.001 C 
BRANCH  13  14
ATOM     14  C   UNL d   1     -41.857-123.499 -48.561  0.00  0.00     0.000 A 
ATOM     15  C   UNL d   1     -41.166-123.677 -48.159  0.00  0.00     0.000 A 
ATOM     16  C   UNL d   1     -41.123-123.548 -47.335  0.00  0.00     0.000 A 
ATOM     17  C   UNL d   1     -41.769-123.246 -46.938  0.00  0.00     0.000 A 
ATOM     18  C   UNL d   1     -42.464-123.067 -47.342  0.00  0.00     0.000 A 
ATOM     19  C   UNL d   1     -42.513-123.192 -48.156  0.00  0.00     0.000 A 
ENDBRANCH  13  14
ENDBRANCH  12  13
ENDBRANCH  11  12
ENDBRANCH   1  11
TORSDOF 5
ENDMDL
