MODEL 1
REMARK VINA RESULT:      15.5      0.000      0.000
REMARK  9 active torsions:
REMARK  status: ('A' for Active; 'I' for Inactive)
REMARK    1  A    between atoms: C_11  and  C_3 
REMARK    2  A    between atoms: C_12  and  N_6 
REMARK    3  A    between atoms: C_15  and  C_7 
REMARK    4  A    between atoms: O_24  and  C_11 
REMARK    5  A    between atoms: C_23  and  C_12 
REMARK    6  A    between atoms: O_26  and  C_14 
REMARK    7  A    between atoms: O_28  and  C_17 
REMARK    8  A    between atoms: C_22  and  C_23 
REMARK    9  A    between atoms: C_32  and  O_24 
ROOT
ATOM      1  C   UNL d   1     -41.549-121.199 -53.007  0.00  0.00     0.080 A 
ATOM      2  C   UNL d   1     -41.506-121.782 -52.419  0.00  0.00     0.267 A 
ATOM      3  C   UNL d   1     -41.736-120.859 -54.377  0.00  0.00     0.107 A 
ATOM      4  C   UNL d   1     -41.452-120.406 -52.821  0.00  0.00     0.108 A 
ATOM      5  C   UNL d   1     -41.638-120.066 -54.190  0.00  0.00     0.208 A 
ATOM      6  N   UNL d   1     -41.364-121.557 -51.637  0.00  0.00    -0.273 N 
ATOM      7  C   UNL d   1     -41.691-121.433 -53.781  0.00  0.00     0.017 A 
ATOM      8  O   UNL d   1     -41.495-119.835 -53.408  0.00  0.00    -0.288 OA
ATOM      9  C   UNL d   1     -41.308-120.184 -52.029  0.00  0.00     0.043 A 
ATOM     10  C   UNL d   1     -41.265-120.767 -51.442  0.00  0.00     0.069 A 
ATOM     11  O   UNL d   1     -41.605-122.579 -52.608  0.00  0.00    -0.267 OA
ATOM     12  N   UNL d   1     -41.682-119.492 -54.781  0.00  0.00    -0.121 N 
ATOM     13  C   UNL d   1     -41.123-120.542 -50.659  0.00  0.00     0.019 C 
ENDROOT
BRANCH   6  14
ATOM     14  C   UNL d   1     -41.321-122.141 -51.049  0.00  0.00     0.083 C 
BRANCH  14  15
ATOM     15  C   UNL d   1     -41.335-121.914 -50.255  0.00  0.00     0.019 C 
BRANCH  15  16
ATOM     16  C   UNL d   1     -41.830-122.334 -49.738  0.00  0.00     0.004 A 
ATOM     17  C   UNL d   1     -41.568-122.521 -48.994  0.00  0.00     0.026 A 
ATOM     18  C   UNL d   1     -42.057-122.936 -48.483  0.00  0.00     0.116 A 
ATOM     19  C   UNL d   1     -42.820-123.164 -48.728  0.00  0.00     0.116 A 
ATOM     20  C   UNL d   1     -43.075-122.969 -49.485  0.00  0.00     0.026 A 
ATOM     21  C   UNL d   1     -42.584-122.554 -49.993  0.00  0.00     0.002 A 
BRANCH  18  22
ATOM     22  O   UNL d   1     -41.801-123.133 -47.720  0.00  0.00    -0.326 OA
ATOM     23  C   UNL d   1     -41.123-123.581 -47.629  0.00  0.00     0.181 C 
ENDBRANCH  18  22
BRANCH  19  24
ATOM     24  O   UNL d   1     -43.318-123.581 -48.220  0.00  0.00    -0.326 OA
ATOM     25  C   UNL d   1     -44.063-123.815 -48.472  0.00  0.00     0.181 C 
ENDBRANCH  19  24
ENDBRANCH  15  16
ENDBRANCH  14  15
ENDBRANCH   6  14
BRANCH   7  26
ATOM     26  C   UNL d   1     -41.789-122.229 -53.970  0.00  0.00     0.020 A 
ATOM     27  C   UNL d   1     -42.537-122.560 -53.972  0.00  0.00     0.099 A 
ATOM     28  N   UNL d   1     -42.639-123.348 -54.158  0.00  0.00    -0.242 NA
ATOM     29  C   UNL d   1     -41.978-123.817 -54.348  0.00  0.00     0.099 A 
ATOM     30  C   UNL d   1     -41.222-123.478 -54.344  0.00  0.00     0.021 A 
ATOM     31  C   UNL d   1     -41.126-122.685 -54.156  0.00  0.00     0.003 A 
ENDBRANCH   7  26
BRANCH   3  32
ATOM     32  C   UNL d   1     -41.879-121.090 -55.159  0.00  0.00     0.304 C 
ATOM     33  O   UNL d   1     -42.592-121.442 -55.363  0.00  0.00    -0.259 OA
BRANCH  32  34
ATOM     34  O   UNL d   1     -41.302-120.964 -55.729  0.00  0.00    -0.271 OA
BRANCH  34  35
ATOM     35  C   UNL d   1     -41.472-121.004 -56.538  0.00  0.00     0.126 C 
ATOM     36  C   UNL d   1     -42.253-121.055 -56.783  0.00  0.00     0.029 C 
ENDBRANCH  34  35
ENDBRANCH  32  34
ENDBRANCH   3  32
TORSDOF 9
ENDMDL
