MODEL 1
REMARK VINA RESULT:      26.9      0.000      0.000
REMARK  2 active torsions:
REMARK  status: ('A' for Active; 'I' for Inactive)
REMARK       I    between atoms: N_2  and  C_1 
REMARK       I    between atoms: N_3  and  C_1 
REMARK    1  A    between atoms: C_6  and  N_2 
REMARK    2  A    between atoms: C_5  and  N_3 
ROOT
ATOM      1  C   UNL d   1     -51.959  26.110  33.657  0.00  0.00     0.369 C 
ATOM      2  N   UNL d   1     -51.488  26.772  33.653  0.00  0.00    -0.191 NA
ATOM      3  N   UNL d   1     -51.626  25.375  33.591  0.00  0.00    -0.191 NA
ATOM      4  O   UNL d   1     -52.813  26.133  33.727  0.00  0.00    -0.242 OA
ENDROOT
BRANCH   2   5
ATOM      5  C   UNL d   1     -50.680  26.688  33.583  0.00  0.00     0.086 A 
ATOM      6  C   UNL d   1     -50.187  27.330  33.717  0.00  0.00     0.019 A 
ATOM      7  C   UNL d   1     -49.362  27.266  33.651  0.00  0.00     0.002 A 
ATOM      8  C   UNL d   1     -49.029  26.529  33.443  0.00  0.00     0.000 A 
ATOM      9  C   UNL d   1     -49.531  25.880  33.308  0.00  0.00     0.002 A 
ATOM     10  C   UNL d   1     -50.349  25.959  33.377  0.00  0.00     0.019 A 
ENDBRANCH   2   5
BRANCH   3  11
ATOM     11  C   UNL d   1     -52.095  24.710  33.594  0.00  0.00     0.086 A 
ATOM     12  C   UNL d   1     -51.800  24.003  33.883  0.00  0.00     0.019 A 
ATOM     13  C   UNL d   1     -52.269  23.323  33.890  0.00  0.00     0.002 A 
ATOM     14  C   UNL d   1     -53.051  23.359  33.601  0.00  0.00     0.000 A 
ATOM     15  C   UNL d   1     -53.345  24.074  33.311  0.00  0.00     0.002 A 
ATOM     16  C   UNL d   1     -52.868  24.746  33.309  0.00  0.00     0.019 A 
ENDBRANCH   3  11
TORSDOF 2
ENDMDL
