MODEL 1
REMARK VINA RESULT:       7.3      0.000      0.000
REMARK  3 active torsions:
REMARK  status: ('A' for Active; 'I' for Inactive)
REMARK    1  A    between atoms: C_11  and  N_3 
REMARK    2  A    between atoms: C_10  and  N_6 
REMARK    3  A    between atoms: C_9  and  C_7 
ROOT
ATOM      1  C   UNL d   1     -42.339-122.531 -51.891  0.00  0.00     0.106 A 
ATOM      2  C   UNL d   1     -41.771-123.135 -52.040  0.00  0.00     0.186 A 
ATOM      3  N   UNL d   1     -42.111-122.579 -53.227  0.00  0.00    -0.240 N 
ATOM      4  C   UNL d   1     -41.653-123.140 -52.866  0.00  0.00     0.292 A 
ATOM      5  C   UNL d   1     -42.544-122.195 -52.608  0.00  0.00     0.271 A 
ATOM      6  N   UNL d   1     -41.978-123.107 -50.729  0.00  0.00    -0.211 N 
ATOM      7  C   UNL d   1     -42.458-122.523 -51.079  0.00  0.00     0.117 A 
ATOM      8  O   UNL d   1     -41.562-123.472 -51.341  0.00  0.00    -0.223 OA
ATOM      9  O   UNL d   1     -43.082-121.582 -52.734  0.00  0.00    -0.266 OA
ATOM     10  O   UNL d   1     -41.125-123.662 -53.266  0.00  0.00    -0.264 OA
ENDROOT
BRANCH   6  11
ATOM     11  C   UNL d   1     -41.927-123.285 -49.926  0.00  0.00     0.088 A 
ATOM     12  C   UNL d   1     -41.195-123.192 -49.536  0.00  0.00     0.021 A 
ATOM     13  C   UNL d   1     -41.123-123.365 -48.731  0.00  0.00     0.013 A 
ATOM     14  C   UNL d   1     -41.796-123.640 -48.300  0.00  0.00     0.058 A 
ATOM     15  C   UNL d   1     -42.527-123.731 -48.699  0.00  0.00     0.013 A 
ATOM     16 CL   UNL d   1     -41.745-123.815 -47.512  0.00  0.00    -0.082 Cl
ATOM     17  C   UNL d   1     -42.579-123.553 -49.502  0.00  0.00     0.021 A 
ENDBRANCH   6  11
BRANCH   7  18
ATOM     18  C   UNL d   1     -42.969-122.020 -50.677  0.00  0.00     0.118 A 
ATOM     19  O   UNL d   1     -42.831-121.246 -50.418  0.00  0.00    -0.304 OA
ATOM     20  C   UNL d   1     -43.512-120.967 -50.040  0.00  0.00     0.123 A 
ATOM     21  C   UNL d   1     -44.069-121.594 -50.076  0.00  0.00     0.029 A 
ATOM     22  C   UNL d   1     -43.728-122.213 -50.459  0.00  0.00     0.028 A 
ENDBRANCH   7  18
BRANCH   3  23
ATOM     23  C   UNL d   1     -42.059-122.512 -54.043  0.00  0.00     0.070 A 
ATOM     24  C   UNL d   1     -42.549-122.955 -54.545  0.00  0.00     0.018 A 
ATOM     25  C   UNL d   1     -42.485-122.877 -55.363  0.00  0.00     0.002 A 
ATOM     26  C   UNL d   1     -41.953-122.376 -55.695  0.00  0.00     0.000 A 
ATOM     27  C   UNL d   1     -41.449-121.920 -55.190  0.00  0.00     0.002 A 
ATOM     28  C   UNL d   1     -41.499-121.985 -54.379  0.00  0.00     0.018 A 
ENDBRANCH   3  23
TORSDOF 3
ENDMDL
MODEL 2
REMARK VINA RESULT:       7.4      2.099      4.719
REMARK  3 active torsions:
REMARK  status: ('A' for Active; 'I' for Inactive)
REMARK    1  A    between atoms: C_11  and  N_3 
REMARK    2  A    between atoms: C_10  and  N_6 
REMARK    3  A    between atoms: C_9  and  C_7 
ROOT
ATOM      1  C   UNL d   1     -41.726-121.917 -51.421  0.00  0.00     0.106 A 
ATOM      2  C   UNL d   1     -41.964-122.720 -51.505  0.00  0.00     0.186 A 
ATOM      3  N   UNL d   1     -41.830-122.459 -50.183  0.00  0.00    -0.240 N 
ATOM      4  C   UNL d   1     -42.019-123.026 -50.730  0.00  0.00     0.292 A 
ATOM      5  C   UNL d   1     -41.645-121.759 -50.622  0.00  0.00     0.271 A 
ATOM      6  N   UNL d   1     -41.870-122.211 -52.726  0.00  0.00    -0.211 N 
ATOM      7  C   UNL d   1     -41.671-121.613 -52.181  0.00  0.00     0.117 A 
ATOM      8  O   UNL d   1     -42.047-122.886 -52.286  0.00  0.00    -0.223 OA
ATOM      9  O   UNL d   1     -41.422-121.044 -50.276  0.00  0.00    -0.266 OA
ATOM     10  O   UNL d   1     -42.242-123.817 -50.547  0.00  0.00    -0.264 OA
ENDROOT
BRANCH   6  11
ATOM     11  C   UNL d   1     -41.886-122.142 -53.548  0.00  0.00     0.088 A 
ATOM     12  C   UNL d   1     -41.205-122.347 -53.984  0.00  0.00     0.021 A 
ATOM     13  C   UNL d   1     -41.201-122.285 -54.809  0.00  0.00     0.013 A 
ATOM     14  C   UNL d   1     -41.891-122.011 -55.212  0.00  0.00     0.058 A 
ATOM     15  C   UNL d   1     -42.570-121.807 -54.766  0.00  0.00     0.013 A 
ATOM     16 CL   UNL d   1     -41.905-121.944 -56.017  0.00  0.00    -0.082 Cl
ATOM     17  C   UNL d   1     -42.556-121.876 -53.944  0.00  0.00     0.021 A 
ENDBRANCH   6  11
BRANCH   7  18
ATOM     18  C   UNL d   1     -41.456-120.843 -52.373  0.00  0.00     0.118 A 
ATOM     19  O   UNL d   1     -41.332-120.515 -53.122  0.00  0.00    -0.304 OA
ATOM     20  C   UNL d   1     -41.123-119.720 -53.033  0.00  0.00     0.123 A 
ATOM     21  C   UNL d   1     -41.123-119.573 -52.206  0.00  0.00     0.029 A 
ATOM     22  C   UNL d   1     -41.323-120.253 -51.828  0.00  0.00     0.028 A 
ENDBRANCH   7  18
BRANCH   3  23
ATOM     23  C   UNL d   1     -41.857-122.672 -49.390  0.00  0.00     0.070 A 
ATOM     24  C   UNL d   1     -41.197-122.999 -49.007  0.00  0.00     0.018 A 
ATOM     25  C   UNL d   1     -41.240-123.207 -48.212  0.00  0.00     0.002 A 
ATOM     26  C   UNL d   1     -41.913-123.101 -47.787  0.00  0.00     0.000 A 
ATOM     27  C   UNL d   1     -42.591-122.769 -48.170  0.00  0.00     0.002 A 
ATOM     28  C   UNL d   1     -42.566-122.557 -48.956  0.00  0.00     0.018 A 
ENDBRANCH   3  23
TORSDOF 3
ENDMDL
