MODEL 1
REMARK VINA RESULT:      -5.5      0.000      0.000
REMARK  3 active torsions:
REMARK  status: ('A' for Active; 'I' for Inactive)
REMARK    1  A    between atoms: C_4  and  C_1 
REMARK    2  A    between atoms: N_7  and  C_4 
REMARK    3  A    between atoms: C_9  and  N_7 
ROOT
ATOM      1  C   UNL d   1      57.290   0.017  31.373  0.00  0.00     0.139 A 
ATOM      2  N   UNL d   1      57.011  -0.723  31.555  0.00  0.00    -0.236 NA
ATOM      3  S   UNL d   1      56.938   0.568  31.868  0.00  0.00    -0.064 SA
ATOM      4  C   UNL d   1      56.467  -0.644  32.182  0.00  0.00     0.088 A 
ATOM      5  C   UNL d   1      56.423   0.156  32.374  0.00  0.00     0.049 A 
ATOM      6  C   UNL d   1      56.011  -1.193  32.596  0.00  0.00     0.020 A 
ATOM      7  C   UNL d   1      55.921   0.412  32.984  0.00  0.00     0.008 A 
ATOM      8  C   UNL d   1      55.466  -0.137  33.398  0.00  0.00     0.001 A 
ATOM      9  C   UNL d   1      55.512  -0.943  33.202  0.00  0.00     0.002 A 
ENDROOT
BRANCH   1  10
ATOM     10  C   UNL d   1      57.845   0.178  30.778  0.00  0.00     0.159 C 
ATOM     11  S   UNL d   1      58.484   0.682  30.929  0.00  0.00    -0.055 SA
BRANCH  10  12
ATOM     12  N   UNL d   1      57.761  -0.165  30.032  0.00  0.00    -0.233 NA
BRANCH  12  13
ATOM     13  C   UNL d   1      58.401  -0.174  29.506  0.00  0.00     0.082 A 
ATOM     14  C   UNL d   1      58.503   0.460  28.988  0.00  0.00     0.019 A 
ATOM     15  C   UNL d   1      59.136   0.460  28.462  0.00  0.00     0.002 A 
ATOM     16  C   UNL d   1      59.664  -0.173  28.455  0.00  0.00     0.000 A 
ATOM     17  C   UNL d   1      59.558  -0.809  28.978  0.00  0.00     0.002 A 
ATOM     18  C   UNL d   1      58.926  -0.810  29.505  0.00  0.00     0.019 A 
ENDBRANCH  12  13
ENDBRANCH  10  12
ENDBRANCH   1  10
TORSDOF 3
ENDMDL
MODEL 2
REMARK VINA RESULT:      -5.2      0.512      4.245
REMARK  3 active torsions:
REMARK  status: ('A' for Active; 'I' for Inactive)
REMARK    1  A    between atoms: C_4  and  C_1 
REMARK    2  A    between atoms: N_7  and  C_4 
REMARK    3  A    between atoms: C_9  and  N_7 
ROOT
ATOM      1  C   UNL d   1      57.877   0.075  30.708  0.00  0.00     0.139 A 
ATOM      2  N   UNL d   1      57.989  -0.624  30.312  0.00  0.00    -0.236 NA
ATOM      3  S   UNL d   1      58.274   0.676  30.314  0.00  0.00    -0.064 SA
ATOM      4  C   UNL d   1      58.470  -0.469  29.649  0.00  0.00     0.088 A 
ATOM      5  C   UNL d   1      58.645   0.336  29.652  0.00  0.00     0.049 A 
ATOM      6  C   UNL d   1      58.767  -0.954  29.051  0.00  0.00     0.020 A 
ATOM      7  C   UNL d   1      59.120   0.663  29.054  0.00  0.00     0.008 A 
ATOM      8  C   UNL d   1      59.417   0.178  28.456  0.00  0.00     0.001 A 
ATOM      9  C   UNL d   1      59.238  -0.634  28.456  0.00  0.00     0.002 A 
ENDROOT
BRANCH   1  10
ATOM     10  C   UNL d   1      57.428   0.158  31.400  0.00  0.00     0.159 C 
ATOM     11  S   UNL d   1      57.751   0.534  32.064  0.00  0.00    -0.055 SA
BRANCH  10  12
ATOM     12  N   UNL d   1      56.657  -0.134  31.430  0.00  0.00    -0.233 NA
BRANCH  12  13
ATOM     13  C   UNL d   1      56.277  -0.227  32.161  0.00  0.00     0.082 A 
ATOM     14  C   UNL d   1      56.266  -0.971  32.515  0.00  0.00     0.019 A 
ATOM     15  C   UNL d   1      55.891  -1.073  33.241  0.00  0.00     0.002 A 
ATOM     16  C   UNL d   1      55.529  -0.430  33.609  0.00  0.00     0.000 A 
ATOM     17  C   UNL d   1      55.542   0.318  33.249  0.00  0.00     0.002 A 
ATOM     18  C   UNL d   1      55.917   0.421  32.524  0.00  0.00     0.019 A 
ENDBRANCH  12  13
ENDBRANCH  10  12
ENDBRANCH   1  10
TORSDOF 3
ENDMDL
MODEL 3
REMARK VINA RESULT:      -4.6      1.024      4.408
REMARK  3 active torsions:
REMARK  status: ('A' for Active; 'I' for Inactive)
REMARK    1  A    between atoms: C_4  and  C_1 
REMARK    2  A    between atoms: N_7  and  C_4 
REMARK    3  A    between atoms: C_9  and  N_7 
ROOT
ATOM      1  C   UNL d   1      57.053  -0.163  31.594  0.00  0.00     0.139 A 
ATOM      2  N   UNL d   1      57.293  -0.848  31.232  0.00  0.00    -0.236 NA
ATOM      3  S   UNL d   1      57.377   0.480  31.201  0.00  0.00    -0.064 SA
ATOM      4  C   UNL d   1      57.782  -0.639  30.589  0.00  0.00     0.088 A 
ATOM      5  C   UNL d   1      57.833   0.182  30.572  0.00  0.00     0.049 A 
ATOM      6  C   UNL d   1      58.182  -1.090  30.026  0.00  0.00     0.020 A 
ATOM      7  C   UNL d   1      58.286   0.561  29.988  0.00  0.00     0.008 A 
ATOM      8  C   UNL d   1      58.686   0.111  29.425  0.00  0.00     0.001 A 
ATOM      9  C   UNL d   1      58.633  -0.718  29.445  0.00  0.00     0.002 A 
ENDROOT
BRANCH   1  10
ATOM     10  C   UNL d   1      56.558  -0.130  32.259  0.00  0.00     0.159 C 
ATOM     11  S   UNL d   1      56.240  -0.825  32.577  0.00  0.00    -0.055 SA
BRANCH  10  12
ATOM     12  N   UNL d   1      56.382   0.597  32.606  0.00  0.00    -0.233 NA
BRANCH  12  13
ATOM     13  C   UNL d   1      55.942   0.626  33.309  0.00  0.00     0.082 A 
ATOM     14  C   UNL d   1      55.119   0.629  33.267  0.00  0.00     0.019 A 
ATOM     15  C   UNL d   1      54.674   0.656  33.959  0.00  0.00     0.002 A 
ATOM     16  C   UNL d   1      55.055   0.681  34.690  0.00  0.00     0.000 A 
ATOM     17  C   UNL d   1      55.884   0.678  34.728  0.00  0.00     0.002 A 
ATOM     18  C   UNL d   1      56.329   0.651  34.037  0.00  0.00     0.019 A 
ENDBRANCH  12  13
ENDBRANCH  10  12
ENDBRANCH   1  10
TORSDOF 3
ENDMDL
