MODEL 1
REMARK VINA RESULT:      22.6      0.000      0.000
REMARK  4 active torsions:
REMARK  status: ('A' for Active; 'I' for Inactive)
REMARK    1  A    between atoms: N_6  and  C_2 
REMARK    2  A    between atoms: C_7  and  C_3 
REMARK    3  A    between atoms: C_10  and  N_6 
REMARK    4  A    between atoms: O_14  and  C_11 
ROOT
ATOM      1  N   UNL d   1     -54.711-101.508 -37.433  0.00  0.00    -0.221 NA
ATOM      2  C   UNL d   1     -54.875-101.750 -36.665  0.00  0.00     0.194 A 
ATOM      3  C   UNL d   1     -54.955-102.105 -37.933  0.00  0.00     0.090 A 
ATOM      4  S   UNL d   1     -55.216-102.490 -36.715  0.00  0.00    -0.046 SA
ATOM      5  C   UNL d   1     -55.269-102.716 -37.490  0.00  0.00     0.058 A 
ENDROOT
BRANCH   3   6
ATOM      6  C   UNL d   1     -54.927-102.161 -38.755  0.00  0.00     0.018 A 
ATOM      7  C   UNL d   1     -54.755-102.839 -39.115  0.00  0.00     0.004 A 
ATOM      8  C   UNL d   1     -54.730-102.880 -39.948  0.00  0.00     0.024 A 
ATOM      9  C   UNL d   1     -54.880-102.235 -40.367  0.00  0.00     0.094 A 
ATOM     10  C   UNL d   1     -55.059-101.523 -40.018  0.00  0.00     0.024 A 
ATOM     11  C   UNL d   1     -55.088-101.466 -39.196  0.00  0.00     0.004 A 
BRANCH   9  12
ATOM     12  O   UNL d   1     -54.851-102.289 -41.218  0.00  0.00    -0.328 OA
ATOM     13  C   UNL d   1     -54.720-101.593 -41.649  0.00  0.00     0.181 C 
ENDBRANCH   9  12
ENDBRANCH   3   6
BRANCH   2  14
ATOM     14  N   UNL d   1     -54.716-101.310 -35.983  0.00  0.00    -0.221 NA
BRANCH  14  15
ATOM     15  C   UNL d   1     -54.728-100.494 -36.013  0.00  0.00     0.084 A 
ATOM     16  C   UNL d   1     -54.714-100.037 -35.316  0.00  0.00     0.019 A 
ATOM     17  C   UNL d   1     -54.726 -99.198 -35.334  0.00  0.00     0.002 A 
ATOM     18  C   UNL d   1     -54.754 -98.814 -36.067  0.00  0.00     0.000 A 
ATOM     19  C   UNL d   1     -54.769 -99.283 -36.788  0.00  0.00     0.002 A 
ATOM     20  C   UNL d   1     -54.756-100.103 -36.760  0.00  0.00     0.019 A 
ENDBRANCH  14  15
ENDBRANCH   2  14
TORSDOF 4
ENDMDL
