MODEL 1
REMARK VINA RESULT:      -4.1      0.000      0.000
REMARK  3 active torsions:
REMARK  status: ('A' for Active; 'I' for Inactive)
REMARK    1  A    between atoms: N_3  and  C_1 
REMARK    2  A    between atoms: C_5  and  C_2 
REMARK       I    between atoms: C_4  and  N_3 
REMARK    3  A    between atoms: C_10  and  C_4 
ROOT
ATOM      1  N   UNL d   1      57.810   0.013  31.079  0.00  0.00    -0.201 NA
ATOM      2  C   UNL d   1      57.670   0.250  31.858  0.00  0.00     0.280 C 
ATOM      3  O   UNL d   1      58.245   0.666  32.275  0.00  0.00    -0.265 OA
ENDROOT
BRANCH   1   4
ATOM      4  C   UNL d   1      58.531   0.194  30.721  0.00  0.00     0.119 A 
ATOM      5  C   UNL d   1      58.768  -0.038  29.962  0.00  0.00     0.084 A 
ATOM      6  C   UNL d   1      59.533   0.266  29.828  0.00  0.00     0.014 A 
ATOM      7  C   UNL d   1      59.759   0.682  30.506  0.00  0.00     0.037 A 
ATOM      8  S   UNL d   1      59.140   0.634  31.051  0.00  0.00    -0.067 SA
BRANCH   5   9
ATOM      9  C   UNL d   1      58.330  -0.489  29.427  0.00  0.00     0.299 C 
ATOM     10  O   UNL d   1      57.746  -0.124  28.964  0.00  0.00    -0.264 OA
ATOM     11  N   UNL d   1      58.472  -1.301  29.352  0.00  0.00    -0.102 N 
ENDBRANCH   5   9
ENDBRANCH   1   4
BRANCH   2  12
ATOM     12  C   UNL d   1      56.950   0.068  32.211  0.00  0.00     0.058 A 
ATOM     13  C   UNL d   1      56.421   0.673  32.391  0.00  0.00     0.005 A 
ATOM     14  C   UNL d   1      55.697   0.482  32.748  0.00  0.00     0.000 A 
ATOM     15  C   UNL d   1      55.510  -0.301  32.919  0.00  0.00     0.000 A 
ATOM     16  C   UNL d   1      56.047  -0.899  32.735  0.00  0.00     0.000 A 
ATOM     17  C   UNL d   1      56.771  -0.717  32.379  0.00  0.00     0.005 A 
ENDBRANCH   2  12
TORSDOF 3
ENDMDL
MODEL 2
REMARK VINA RESULT:      -4.0      1.221      1.297
REMARK  3 active torsions:
REMARK  status: ('A' for Active; 'I' for Inactive)
REMARK    1  A    between atoms: N_3  and  C_1 
REMARK    2  A    between atoms: C_5  and  C_2 
REMARK       I    between atoms: C_4  and  N_3 
REMARK    3  A    between atoms: C_10  and  C_4 
ROOT
ATOM      1  N   UNL d   1      57.831  -0.500  30.650  0.00  0.00    -0.201 NA
ATOM      2  C   UNL d   1      57.273  -0.014  31.017  0.00  0.00     0.280 C 
ATOM      3  O   UNL d   1      57.024   0.682  30.652  0.00  0.00    -0.265 OA
ENDROOT
BRANCH   1   4
ATOM      4  C   UNL d   1      58.139  -0.285  29.916  0.00  0.00     0.119 A 
ATOM      5  C   UNL d   1      58.545  -0.785  29.394  0.00  0.00     0.084 A 
ATOM      6  C   UNL d   1      58.755  -0.338  28.722  0.00  0.00     0.014 A 
ATOM      7  C   UNL d   1      58.477   0.432  28.837  0.00  0.00     0.037 A 
ATOM      8  S   UNL d   1      58.099   0.459  29.571  0.00  0.00    -0.067 SA
BRANCH   5   9
ATOM      9  C   UNL d   1      58.714  -1.584  29.512  0.00  0.00     0.299 C 
ATOM     10  O   UNL d   1      58.134  -2.155  29.346  0.00  0.00    -0.264 OA
ATOM     11  N   UNL d   1      59.457  -1.816  29.794  0.00  0.00    -0.102 N 
ENDBRANCH   5   9
ENDBRANCH   1   4
BRANCH   2  12
ATOM     12  C   UNL d   1      56.968  -0.231  31.749  0.00  0.00     0.058 A 
ATOM     13  C   UNL d   1      57.090   0.258  32.401  0.00  0.00     0.005 A 
ATOM     14  C   UNL d   1      56.780   0.033  33.136  0.00  0.00     0.000 A 
ATOM     15  C   UNL d   1      56.356  -0.669  33.214  0.00  0.00     0.000 A 
ATOM     16  C   UNL d   1      56.240  -1.150  32.555  0.00  0.00     0.000 A 
ATOM     17  C   UNL d   1      56.546  -0.933  31.818  0.00  0.00     0.005 A 
ENDBRANCH   2  12
TORSDOF 3
ENDMDL
MODEL 3
REMARK VINA RESULT:      -3.3      1.530      3.443
REMARK  3 active torsions:
REMARK  status: ('A' for Active; 'I' for Inactive)
REMARK    1  A    between atoms: N_3  and  C_1 
REMARK    2  A    between atoms: C_5  and  C_2 
REMARK       I    between atoms: C_4  and  N_3 
REMARK    3  A    between atoms: C_10  and  C_4 
ROOT
ATOM      1  N   UNL d   1      57.123   0.003  31.891  0.00  0.00    -0.201 NA
ATOM      2  C   UNL d   1      57.810   0.262  31.513  0.00  0.00     0.280 C 
ATOM      3  O   UNL d   1      58.381   0.682  31.932  0.00  0.00    -0.265 OA
ENDROOT
BRANCH   1   4
ATOM      4  C   UNL d   1      57.011   0.166  32.692  0.00  0.00     0.119 A 
ATOM      5  C   UNL d   1      56.422  -0.156  33.176  0.00  0.00     0.084 A 
ATOM      6  C   UNL d   1      56.516   0.162  33.941  0.00  0.00     0.014 A 
ATOM      7  C   UNL d   1      57.163   0.677  33.920  0.00  0.00     0.037 A 
ATOM      8  S   UNL d   1      57.464   0.676  33.151  0.00  0.00    -0.067 SA
BRANCH   5   9
ATOM      9  C   UNL d   1      55.841  -0.696  32.949  0.00  0.00     0.299 C 
ATOM     10  O   UNL d   1      55.088  -0.420  32.730  0.00  0.00    -0.264 OA
ATOM     11  N   UNL d   1      56.005  -1.506  32.939  0.00  0.00    -0.102 N 
ENDBRANCH   5   9
ENDBRANCH   1   4
BRANCH   2  12
ATOM     12  C   UNL d   1      57.917   0.098  30.714  0.00  0.00     0.058 A 
ATOM     13  C   UNL d   1      57.762   0.682  30.155  0.00  0.00     0.005 A 
ATOM     14  C   UNL d   1      57.872   0.509  29.351  0.00  0.00     0.000 A 
ATOM     15  C   UNL d   1      58.132  -0.235  29.116  0.00  0.00     0.000 A 
ATOM     16  C   UNL d   1      58.284  -0.813  29.684  0.00  0.00     0.000 A 
ATOM     17  C   UNL d   1      58.176  -0.649  30.487  0.00  0.00     0.005 A 
ENDBRANCH   2  12
TORSDOF 3
ENDMDL
MODEL 4
REMARK VINA RESULT:      -2.6      1.889      2.617
REMARK  3 active torsions:
REMARK  status: ('A' for Active; 'I' for Inactive)
REMARK    1  A    between atoms: N_3  and  C_1 
REMARK    2  A    between atoms: C_5  and  C_2 
REMARK       I    between atoms: C_4  and  N_3 
REMARK    3  A    between atoms: C_10  and  C_4 
ROOT
ATOM      1  N   UNL d   1      58.846  -1.007  29.755  0.00  0.00    -0.201 NA
ATOM      2  C   UNL d   1      58.115  -1.202  30.088  0.00  0.00     0.280 C 
ATOM      3  O   UNL d   1      57.771  -1.934  29.933  0.00  0.00    -0.265 OA
ENDROOT
BRANCH   1   4
ATOM      4  C   UNL d   1      59.230  -1.548  29.266  0.00  0.00     0.119 A 
ATOM      5  C   UNL d   1      59.977  -1.449  28.924  0.00  0.00     0.084 A 
ATOM      6  C   UNL d   1      60.146  -2.131  28.474  0.00  0.00     0.014 A 
ATOM      7  C   UNL d   1      59.500  -2.643  28.544  0.00  0.00     0.037 A 
ATOM      8  S   UNL d   1      58.940  -2.281  29.032  0.00  0.00    -0.067 SA
BRANCH   5   9
ATOM      9  C   UNL d   1      60.473  -0.795  29.008  0.00  0.00     0.299 C 
ATOM     10  O   UNL d   1      60.399  -0.155  28.483  0.00  0.00    -0.264 OA
ATOM     11  N   UNL d   1      61.040  -0.776  29.610  0.00  0.00    -0.102 N 
ENDBRANCH   5   9
ENDBRANCH   1   4
BRANCH   2  12
ATOM     12  C   UNL d   1      57.736  -0.659  30.575  0.00  0.00     0.058 A 
ATOM     13  C   UNL d   1      57.361  -0.921  31.260  0.00  0.00     0.005 A 
ATOM     14  C   UNL d   1      56.980  -0.368  31.747  0.00  0.00     0.000 A 
ATOM     15  C   UNL d   1      56.977   0.431  31.549  0.00  0.00     0.000 A 
ATOM     16  C   UNL d   1      57.356   0.682  30.862  0.00  0.00     0.000 A 
ATOM     17  C   UNL d   1      57.738   0.137  30.371  0.00  0.00     0.005 A 
ENDBRANCH   2  12
TORSDOF 3
ENDMDL
MODEL 5
REMARK VINA RESULT:      -2.3      2.230      4.097
REMARK  3 active torsions:
REMARK  status: ('A' for Active; 'I' for Inactive)
REMARK    1  A    between atoms: N_3  and  C_1 
REMARK    2  A    between atoms: C_5  and  C_2 
REMARK       I    between atoms: C_4  and  N_3 
REMARK    3  A    between atoms: C_10  and  C_4 
ROOT
ATOM      1  N   UNL d   1      58.724  -1.364  29.433  0.00  0.00    -0.201 NA
ATOM      2  C   UNL d   1      59.347  -1.620  28.954  0.00  0.00     0.280 C 
ATOM      3  O   UNL d   1      59.731  -1.089  28.455  0.00  0.00    -0.265 OA
ENDROOT
BRANCH   1   4
ATOM      4  C   UNL d   1      58.488  -0.575  29.408  0.00  0.00     0.119 A 
ATOM      5  C   UNL d   1      58.083  -0.169  30.007  0.00  0.00     0.084 A 
ATOM      6  C   UNL d   1      57.958   0.613  29.747  0.00  0.00     0.014 A 
ATOM      7  C   UNL d   1      58.286   0.682  28.992  0.00  0.00     0.037 A 
ATOM      8  S   UNL d   1      58.610  -0.050  28.788  0.00  0.00    -0.067 SA
BRANCH   5   9
ATOM      9  C   UNL d   1      57.844  -0.478  30.733  0.00  0.00     0.299 C 
ATOM     10  O   UNL d   1      57.308  -1.113  30.752  0.00  0.00    -0.264 OA
ATOM     11  N   UNL d   1      58.134  -0.159  31.439  0.00  0.00    -0.102 N 
ENDBRANCH   5   9
ENDBRANCH   1   4
BRANCH   2  12
ATOM     12  C   UNL d   1      59.580  -2.407  28.982  0.00  0.00     0.058 A 
ATOM     13  C   UNL d   1      60.278  -2.612  29.367  0.00  0.00     0.005 A 
ATOM     14  C   UNL d   1      60.507  -3.409  29.391  0.00  0.00     0.000 A 
ATOM     15  C   UNL d   1      60.043  -3.987  29.035  0.00  0.00     0.000 A 
ATOM     16  C   UNL d   1      59.345  -3.772  28.652  0.00  0.00     0.000 A 
ATOM     17  C   UNL d   1      59.110  -2.980  28.623  0.00  0.00     0.005 A 
ENDBRANCH   2  12
TORSDOF 3
ENDMDL
