MODEL 1
REMARK VINA RESULT:      68.4      0.000      0.000
REMARK  3 active torsions:
REMARK  status: ('A' for Active; 'I' for Inactive)
REMARK    1  A    between atoms: N_6  and  C_1 
REMARK       I    between atoms: C_8  and  N_6 
REMARK       I    between atoms: C_11  and  N_7 
REMARK    2  A    between atoms: C_14  and  C_8 
REMARK    3  A    between atoms: O_20  and  C_19 
ROOT
ATOM      1  C   UNL d   1     -49.974  26.759  33.732  0.00  0.00     0.124 A 
ATOM      2  C   UNL d   1     -50.779  26.904  33.577  0.00  0.00     0.093 A 
ATOM      3  C   UNL d   1     -50.612  25.577  33.642  0.00  0.00     0.049 A 
ATOM      4  C   UNL d   1     -51.168  26.171  33.522  0.00  0.00     0.021 A 
ATOM      5  S   UNL d   1     -49.874  25.927  33.773  0.00  0.00    -0.066 SA
ATOM      6  N   UNL d   1     -51.630  24.583  33.476  0.00  0.00    -0.272 N 
ATOM      7  C   UNL d   1     -50.845  24.773  33.619  0.00  0.00     0.089 A 
ATOM      8  C   UNL d   1     -51.122  27.651  33.493  0.00  0.00     0.103 C 
ATOM      9  C   UNL d   1     -51.872  23.788  33.451  0.00  0.00     0.265 C 
ATOM     10  N   UNL d   1     -51.460  28.385  33.411  0.00  0.00    -0.191 NA
ATOM     11  C   UNL d   1     -51.968  25.985  33.377  0.00  0.00     0.020 A 
ATOM     12  C   UNL d   1     -52.192  25.189  33.355  0.00  0.00     0.083 A 
ATOM     13  O   UNL d   1     -51.319  23.190  33.570  0.00  0.00    -0.267 OA
ATOM     14  C   UNL d   1     -52.657  23.598  33.308  0.00  0.00     0.066 C 
ENDROOT
BRANCH   1  15
ATOM     15  N   UNL d   1     -49.382  27.327  33.829  0.00  0.00    -0.201 NA
ATOM     16  C   UNL d   1     -49.178  27.584  34.586  0.00  0.00     0.280 C 
ATOM     17  O   UNL d   1     -49.559  27.281  35.251  0.00  0.00    -0.265 OA
BRANCH  16  18
ATOM     18  C   UNL d   1     -48.598  28.141  34.681  0.00  0.00     0.060 A 
ATOM     19  C   UNL d   1     -48.787  28.944  34.702  0.00  0.00     0.029 A 
ATOM     20  C   UNL d   1     -48.197  29.510  34.799  0.00  0.00     0.094 A 
ATOM     21  C   UNL d   1     -47.414  29.278  34.876  0.00  0.00     0.024 A 
ATOM     22  C   UNL d   1     -47.216  28.477  34.856  0.00  0.00     0.002 A 
ATOM     23  C   UNL d   1     -47.814  27.903  34.758  0.00  0.00     0.005 A 
BRANCH  20  24
ATOM     24  O   UNL d   1     -48.382  30.333  34.821  0.00  0.00    -0.328 OA
ATOM     25  C   UNL d   1     -47.789  30.901  34.856  0.00  0.00     0.181 C 
ENDBRANCH  20  24
ENDBRANCH  16  18
ENDBRANCH   1  15
TORSDOF 3
ENDMDL
