MODEL 1
REMARK VINA RESULT:      -5.2      0.000      0.000
REMARK  5 active torsions:
REMARK  status: ('A' for Active; 'I' for Inactive)
REMARK    1  A    between atoms: N_2  and  C_1 
REMARK       I    between atoms: N_4  and  C_5 
REMARK    2  A    between atoms: C_5  and  C_9 
REMARK    3  A    between atoms: C_18  and  N_6 
REMARK    4  A    between atoms: C_10  and  C_8 
REMARK    5  A    between atoms: C_9  and  C_10 
ROOT
ATOM      1  N   UNL d   1     -41.578-122.328 -51.043  0.00  0.00    -0.269 N 
ATOM      2  C   UNL d   1     -41.420-122.005 -51.804  0.00  0.00     0.265 C 
ATOM      3  N   UNL d   1     -41.874-122.921 -49.537  0.00  0.00    -0.301 N 
ATOM      4  C   UNL d   1     -41.872-123.094 -50.952  0.00  0.00     0.102 A 
ATOM      5  C   UNL d   1     -41.432-121.858 -50.377  0.00  0.00     0.102 A 
ATOM      6  C   UNL d   1     -42.020-123.392 -50.206  0.00  0.00     0.100 A 
ATOM      7  C   UNL d   1     -41.580-122.150 -49.612  0.00  0.00     0.100 A 
ATOM      8  O   UNL d   1     -41.125-121.235 -51.879  0.00  0.00    -0.267 OA
ENDROOT
BRANCH   2   9
ATOM      9  C   UNL d   1     -41.562-122.468 -52.476  0.00  0.00     0.062 C 
BRANCH   9  10
ATOM     10  C   UNL d   1     -41.128-122.356 -53.174  0.00  0.00     0.011 C 
BRANCH  10  11
ATOM     11  C   UNL d   1     -41.477-122.428 -53.922  0.00  0.00     0.031 A 
ATOM     12  S   UNL d   1     -41.930-121.890 -54.366  0.00  0.00    -0.064 SA
ATOM     13  C   UNL d   1     -42.126-122.273 -55.074  0.00  0.00     0.156 A 
ATOM     14  C   UNL d   1     -41.809-123.006 -55.064  0.00  0.00     0.031 A 
ATOM     15  C   UNL d   1     -41.403-123.125 -54.362  0.00  0.00     0.009 A 
BRANCH  13  16
ATOM     16  N   UNL d   1     -42.584-121.961 -55.716  0.00  0.00    -0.107 N 
ATOM     17  O   UNL d   1     -42.232-121.433 -56.235  0.00  0.00    -0.531 OA
ATOM     18  O   UNL d   1     -43.372-122.201 -55.799  0.00  0.00    -0.531 OA
ENDBRANCH  13  16
ENDBRANCH  10  11
ENDBRANCH   9  10
ENDBRANCH   2   9
BRANCH   3  19
ATOM     19  C   UNL d   1     -42.023-123.220 -48.783  0.00  0.00     0.064 A 
ATOM     20  C   UNL d   1     -42.791-123.336 -48.535  0.00  0.00     0.018 A 
ATOM     21  C   UNL d   1     -42.944-123.640 -47.766  0.00  0.00     0.002 A 
ATOM     22  C   UNL d   1     -42.318-123.816 -47.277  0.00  0.00     0.000 A 
ATOM     23  C   UNL d   1     -41.540-123.700 -47.525  0.00  0.00     0.002 A 
ATOM     24  C   UNL d   1     -41.396-123.401 -48.280  0.00  0.00     0.018 A 
ENDBRANCH   3  19
TORSDOF 5
ENDMDL
MODEL 2
REMARK VINA RESULT:      -3.1      2.335      5.872
REMARK  5 active torsions:
REMARK  status: ('A' for Active; 'I' for Inactive)
REMARK    1  A    between atoms: N_2  and  C_1 
REMARK       I    between atoms: N_4  and  C_5 
REMARK    2  A    between atoms: C_5  and  C_9 
REMARK    3  A    between atoms: C_18  and  N_6 
REMARK    4  A    between atoms: C_10  and  C_8 
REMARK    5  A    between atoms: C_9  and  C_10 
ROOT
ATOM      1  N   UNL d   1     -41.629-122.096 -51.837  0.00  0.00    -0.269 N 
ATOM      2  C   UNL d   1     -41.526-122.023 -51.005  0.00  0.00     0.265 C 
ATOM      3  N   UNL d   1     -41.810-122.199 -53.470  0.00  0.00    -0.301 N 
ATOM      4  C   UNL d   1     -42.026-122.740 -52.168  0.00  0.00     0.102 A 
ATOM      5  C   UNL d   1     -41.322-121.502 -52.326  0.00  0.00     0.102 A 
ATOM      6  C   UNL d   1     -42.118-122.794 -52.978  0.00  0.00     0.100 A 
ATOM      7  C   UNL d   1     -41.409-121.547 -53.153  0.00  0.00     0.100 A 
ATOM      8  O   UNL d   1     -41.125-121.371 -50.689  0.00  0.00    -0.267 OA
ENDROOT
BRANCH   2   9
ATOM      9  C   UNL d   1     -41.829-122.611 -50.508  0.00  0.00     0.062 C 
BRANCH   9  10
ATOM     10  C   UNL d   1     -41.505-122.749 -49.758  0.00  0.00     0.011 C 
BRANCH  10  11
ATOM     11  C   UNL d   1     -41.943-123.102 -49.150  0.00  0.00     0.031 A 
ATOM     12  S   UNL d   1     -41.826-123.108 -48.326  0.00  0.00    -0.064 SA
ATOM     13  C   UNL d   1     -42.444-123.552 -48.002  0.00  0.00     0.156 A 
ATOM     14  C   UNL d   1     -42.916-123.805 -48.595  0.00  0.00     0.031 A 
ATOM     15  C   UNL d   1     -42.627-123.539 -49.314  0.00  0.00     0.009 A 
BRANCH  13  16
ATOM     16  N   UNL d   1     -42.578-123.725 -47.182  0.00  0.00    -0.107 N 
ATOM     17  O   UNL d   1     -43.349-123.795 -46.912  0.00  0.00    -0.531 OA
ATOM     18  O   UNL d   1     -41.926-123.817 -46.681  0.00  0.00    -0.531 OA
ENDBRANCH  13  16
ENDBRANCH  10  11
ENDBRANCH   9  10
ENDBRANCH   2   9
BRANCH   3  19
ATOM     19  C   UNL d   1     -41.901-122.253 -54.287  0.00  0.00     0.064 A 
ATOM     20  C   UNL d   1     -41.372-122.688 -54.729  0.00  0.00     0.018 A 
ATOM     21  C   UNL d   1     -41.465-122.743 -55.563  0.00  0.00     0.002 A 
ATOM     22  C   UNL d   1     -42.086-122.358 -55.920  0.00  0.00     0.000 A 
ATOM     23  C   UNL d   1     -42.623-121.916 -55.476  0.00  0.00     0.002 A 
ATOM     24  C   UNL d   1     -42.527-121.865 -54.659  0.00  0.00     0.018 A 
ENDBRANCH   3  19
TORSDOF 5
ENDMDL
