MODEL 1
REMARK VINA RESULT:      46.1      0.000      0.000
REMARK  4 active torsions:
REMARK  status: ('A' for Active; 'I' for Inactive)
REMARK    1  A    between atoms: C_3  and  C_1 
REMARK    2  A    between atoms: C_4  and  C_3 
REMARK    3  A    between atoms: C_7  and  C_4 
REMARK    4  A    between atoms: C_14  and  C_7 
ROOT
ATOM      1  C   UNL d   1     -55.032-102.107 -41.746  0.00  0.00     0.042 C 
ENDROOT
BRANCH   1   2
ATOM      2  C   UNL d   1     -55.664-102.386 -41.282  0.00  0.00     0.199 C 
ATOM      3  O   UNL d   1     -56.411-102.588 -41.656  0.00  0.00    -0.286 OA
BRANCH   2   4
ATOM      4  C   UNL d   1     -55.565-102.463 -40.491  0.00  0.00     0.078 A 
ATOM      5  C   UNL d   1     -56.187-102.702 -40.005  0.00  0.00     0.199 A 
ATOM      6  C   UNL d   1     -56.073-102.776 -39.195  0.00  0.00     0.042 A 
ATOM      7  O   UNL d   1     -56.947-102.874 -40.325  0.00  0.00    -0.286 OA
ATOM      8  C   UNL d   1     -55.334-102.611 -38.866  0.00  0.00     0.003 A 
ATOM      9  C   UNL d   1     -54.711-102.372 -39.352  0.00  0.00     0.000 A 
ATOM     10  C   UNL d   1     -55.219-102.686 -38.056  0.00  0.00     0.000 C 
ATOM     11  C   UNL d   1     -54.828-102.298 -40.167  0.00  0.00     0.006 A 
ENDBRANCH   2   4
ENDBRANCH   1   2
BRANCH   1  12
ATOM     12  C   UNL d   1     -54.933-101.295 -41.871  0.00  0.00     0.003 C 
BRANCH  12  13
ATOM     13  C   UNL d   1     -54.886-101.002 -42.636  0.00  0.00     0.002 A 
ATOM     14  C   UNL d   1     -54.866-100.185 -42.763  0.00  0.00     0.027 A 
ATOM     15  C   UNL d   1     -54.818 -99.892 -43.529  0.00  0.00     0.123 A 
ATOM     16  O   UNL d   1     -54.798 -99.071 -43.660  0.00  0.00    -0.301 OA
ATOM     17  C   UNL d   1     -54.792-100.410 -44.171  0.00  0.00     0.123 A 
ATOM     18  C   UNL d   1     -54.750 -98.772 -44.429  0.00  0.00     0.149 A 
ATOM     19  C   UNL d   1     -54.723 -99.290 -45.071  0.00  0.00     0.149 A 
ATOM     20  O   UNL d   1     -54.744-100.106 -44.943  0.00  0.00    -0.301 OA
ATOM     21  C   UNL d   1     -54.812-101.221 -44.047  0.00  0.00     0.027 A 
ATOM     22  C   UNL d   1     -54.860-101.520 -43.278  0.00  0.00     0.002 A 
ENDBRANCH  12  13
ENDBRANCH   1  12
TORSDOF 4
ENDMDL
