MODEL 1
REMARK VINA RESULT:      -7.7      0.000      0.000
REMARK  4 active torsions:
REMARK  status: ('A' for Active; 'I' for Inactive)
REMARK       I    between atoms: C_5  and  N_1 
REMARK    1  A    between atoms: N_3  and  C_8 
REMARK    2  A    between atoms: C_7  and  C_5 
REMARK    3  A    between atoms: C_11  and  C_7 
REMARK    4  A    between atoms: C_15  and  C_11 
ROOT
ATOM      1  N   UNL d   1     -48.802  13.815  22.215  0.00  0.00    -0.256 N 
ATOM      2  C   UNL d   1     -48.910  13.316  21.558  0.00  0.00     0.185 A 
ATOM      3  N   UNL d   1     -49.679  13.421  21.324  0.00  0.00    -0.224 NA
ATOM      4  C   UNL d   1     -48.097  13.908  22.660  0.00  0.00     0.266 C 
ATOM      5  C   UNL d   1     -49.510  14.201  22.353  0.00  0.00     0.086 A 
ATOM      6  C   UNL d   1     -50.057  13.960  21.803  0.00  0.00     0.099 A 
ATOM      7  O   UNL d   1     -48.063  14.431  23.313  0.00  0.00    -0.267 OA
ATOM      8  C   UNL d   1     -49.719  14.758  22.933  0.00  0.00     0.019 A 
ATOM      9  C   UNL d   1     -50.816  14.261  21.813  0.00  0.00     0.021 A 
ATOM     10  C   UNL d   1     -50.491  15.075  22.957  0.00  0.00     0.002 A 
ATOM     11  C   UNL d   1     -51.064  14.821  22.378  0.00  0.00     0.002 A 
ENDROOT
BRANCH   4  12
ATOM     12  C   UNL d   1     -47.426  13.483  22.458  0.00  0.00     0.061 C 
BRANCH  12  13
ATOM     13  C   UNL d   1     -46.730  13.597  22.886  0.00  0.00     0.005 C 
BRANCH  13  14
ATOM     14  C   UNL d   1     -46.066  13.146  22.700  0.00  0.00     0.002 A 
ATOM     15  C   UNL d   1     -45.915  12.441  23.130  0.00  0.00     0.024 A 
ATOM     16  C   UNL d   1     -45.261  11.992  22.951  0.00  0.00     0.127 A 
ATOM     17  C   UNL d   1     -44.745  12.228  22.346  0.00  0.00     0.024 A 
ATOM     18  C   UNL d   1     -44.897  12.922  21.926  0.00  0.00     0.002 A 
ATOM     19  C   UNL d   1     -45.559  13.387  22.099  0.00  0.00     0.000 A 
BRANCH  16  20
ATOM     20  N   UNL d   1     -45.082  11.296  23.351  0.00  0.00    -0.114 N 
ATOM     21  O   UNL d   1     -45.697  10.849  23.698  0.00  0.00    -0.532 OA
ATOM     22  O   UNL d   1     -44.311  11.042  23.411  0.00  0.00    -0.532 OA
ENDBRANCH  16  20
ENDBRANCH  13  14
ENDBRANCH  12  13
ENDBRANCH   4  12
TORSDOF 4
ENDMDL
MODEL 2
REMARK VINA RESULT:      -6.3      1.326      5.032
REMARK  4 active torsions:
REMARK  status: ('A' for Active; 'I' for Inactive)
REMARK       I    between atoms: C_5  and  N_1 
REMARK    1  A    between atoms: N_3  and  C_8 
REMARK    2  A    between atoms: C_7  and  C_5 
REMARK    3  A    between atoms: C_11  and  C_7 
REMARK    4  A    between atoms: C_15  and  C_11 
ROOT
ATOM      1  N   UNL d   1     -45.945  11.753  23.184  0.00  0.00    -0.256 N 
ATOM      2  C   UNL d   1     -46.504  11.220  23.491  0.00  0.00     0.185 A 
ATOM      3  N   UNL d   1     -46.086  10.556  23.698  0.00  0.00    -0.224 NA
ATOM      4  C   UNL d   1     -46.099  12.524  22.891  0.00  0.00     0.266 C 
ATOM      5  C   UNL d   1     -45.212  11.391  23.216  0.00  0.00     0.086 A 
ATOM      6  C   UNL d   1     -45.294  10.649  23.534  0.00  0.00     0.099 A 
ATOM      7  O   UNL d   1     -45.483  13.007  22.595  0.00  0.00    -0.267 OA
ATOM      8  C   UNL d   1     -44.462  11.665  22.985  0.00  0.00     0.019 A 
ATOM      9  C   UNL d   1     -44.645  10.164  23.631  0.00  0.00     0.021 A 
ATOM     10  C   UNL d   1     -43.788  11.182  23.077  0.00  0.00     0.002 A 
ATOM     11  C   UNL d   1     -43.877  10.401  23.412  0.00  0.00     0.002 A 
ENDROOT
BRANCH   4  12
ATOM     12  C   UNL d   1     -46.865  12.817  22.892  0.00  0.00     0.061 C 
BRANCH  12  13
ATOM     13  C   UNL d   1     -47.063  13.435  22.383  0.00  0.00     0.005 C 
BRANCH  13  14
ATOM     14  C   UNL d   1     -47.858  13.586  22.225  0.00  0.00     0.002 A 
ATOM     15  C   UNL d   1     -48.262  14.172  22.670  0.00  0.00     0.024 A 
ATOM     16  C   UNL d   1     -49.046  14.324  22.518  0.00  0.00     0.127 A 
ATOM     17  C   UNL d   1     -49.446  13.903  21.926  0.00  0.00     0.024 A 
ATOM     18  C   UNL d   1     -49.045  13.328  21.492  0.00  0.00     0.002 A 
ATOM     19  C   UNL d   1     -48.248  13.163  21.637  0.00  0.00     0.000 A 
BRANCH  16  20
ATOM     20  N   UNL d   1     -49.472  14.891  22.934  0.00  0.00    -0.114 N 
ATOM     21  O   UNL d   1     -50.290  14.782  23.063  0.00  0.00    -0.532 OA
ATOM     22  O   UNL d   1     -49.101  15.557  23.220  0.00  0.00    -0.532 OA
ENDBRANCH  16  20
ENDBRANCH  13  14
ENDBRANCH  12  13
ENDBRANCH   4  12
TORSDOF 4
ENDMDL
MODEL 3
REMARK VINA RESULT:      -5.9      8.366      8.984
REMARK  4 active torsions:
REMARK  status: ('A' for Active; 'I' for Inactive)
REMARK       I    between atoms: C_5  and  N_1 
REMARK    1  A    between atoms: N_3  and  C_8 
REMARK    2  A    between atoms: C_7  and  C_5 
REMARK    3  A    between atoms: C_11  and  C_7 
REMARK    4  A    between atoms: C_15  and  C_11 
ROOT
ATOM      1  N   UNL d   1     -39.698  15.312  18.843  0.00  0.00    -0.256 N 
ATOM      2  C   UNL d   1     -38.892  15.482  18.726  0.00  0.00     0.185 A 
ATOM      3  N   UNL d   1     -38.824  15.714  17.952  0.00  0.00    -0.224 NA
ATOM      4  C   UNL d   1     -40.054  15.049  19.555  0.00  0.00     0.266 C 
ATOM      5  C   UNL d   1     -40.085  15.448  18.135  0.00  0.00     0.086 A 
ATOM      6  C   UNL d   1     -39.548  15.697  17.580  0.00  0.00     0.099 A 
ATOM      7  O   UNL d   1     -40.876  14.897  19.599  0.00  0.00    -0.267 OA
ATOM      8  C   UNL d   1     -40.888  15.369  17.934  0.00  0.00     0.019 A 
ATOM      9  C   UNL d   1     -39.788  15.873  16.820  0.00  0.00     0.021 A 
ATOM     10  C   UNL d   1     -41.150  15.545  17.161  0.00  0.00     0.002 A 
ATOM     11  C   UNL d   1     -40.583  15.807  16.578  0.00  0.00     0.002 A 
ENDROOT
BRANCH   4  12
ATOM     12  C   UNL d   1     -39.595  14.936  20.225  0.00  0.00     0.061 C 
BRANCH  12  13
ATOM     13  C   UNL d   1     -39.946  14.646  20.913  0.00  0.00     0.005 C 
BRANCH  13  14
ATOM     14  C   UNL d   1     -39.496  14.590  21.601  0.00  0.00     0.002 A 
ATOM     15  C   UNL d   1     -39.198  13.841  21.838  0.00  0.00     0.024 A 
ATOM     16  C   UNL d   1     -38.754  13.781  22.516  0.00  0.00     0.127 A 
ATOM     17  C   UNL d   1     -38.594  14.455  22.972  0.00  0.00     0.024 A 
ATOM     18  C   UNL d   1     -38.888  15.188  22.735  0.00  0.00     0.002 A 
ATOM     19  C   UNL d   1     -39.342  15.263  22.048  0.00  0.00     0.000 A 
BRANCH  16  20
ATOM     20  N   UNL d   1     -38.447  13.064  22.777  0.00  0.00    -0.114 N 
ATOM     21  O   UNL d   1     -38.654  12.777  23.534  0.00  0.00    -0.532 OA
ATOM     22  O   UNL d   1     -37.943  12.635  22.303  0.00  0.00    -0.532 OA
ENDBRANCH  16  20
ENDBRANCH  13  14
ENDBRANCH  12  13
ENDBRANCH   4  12
TORSDOF 4
ENDMDL
MODEL 4
REMARK VINA RESULT:      -5.9      1.548      4.885
REMARK  4 active torsions:
REMARK  status: ('A' for Active; 'I' for Inactive)
REMARK       I    between atoms: C_5  and  N_1 
REMARK    1  A    between atoms: N_3  and  C_8 
REMARK    2  A    between atoms: C_7  and  C_5 
REMARK    3  A    between atoms: C_11  and  C_7 
REMARK    4  A    between atoms: C_15  and  C_11 
ROOT
ATOM      1  N   UNL d   1     -46.680  13.262  22.930  0.00  0.00    -0.256 N 
ATOM      2  C   UNL d   1     -47.021  12.696  23.435  0.00  0.00     0.185 A 
ATOM      3  N   UNL d   1     -46.474  12.101  23.501  0.00  0.00    -0.224 NA
ATOM      4  C   UNL d   1     -47.027  13.986  22.687  0.00  0.00     0.266 C 
ATOM      5  C   UNL d   1     -45.941  12.988  22.711  0.00  0.00     0.086 A 
ATOM      6  C   UNL d   1     -45.809  12.268  23.063  0.00  0.00     0.099 A 
ATOM      7  O   UNL d   1     -46.622  14.510  22.175  0.00  0.00    -0.267 OA
ATOM      8  C   UNL d   1     -45.363  13.325  22.219  0.00  0.00     0.019 A 
ATOM      9  C   UNL d   1     -45.109  11.867  22.937  0.00  0.00     0.021 A 
ATOM     10  C   UNL d   1     -44.642  12.928  22.080  0.00  0.00     0.002 A 
ATOM     11  C   UNL d   1     -44.504  12.170  22.451  0.00  0.00     0.002 A 
ENDROOT
BRANCH   4  12
ATOM     12  C   UNL d   1     -47.776  14.191  22.951  0.00  0.00     0.061 C 
BRANCH  12  13
ATOM     13  C   UNL d   1     -48.178  14.813  22.588  0.00  0.00     0.005 C 
BRANCH  13  14
ATOM     14  C   UNL d   1     -48.996  14.864  22.669  0.00  0.00     0.002 A 
ATOM     15  C   UNL d   1     -49.487  14.366  22.204  0.00  0.00     0.024 A 
ATOM     16  C   UNL d   1     -50.295  14.413  22.281  0.00  0.00     0.127 A 
ATOM     17  C   UNL d   1     -50.635  14.949  22.815  0.00  0.00     0.024 A 
ATOM     18  C   UNL d   1     -50.148  15.436  23.270  0.00  0.00     0.002 A 
ATOM     19  C   UNL d   1     -49.325  15.398  23.201  0.00  0.00     0.000 A 
BRANCH  16  20
ATOM     20  N   UNL d   1     -50.806  13.941  21.842  0.00  0.00    -0.114 N 
ATOM     21  O   UNL d   1     -51.060  14.196  21.088  0.00  0.00    -0.532 OA
ATOM     22  O   UNL d   1     -51.065  13.228  22.138  0.00  0.00    -0.532 OA
ENDBRANCH  16  20
ENDBRANCH  13  14
ENDBRANCH  12  13
ENDBRANCH   4  12
TORSDOF 4
ENDMDL
MODEL 5
REMARK VINA RESULT:      -5.8      7.758     10.033
REMARK  4 active torsions:
REMARK  status: ('A' for Active; 'I' for Inactive)
REMARK       I    between atoms: C_5  and  N_1 
REMARK    1  A    between atoms: N_3  and  C_8 
REMARK    2  A    between atoms: C_7  and  C_5 
REMARK    3  A    between atoms: C_11  and  C_7 
REMARK    4  A    between atoms: C_15  and  C_11 
ROOT
ATOM      1  N   UNL d   1     -39.052  14.844  17.276  0.00  0.00    -0.256 N 
ATOM      2  C   UNL d   1     -38.914  15.662  17.333  0.00  0.00     0.185 A 
ATOM      3  N   UNL d   1     -38.499  15.864  16.666  0.00  0.00    -0.224 NA
ATOM      4  C   UNL d   1     -39.462  14.368  17.831  0.00  0.00     0.266 C 
ATOM      5  C   UNL d   1     -38.715  14.583  16.578  0.00  0.00     0.086 A 
ATOM      6  C   UNL d   1     -38.371  15.212  16.196  0.00  0.00     0.099 A 
ATOM      7  O   UNL d   1     -39.562  13.546  17.707  0.00  0.00    -0.267 OA
ATOM      8  C   UNL d   1     -38.684  13.824  16.242  0.00  0.00     0.019 A 
ATOM      9  C   UNL d   1     -37.992  15.106  15.481  0.00  0.00     0.021 A 
ATOM     10  C   UNL d   1     -38.301  13.699  15.511  0.00  0.00     0.002 A 
ATOM     11  C   UNL d   1     -37.940  14.361  15.111  0.00  0.00     0.002 A 
ENDROOT
BRANCH   4  12
ATOM     12  C   UNL d   1     -39.772  14.706  18.511  0.00  0.00     0.061 C 
BRANCH  12  13
ATOM     13  C   UNL d   1     -40.079  14.219  19.102  0.00  0.00     0.005 C 
BRANCH  13  14
ATOM     14  C   UNL d   1     -40.239  14.540  19.844  0.00  0.00     0.002 A 
ATOM     15  C   UNL d   1     -39.701  14.408  20.474  0.00  0.00     0.024 A 
ATOM     16  C   UNL d   1     -39.855  14.722  21.208  0.00  0.00     0.127 A 
ATOM     17  C   UNL d   1     -40.539  15.173  21.335  0.00  0.00     0.024 A 
ATOM     18  C   UNL d   1     -41.065  15.301  20.712  0.00  0.00     0.002 A 
ATOM     19  C   UNL d   1     -40.921  14.986  19.961  0.00  0.00     0.000 A 
BRANCH  16  20
ATOM     20  N   UNL d   1     -39.349  14.612  21.847  0.00  0.00    -0.114 N 
ATOM     21  O   UNL d   1     -39.418  13.924  22.315  0.00  0.00    -0.532 OA
ATOM     22  O   UNL d   1     -38.784  15.170  22.026  0.00  0.00    -0.532 OA
ENDBRANCH  16  20
ENDBRANCH  13  14
ENDBRANCH  12  13
ENDBRANCH   4  12
TORSDOF 4
ENDMDL
MODEL 6
REMARK VINA RESULT:      -5.7      8.596      9.674
REMARK  4 active torsions:
REMARK  status: ('A' for Active; 'I' for Inactive)
REMARK       I    between atoms: C_5  and  N_1 
REMARK    1  A    between atoms: N_3  and  C_8 
REMARK    2  A    between atoms: C_7  and  C_5 
REMARK    3  A    between atoms: C_11  and  C_7 
REMARK    4  A    between atoms: C_15  and  C_11 
ROOT
ATOM      1  N   UNL d   1     -39.550  14.911  20.874  0.00  0.00    -0.256 N 
ATOM      2  C   UNL d   1     -39.811  15.698  20.939  0.00  0.00     0.185 A 
ATOM      3  N   UNL d   1     -39.661  15.918  21.704  0.00  0.00    -0.224 NA
ATOM      4  C   UNL d   1     -39.583  14.430  20.187  0.00  0.00     0.266 C 
ATOM      5  C   UNL d   1     -39.251  14.687  21.601  0.00  0.00     0.086 A 
ATOM      6  C   UNL d   1     -39.318  15.308  22.120  0.00  0.00     0.099 A 
ATOM      7  O   UNL d   1     -39.299  13.642  20.196  0.00  0.00    -0.267 OA
ATOM      8  C   UNL d   1     -38.919  13.968  21.852  0.00  0.00     0.019 A 
ATOM      9  C   UNL d   1     -39.061  15.234  22.891  0.00  0.00     0.021 A 
ATOM     10  C   UNL d   1     -38.651  13.876  22.637  0.00  0.00     0.002 A 
ATOM     11  C   UNL d   1     -38.722  14.531  23.181  0.00  0.00     0.002 A 
ENDROOT
BRANCH   4  12
ATOM     12  C   UNL d   1     -39.898  14.729  19.492  0.00  0.00     0.061 C 
BRANCH  12  13
ATOM     13  C   UNL d   1     -39.917  14.254  18.818  0.00  0.00     0.005 C 
BRANCH  13  14
ATOM     14  C   UNL d   1     -40.059  14.602  18.085  0.00  0.00     0.002 A 
ATOM     15  C   UNL d   1     -39.424  14.699  17.545  0.00  0.00     0.024 A 
ATOM     16  C   UNL d   1     -39.560  15.042  16.820  0.00  0.00     0.127 A 
ATOM     17  C   UNL d   1     -40.322  15.296  16.614  0.00  0.00     0.024 A 
ATOM     18  C   UNL d   1     -40.944  15.199  17.148  0.00  0.00     0.002 A 
ATOM     19  C   UNL d   1     -40.819  14.851  17.888  0.00  0.00     0.000 A 
BRANCH  16  20
ATOM     20  N   UNL d   1     -38.962  15.153  16.267  0.00  0.00    -0.114 N 
ATOM     21  O   UNL d   1     -38.641  15.915  16.152  0.00  0.00    -0.532 OA
ATOM     22  O   UNL d   1     -38.681  14.524  15.833  0.00  0.00    -0.532 OA
ENDBRANCH  16  20
ENDBRANCH  13  14
ENDBRANCH  12  13
ENDBRANCH   4  12
TORSDOF 4
ENDMDL
MODEL 7
REMARK VINA RESULT:      -4.9      8.530     10.201
REMARK  4 active torsions:
REMARK  status: ('A' for Active; 'I' for Inactive)
REMARK       I    between atoms: C_5  and  N_1 
REMARK    1  A    between atoms: N_3  and  C_8 
REMARK    2  A    between atoms: C_7  and  C_5 
REMARK    3  A    between atoms: C_11  and  C_7 
REMARK    4  A    between atoms: C_15  and  C_11 
ROOT
ATOM      1  N   UNL d   1     -39.077  14.561  19.951  0.00  0.00    -0.256 N 
ATOM      2  C   UNL d   1     -38.495  14.065  20.277  0.00  0.00     0.185 A 
ATOM      3  N   UNL d   1     -38.512  14.199  21.076  0.00  0.00    -0.224 NA
ATOM      4  C   UNL d   1     -39.277  14.628  19.139  0.00  0.00     0.266 C 
ATOM      5  C   UNL d   1     -39.424  14.975  20.565  0.00  0.00     0.086 A 
ATOM      6  C   UNL d   1     -39.077  14.754  21.265  0.00  0.00     0.099 A 
ATOM      7  O   UNL d   1     -39.878  15.152  18.882  0.00  0.00    -0.267 OA
ATOM      8  C   UNL d   1     -40.031  15.543  20.561  0.00  0.00     0.019 A 
ATOM      9  C   UNL d   1     -39.319  15.085  21.971  0.00  0.00     0.021 A 
ATOM     10  C   UNL d   1     -40.290  15.890  21.274  0.00  0.00     0.002 A 
ATOM     11  C   UNL d   1     -39.924  15.656  22.009  0.00  0.00     0.002 A 
ENDROOT
BRANCH   4  12
ATOM     12  C   UNL d   1     -38.881  14.176  18.580  0.00  0.00     0.061 C 
BRANCH  12  13
ATOM     13  C   UNL d   1     -39.261  13.982  17.874  0.00  0.00     0.005 C 
BRANCH  13  14
ATOM     14  C   UNL d   1     -38.819  13.659  17.257  0.00  0.00     0.002 A 
ATOM     15  C   UNL d   1     -38.657  14.128  16.580  0.00  0.00     0.024 A 
ATOM     16  C   UNL d   1     -38.222  13.814  15.969  0.00  0.00     0.127 A 
ATOM     17  C   UNL d   1     -37.940  13.035  16.013  0.00  0.00     0.024 A 
ATOM     18  C   UNL d   1     -38.102  12.579  16.680  0.00  0.00     0.002 A 
ATOM     19  C   UNL d   1     -38.543  12.886  17.309  0.00  0.00     0.000 A 
BRANCH  16  20
ATOM     20  N   UNL d   1     -38.044  14.244  15.291  0.00  0.00    -0.114 N 
ATOM     21  O   UNL d   1     -37.942  13.846  14.563  0.00  0.00    -0.532 OA
ATOM     22  O   UNL d   1     -37.966  15.054  15.325  0.00  0.00    -0.532 OA
ENDBRANCH  16  20
ENDBRANCH  13  14
ENDBRANCH  12  13
ENDBRANCH   4  12
TORSDOF 4
ENDMDL
