MODEL 1
REMARK VINA RESULT:      -0.3      0.000      0.000
REMARK  2 active torsions:
REMARK  status: ('A' for Active; 'I' for Inactive)
REMARK    1  A    between atoms: CA_3  and  C_1 
REMARK    2  A    between atoms: C_2  and  CA_3 
ROOT
ATOM      1  C   UNL d   1      45.510 -13.471  44.269  0.00  0.00     0.026 A 
ATOM      2  C   UNL d   1      44.797 -13.853  44.460  0.00  0.00     0.013 A 
ATOM      3  C   UNL d   1      44.807 -14.617  44.767  0.00  0.00     0.058 A 
ATOM      4 CL   UNL d   1      44.099 -14.993  44.955  0.00  0.00    -0.082 Cl
ATOM      5  C   UNL d   1      46.228 -13.860  44.387  0.00  0.00     0.002 A 
ATOM      6  C   UNL d   1      46.233 -14.630  44.697  0.00  0.00     0.001 A 
ATOM      7  C   UNL d   1      45.525 -15.006  44.885  0.00  0.00     0.011 A 
ENDROOT
BRANCH   1   8
ATOM      8  CA  UNL d   1      45.496 -12.704  43.962  0.00  0.00     0.167 C 
ATOM      9  N   UNL d   1      45.816 -12.080  44.392  0.00  0.00    -0.142 N 
BRANCH   8  10
ATOM     10  C   UNL d   1      45.160 -12.567  43.221  0.00  0.00     0.231 C 
ATOM     11  O   UNL d   1      44.389 -12.286  43.155  0.00  0.00    -0.643 OA
ATOM     12  OXT UNL d   1      45.599 -12.711  42.535  0.00  0.00    -0.643 OA
ENDBRANCH   8  10
ENDBRANCH   1   8
TORSDOF 2
ENDMDL
MODEL 2
REMARK VINA RESULT:       0.2      1.931      2.519
REMARK  2 active torsions:
REMARK  status: ('A' for Active; 'I' for Inactive)
REMARK    1  A    between atoms: CA_3  and  C_1 
REMARK    2  A    between atoms: C_2  and  CA_3 
ROOT
ATOM      1  C   UNL d   1      45.637 -13.623  44.490  0.00  0.00     0.026 A 
ATOM      2  C   UNL d   1      45.254 -13.479  43.767  0.00  0.00     0.013 A 
ATOM      3  C   UNL d   1      45.194 -12.711  43.477  0.00  0.00     0.058 A 
ATOM      4 CL   UNL d   1      44.813 -12.572  42.760  0.00  0.00    -0.082 Cl
ATOM      5  C   UNL d   1      45.957 -12.993  44.917  0.00  0.00     0.002 A 
ATOM      6  C   UNL d   1      45.895 -12.220  44.620  0.00  0.00     0.001 A 
ATOM      7  C   UNL d   1      45.515 -12.081  43.904  0.00  0.00     0.011 A 
ENDROOT
BRANCH   1   8
ATOM      8  CA  UNL d   1      45.695 -14.394  44.779  0.00  0.00     0.167 C 
ATOM      9  N   UNL d   1      46.431 -14.716  44.954  0.00  0.00    -0.142 N 
BRANCH   8  10
ATOM     10  C   UNL d   1      45.011 -14.842  44.890  0.00  0.00     0.231 C 
ATOM     11  O   UNL d   1      44.274 -14.479  44.939  0.00  0.00    -0.643 OA
ATOM     12  OXT UNL d   1      45.062 -15.666  44.954  0.00  0.00    -0.643 OA
ENDBRANCH   8  10
ENDBRANCH   1   8
TORSDOF 2
ENDMDL
MODEL 3
REMARK VINA RESULT:       0.8      5.685      6.126
REMARK  2 active torsions:
REMARK  status: ('A' for Active; 'I' for Inactive)
REMARK    1  A    between atoms: CA_3  and  C_1 
REMARK    2  A    between atoms: C_2  and  CA_3 
ROOT
ATOM      1  C   UNL d   1      46.455 -19.603  43.198  0.00  0.00     0.026 A 
ATOM      2  C   UNL d   1      46.365 -18.902  43.635  0.00  0.00     0.013 A 
ATOM      3  C   UNL d   1      46.406 -18.920  44.457  0.00  0.00     0.058 A 
ATOM      4 CL   UNL d   1      46.315 -18.223  44.887  0.00  0.00    -0.082 Cl
ATOM      5  C   UNL d   1      46.586 -20.317  43.590  0.00  0.00     0.002 A 
ATOM      6  C   UNL d   1      46.627 -20.330  44.419  0.00  0.00     0.001 A 
ATOM      7  C   UNL d   1      46.537 -19.634  44.849  0.00  0.00     0.011 A 
ENDROOT
BRANCH   1   8
ATOM      8  CA  UNL d   1      46.414 -19.582  42.373  0.00  0.00     0.167 C 
ATOM      9  N   UNL d   1      46.645 -20.235  41.930  0.00  0.00    -0.142 N 
BRANCH   8  10
ATOM     10  C   UNL d   1      46.139 -18.902  41.995  0.00  0.00     0.231 C 
ATOM     11  O   UNL d   1      46.646 -18.436  41.545  0.00  0.00    -0.643 OA
ATOM     12  OXT UNL d   1      45.343 -18.682  42.066  0.00  0.00    -0.643 OA
ENDBRANCH   8  10
ENDBRANCH   1   8
TORSDOF 2
ENDMDL
MODEL 4
REMARK VINA RESULT:       2.1      5.780      6.334
REMARK  2 active torsions:
REMARK  status: ('A' for Active; 'I' for Inactive)
REMARK    1  A    between atoms: CA_3  and  C_1 
REMARK    2  A    between atoms: C_2  and  CA_3 
ROOT
ATOM      1  C   UNL d   1      46.322 -18.958  43.131  0.00  0.00     0.026 A 
ATOM      2  C   UNL d   1      46.404 -19.661  42.696  0.00  0.00     0.013 A 
ATOM      3  C   UNL d   1      46.565 -19.630  41.889  0.00  0.00     0.058 A 
ATOM      4 CL   UNL d   1      46.645 -20.329  41.460  0.00  0.00    -0.082 Cl
ATOM      5  C   UNL d   1      46.404 -18.229  42.753  0.00  0.00     0.002 A 
ATOM      6  C   UNL d   1      46.566 -18.204  41.939  0.00  0.00     0.001 A 
ATOM      7  C   UNL d   1      46.646 -18.902  41.511  0.00  0.00     0.011 A 
ENDROOT
BRANCH   1   8
ATOM      8  CA  UNL d   1      46.160 -18.992  43.940  0.00  0.00     0.167 C 
ATOM      9  N   UNL d   1      46.076 -18.299  44.375  0.00  0.00    -0.142 N 
BRANCH   8  10
ATOM     10  C   UNL d   1      46.083 -19.724  44.311  0.00  0.00     0.231 C 
ATOM     11  O   UNL d   1      45.450 -20.220  44.136  0.00  0.00    -0.643 OA
ATOM     12  OXT UNL d   1      46.647 -19.968  44.867  0.00  0.00    -0.643 OA
ENDBRANCH   8  10
ENDBRANCH   1   8
TORSDOF 2
ENDMDL
