MODEL 1
REMARK VINA RESULT:       6.0      0.000      0.000
REMARK  7 active torsions:
REMARK  status: ('A' for Active; 'I' for Inactive)
REMARK    1  A    between atoms: C_2  and  S_1 
REMARK    2  A    between atoms: N_3  and  S_1 
REMARK    3  A    between atoms: C_16  and  N_3 
REMARK    4  A    between atoms: C_4  and  C_8 
REMARK       I    between atoms: N_5  and  C_4 
REMARK    5  A    between atoms: C_17  and  N_5 
REMARK    6  A    between atoms: C_20  and  C_16 
REMARK    7  A    between atoms: C_18  and  C_17 
ROOT
ATOM      1  C   UNL d   1     -42.738-122.454 -50.231  0.00  0.00     0.058 A 
ATOM      2  C   UNL d   1     -42.144-122.834 -50.661  0.00  0.00     0.005 A 
ATOM      3  C   UNL d   1     -43.172-121.849 -50.585  0.00  0.00     0.005 A 
ATOM      4  C   UNL d   1     -42.418-122.005 -51.792  0.00  0.00     0.020 A 
ATOM      5  C   UNL d   1     -41.983-122.611 -51.439  0.00  0.00     0.002 A 
ATOM      6  C   UNL d   1     -43.008-121.625 -51.372  0.00  0.00     0.002 A 
ENDROOT
BRANCH   4   7
ATOM      7  C   UNL d   1     -42.255-121.786 -52.567  0.00  0.00     0.112 C 
BRANCH   7   8
ATOM      8  N   UNL d   1     -42.669-122.132 -53.185  0.00  0.00    -0.157 NA
BRANCH   8   9
ATOM      9  S   UNL d   1     -42.359-122.129 -53.955  0.00  0.00     0.285 S 
ATOM     10  O   UNL d   1     -43.106-121.975 -54.257  0.00  0.00    -0.198 OA
ATOM     11  O   UNL d   1     -41.612-122.283 -53.648  0.00  0.00    -0.198 OA
BRANCH   9  12
ATOM     12  C   UNL d   1     -42.042-122.127 -54.718  0.00  0.00     0.105 A 
ATOM     13  C   UNL d   1     -41.564-122.746 -54.967  0.00  0.00     0.012 A 
ATOM     14  C   UNL d   1     -41.250-122.741 -55.725  0.00  0.00     0.001 A 
ATOM     15  C   UNL d   1     -41.404-123.373 -54.440  0.00  0.00     0.001 C 
ATOM     16  C   UNL d   1     -41.414-122.114 -56.244  0.00  0.00     0.000 A 
ATOM     17  C   UNL d   1     -41.896-121.494 -55.987  0.00  0.00     0.001 A 
ATOM     18  C   UNL d   1     -42.211-121.499 -55.224  0.00  0.00     0.013 A 
ATOM     19  C   UNL d   1     -42.059-120.867 -56.505  0.00  0.00     0.000 C 
ENDBRANCH   9  12
ENDBRANCH   8   9
ENDBRANCH   7   8
ENDBRANCH   4   7
BRANCH   1  20
ATOM     20  C   UNL d   1     -42.898-122.676 -49.457  0.00  0.00     0.279 C 
ATOM     21  N   UNL d   1     -42.822-122.130 -48.852  0.00  0.00    -0.205 NA
ATOM     22  O   UNL d   1     -43.135-123.451 -49.293  0.00  0.00    -0.265 OA
BRANCH  21  23
ATOM     23  C   UNL d   1     -42.983-122.350 -48.071  0.00  0.00     0.121 C 
BRANCH  23  24
ATOM     24  C   UNL d   1     -42.377-122.659 -47.606  0.00  0.00     0.101 A 
ATOM     25  N   UNL d   1     -41.905-122.148 -47.169  0.00  0.00    -0.242 NA
ATOM     26  C   UNL d   1     -41.304-122.462 -46.708  0.00  0.00     0.099 A 
ATOM     27  C   UNL d   1     -41.172-123.270 -46.680  0.00  0.00     0.021 A 
ATOM     28  C   UNL d   1     -41.655-123.775 -47.126  0.00  0.00     0.003 A 
ATOM     29  C   UNL d   1     -42.258-123.463 -47.590  0.00  0.00     0.021 A 
ENDBRANCH  23  24
ENDBRANCH  21  23
ENDBRANCH   1  20
TORSDOF 7
ENDMDL
