MODEL 1
REMARK VINA RESULT:      48.4      0.000      0.000
REMARK  4 active torsions:
REMARK  status: ('A' for Active; 'I' for Inactive)
REMARK    1  A    between atoms: C_3  and  N_5 
REMARK    2  A    between atoms: S_13  and  C_4 
REMARK       I    between atoms: N_5  and  C_12 
REMARK    3  A    between atoms: C_12  and  C_18 
REMARK    4  A    between atoms: C_18  and  S_13 
ROOT
ATOM      1  N   UNL d   1     -50.319  25.650  33.326  0.00  0.00    -0.238 NA
ATOM      2  C   UNL d   1     -51.451  26.526  33.314  0.00  0.00     0.092 A 
ATOM      3  C   UNL d   1     -50.631  26.435  33.323  0.00  0.00     0.120 A 
ATOM      4  C   UNL d   1     -51.805  27.295  33.310  0.00  0.00     0.103 C 
ATOM      5  C   UNL d   1     -50.790  24.998  33.322  0.00  0.00     0.082 A 
ATOM      6  N   UNL d   1     -52.149  28.053  33.306  0.00  0.00    -0.191 NA
ATOM      7  C   UNL d   1     -51.967  25.833  33.310  0.00  0.00     0.014 A 
ATOM      8  C   UNL d   1     -51.610  25.089  33.314  0.00  0.00     0.018 A 
ATOM      9  C   UNL d   1     -50.365  24.297  33.327  0.00  0.00     0.019 A 
ATOM     10  C   UNL d   1     -52.215  24.502  33.309  0.00  0.00     0.002 A 
ATOM     11  C   UNL d   1     -50.630  23.530  33.325  0.00  0.00     0.002 A 
ATOM     12  C   UNL d   1     -52.128  23.695  33.310  0.00  0.00     0.000 A 
ATOM     13  C   UNL d   1     -51.386  23.253  33.318  0.00  0.00     0.000 A 
ENDROOT
BRANCH   3  14
ATOM     14  S   UNL d   1     -50.158  27.112  33.327  0.00  0.00    -0.062 SA
BRANCH  14  15
ATOM     15  C   UNL d   1     -49.485  27.122  33.805  0.00  0.00     0.099 C 
BRANCH  15  16
ATOM     16  C   UNL d   1     -49.150  27.842  33.994  0.00  0.00     0.288 C 
ATOM     17  N   UNL d   1     -48.736  27.885  34.707  0.00  0.00    -0.182 NA
ATOM     18  O   UNL d   1     -49.210  28.505  33.510  0.00  0.00    -0.265 OA
BRANCH  17  19
ATOM     19  C   UNL d   1     -48.394  28.614  34.902  0.00  0.00     0.197 A 
ATOM     20  N   UNL d   1     -48.598  29.366  34.699  0.00  0.00    -0.219 NA
ATOM     21  C   UNL d   1     -48.090  29.886  35.029  0.00  0.00     0.108 A 
ATOM     22  C   UNL d   1     -47.529  29.456  35.468  0.00  0.00     0.059 A 
ATOM     23  S   UNL d   1     -47.723  28.673  35.384  0.00  0.00    -0.046 SA
ENDBRANCH  17  19
ENDBRANCH  15  16
ENDBRANCH  14  15
ENDBRANCH   3  14
TORSDOF 4
ENDMDL
MODEL 2
REMARK VINA RESULT:      49.7      1.166      2.207
REMARK  4 active torsions:
REMARK  status: ('A' for Active; 'I' for Inactive)
REMARK    1  A    between atoms: C_3  and  N_5 
REMARK    2  A    between atoms: S_13  and  C_4 
REMARK       I    between atoms: N_5  and  C_12 
REMARK    3  A    between atoms: C_12  and  C_18 
REMARK    4  A    between atoms: C_18  and  S_13 
ROOT
ATOM      1  N   UNL d   1     -51.592  25.244  33.307  0.00  0.00    -0.238 NA
ATOM      2  C   UNL d   1     -50.606  24.207  33.335  0.00  0.00     0.092 A 
ATOM      3  C   UNL d   1     -50.779  25.014  33.316  0.00  0.00     0.120 A 
ATOM      4  C   UNL d   1     -49.805  23.932  33.344  0.00  0.00     0.103 C 
ATOM      5  C   UNL d   1     -52.193  24.710  33.317  0.00  0.00     0.082 A 
ATOM      6  N   UNL d   1     -49.016  23.667  33.353  0.00  0.00    -0.191 NA
ATOM      7  C   UNL d   1     -51.244  23.624  33.346  0.00  0.00     0.014 A 
ATOM      8  C   UNL d   1     -52.020  23.904  33.337  0.00  0.00     0.018 A 
ATOM      9  C   UNL d   1     -52.933  25.063  33.307  0.00  0.00     0.019 A 
ATOM     10  C   UNL d   1     -52.543  23.243  33.350  0.00  0.00     0.002 A 
ATOM     11  C   UNL d   1     -53.670  24.721  33.312  0.00  0.00     0.002 A 
ATOM     12  C   UNL d   1     -53.354  23.247  33.347  0.00  0.00     0.000 A 
ATOM     13  C   UNL d   1     -53.869  23.942  33.329  0.00  0.00     0.000 A 
ENDROOT
BRANCH   3  14
ATOM     14  S   UNL d   1     -50.153  25.553  33.306  0.00  0.00    -0.062 SA
BRANCH  14  15
ATOM     15  C   UNL d   1     -50.288  26.320  33.579  0.00  0.00     0.099 C 
BRANCH  15  16
ATOM     16  C   UNL d   1     -49.674  26.721  33.937  0.00  0.00     0.288 C 
ATOM     17  N   UNL d   1     -49.842  27.472  34.237  0.00  0.00    -0.182 NA
ATOM     18  O   UNL d   1     -48.915  26.409  34.008  0.00  0.00    -0.265 OA
BRANCH  17  19
ATOM     19  C   UNL d   1     -49.222  27.881  34.601  0.00  0.00     0.197 A 
ATOM     20  N   UNL d   1     -48.571  28.242  34.293  0.00  0.00    -0.219 NA
ATOM     21  C   UNL d   1     -48.133  28.564  34.878  0.00  0.00     0.108 A 
ATOM     22  C   UNL d   1     -48.513  28.406  35.601  0.00  0.00     0.059 A 
ATOM     23  S   UNL d   1     -49.183  27.985  35.422  0.00  0.00    -0.046 SA
ENDBRANCH  17  19
ENDBRANCH  15  16
ENDBRANCH  14  15
ENDBRANCH   3  14
TORSDOF 4
ENDMDL
MODEL 3
REMARK VINA RESULT:      50.6      0.880      1.104
REMARK  4 active torsions:
REMARK  status: ('A' for Active; 'I' for Inactive)
REMARK    1  A    between atoms: C_3  and  N_5 
REMARK    2  A    between atoms: S_13  and  C_4 
REMARK       I    between atoms: N_5  and  C_12 
REMARK    3  A    between atoms: C_12  and  C_18 
REMARK    4  A    between atoms: C_18  and  S_13 
ROOT
ATOM      1  N   UNL d   1     -51.252  25.246  33.315  0.00  0.00    -0.238 NA
ATOM      2  C   UNL d   1     -52.092  26.404  33.312  0.00  0.00     0.092 A 
ATOM      3  C   UNL d   1     -51.331  26.086  33.314  0.00  0.00     0.120 A 
ATOM      4  C   UNL d   1     -52.216  27.241  33.311  0.00  0.00     0.103 C 
ATOM      5  C   UNL d   1     -51.887  24.752  33.314  0.00  0.00     0.082 A 
ATOM      6  N   UNL d   1     -52.333  28.066  33.310  0.00  0.00    -0.191 NA
ATOM      7  C   UNL d   1     -52.782  25.884  33.310  0.00  0.00     0.014 A 
ATOM      8  C   UNL d   1     -52.648  25.069  33.311  0.00  0.00     0.018 A 
ATOM      9  C   UNL d   1     -51.676  23.959  33.315  0.00  0.00     0.019 A 
ATOM     10  C   UNL d   1     -53.394  24.676  33.309  0.00  0.00     0.002 A 
ATOM     11  C   UNL d   1     -52.146  23.297  33.314  0.00  0.00     0.002 A 
ATOM     12  C   UNL d   1     -53.537  23.878  33.310  0.00  0.00     0.000 A 
ATOM     13  C   UNL d   1     -52.949  23.244  33.312  0.00  0.00     0.000 A 
ENDROOT
BRANCH   3  14
ATOM     14  S   UNL d   1     -50.686  26.603  33.316  0.00  0.00    -0.062 SA
BRANCH  14  15
ATOM     15  C   UNL d   1     -50.043  26.432  33.803  0.00  0.00     0.099 C 
BRANCH  15  16
ATOM     16  C   UNL d   1     -49.486  27.014  33.937  0.00  0.00     0.288 C 
ATOM     17  N   UNL d   1     -49.387  27.264  34.717  0.00  0.00    -0.182 NA
ATOM     18  O   UNL d   1     -49.035  27.348  33.334  0.00  0.00    -0.265 OA
BRANCH  17  19
ATOM     19  C   UNL d   1     -48.823  27.854  34.856  0.00  0.00     0.197 A 
ATOM     20  N   UNL d   1     -48.022  27.815  34.929  0.00  0.00    -0.219 NA
ATOM     21  C   UNL d   1     -47.723  28.545  35.061  0.00  0.00     0.108 A 
ATOM     22  C   UNL d   1     -48.357  29.084  35.075  0.00  0.00     0.059 A 
ATOM     23  S   UNL d   1     -49.031  28.651  34.948  0.00  0.00    -0.046 SA
ENDBRANCH  17  19
ENDBRANCH  15  16
ENDBRANCH  14  15
ENDBRANCH   3  14
TORSDOF 4
ENDMDL
