MODEL 1
REMARK VINA RESULT:      -2.9      0.000      0.000
REMARK  4 active torsions:
REMARK  status: ('A' for Active; 'I' for Inactive)
REMARK    1  A    between atoms: N_3  and  C_2 
REMARK       I    between atoms: C_6  and  N_3 
REMARK    2  A    between atoms: C_8  and  C_4 
REMARK    3  A    between atoms: C_9  and  C_6 
REMARK    4  A    between atoms: C_12  and  C_8 
ROOT
ATOM      1  N   UNL d   1      30.829  16.497 -23.740  0.00  0.00    -0.181 NA
ATOM      2  C   UNL d   1      30.202  16.780 -24.198  0.00  0.00     0.281 C 
ATOM      3  O   UNL d   1      30.326  17.377 -24.746  0.00  0.00    -0.265 OA
ENDROOT
BRANCH   1   4
ATOM      4  C   UNL d   1      31.583  16.811 -23.831  0.00  0.00     0.216 A 
ATOM      5  N   UNL d   1      31.938  17.373 -23.343  0.00  0.00    -0.200 NA
ATOM      6  C   UNL d   1      32.696  17.529 -23.640  0.00  0.00     0.175 A 
ATOM      7  N   UNL d   1      32.803  17.054 -24.318  0.00  0.00    -0.187 NA
ATOM      8  S   UNL d   1      32.120  16.620 -24.427  0.00  0.00     0.054 SA
BRANCH   6   9
ATOM      9  C   UNL d   1      33.241  18.054 -23.323  0.00  0.00     0.082 C 
BRANCH   9  10
ATOM     10  C   UNL d   1      33.098  18.868 -23.354  0.00  0.00     0.199 C 
ATOM     11  O   UNL d   1      33.129  19.260 -24.080  0.00  0.00    -0.286 OA
ATOM     12  C   UNL d   1      32.925  19.288 -22.662  0.00  0.00     0.045 C 
ENDBRANCH   9  10
ENDBRANCH   6   9
ENDBRANCH   1   4
BRANCH   2  13
ATOM     13  C   UNL d   1      29.447  16.460 -24.102  0.00  0.00     0.060 A 
ATOM     14  C   UNL d   1      28.903  16.830 -23.599  0.00  0.00     0.034 A 
ATOM     15  C   UNL d   1      28.148  16.514 -23.500  0.00  0.00     0.140 A 
ATOM     16  F   UNL d   1      27.612  16.889 -22.996  0.00  0.00    -0.204 F 
ATOM     17  C   UNL d   1      27.939  15.830 -23.903  0.00  0.00     0.030 A 
ATOM     18  C   UNL d   1      28.479  15.460 -24.404  0.00  0.00     0.003 A 
ATOM     19  C   UNL d   1      29.234  15.776 -24.503  0.00  0.00     0.005 A 
ENDBRANCH   2  13
TORSDOF 4
ENDMDL
MODEL 2
REMARK VINA RESULT:      -2.8      2.417      3.476
REMARK  4 active torsions:
REMARK  status: ('A' for Active; 'I' for Inactive)
REMARK    1  A    between atoms: N_3  and  C_2 
REMARK       I    between atoms: C_6  and  N_3 
REMARK    2  A    between atoms: C_8  and  C_4 
REMARK    3  A    between atoms: C_9  and  C_6 
REMARK    4  A    between atoms: C_12  and  C_8 
ROOT
ATOM      1  N   UNL d   1      32.913  18.388 -22.745  0.00  0.00    -0.181 NA
ATOM      2  C   UNL d   1      32.584  18.174 -23.473  0.00  0.00     0.281 C 
ATOM      3  O   UNL d   1      32.354  18.751 -24.009  0.00  0.00    -0.265 OA
ENDROOT
BRANCH   1   4
ATOM      4  C   UNL d   1      33.011  19.181 -22.553  0.00  0.00     0.216 A 
ATOM      5  N   UNL d   1      32.955  19.510 -21.798  0.00  0.00    -0.200 NA
ATOM      6  C   UNL d   1      33.094  20.324 -21.862  0.00  0.00     0.175 A 
ATOM      7  N   UNL d   1      33.237  20.493 -22.666  0.00  0.00    -0.187 NA
ATOM      8  S   UNL d   1      33.185  19.791 -23.081  0.00  0.00     0.054 SA
BRANCH   6   9
ATOM      9  C   UNL d   1      33.092  20.864 -21.244  0.00  0.00     0.082 C 
BRANCH   9  10
ATOM     10  C   UNL d   1      32.460  21.391 -21.157  0.00  0.00     0.199 C 
ATOM     11  O   UNL d   1      31.725  21.109 -20.910  0.00  0.00    -0.286 OA
ATOM     12  C   UNL d   1      32.564  22.198 -21.316  0.00  0.00     0.045 C 
ENDBRANCH   9  10
ENDBRANCH   6   9
ENDBRANCH   1   4
BRANCH   2  13
ATOM     13  C   UNL d   1      32.488  17.376 -23.660  0.00  0.00     0.060 A 
ATOM     14  C   UNL d   1      31.775  16.994 -23.484  0.00  0.00     0.034 A 
ATOM     15  C   UNL d   1      31.675  16.197 -23.668  0.00  0.00     0.140 A 
ATOM     16  F   UNL d   1      30.961  15.824 -23.489  0.00  0.00    -0.204 F 
ATOM     17  C   UNL d   1      32.286  15.784 -24.029  0.00  0.00     0.030 A 
ATOM     18  C   UNL d   1      32.997  16.163 -24.206  0.00  0.00     0.003 A 
ATOM     19  C   UNL d   1      33.097  16.960 -24.021  0.00  0.00     0.005 A 
ENDBRANCH   2  13
TORSDOF 4
ENDMDL
MODEL 3
REMARK VINA RESULT:      -2.4      3.949      6.185
REMARK  4 active torsions:
REMARK  status: ('A' for Active; 'I' for Inactive)
REMARK    1  A    between atoms: N_3  and  C_2 
REMARK       I    between atoms: C_6  and  N_3 
REMARK    2  A    between atoms: C_8  and  C_4 
REMARK    3  A    between atoms: C_9  and  C_6 
REMARK    4  A    between atoms: C_12  and  C_8 
ROOT
ATOM      1  N   UNL d   1      33.228  21.432 -21.556  0.00  0.00    -0.181 NA
ATOM      2  C   UNL d   1      32.556  21.614 -21.110  0.00  0.00     0.281 C 
ATOM      3  O   UNL d   1      31.881  21.154 -21.173  0.00  0.00    -0.265 OA
ENDROOT
BRANCH   1   4
ATOM      4  C   UNL d   1      33.223  20.788 -22.067  0.00  0.00     0.216 A 
ATOM      5  N   UNL d   1      33.201  19.993 -21.848  0.00  0.00    -0.200 NA
ATOM      6  C   UNL d   1      33.204  19.536 -22.540  0.00  0.00     0.175 A 
ATOM      7  N   UNL d   1      33.229  20.061 -23.188  0.00  0.00    -0.187 NA
ATOM      8  S   UNL d   1      33.240  20.822 -22.891  0.00  0.00     0.054 SA
BRANCH   6   9
ATOM      9  C   UNL d   1      33.187  18.716 -22.577  0.00  0.00     0.082 C 
BRANCH   9  10
ATOM     10  C   UNL d   1      32.726  18.337 -23.150  0.00  0.00     0.199 C 
ATOM     11  O   UNL d   1      33.076  18.089 -23.855  0.00  0.00    -0.286 OA
ATOM     12  C   UNL d   1      31.919  18.207 -23.018  0.00  0.00     0.045 C 
ENDBRANCH   9  10
ENDBRANCH   6   9
ENDBRANCH   1   4
BRANCH   2  13
ATOM     13  C   UNL d   1      32.568  22.263 -20.599  0.00  0.00     0.060 A 
ATOM     14  C   UNL d   1      32.772  22.158 -19.804  0.00  0.00     0.034 A 
ATOM     15  C   UNL d   1      32.785  22.802 -19.290  0.00  0.00     0.140 A 
ATOM     16  F   UNL d   1      32.990  22.689 -18.499  0.00  0.00    -0.204 F 
ATOM     17  C   UNL d   1      32.594  23.549 -19.572  0.00  0.00     0.030 A 
ATOM     18  C   UNL d   1      32.390  23.656 -20.364  0.00  0.00     0.003 A 
ATOM     19  C   UNL d   1      32.377  23.012 -20.878  0.00  0.00     0.005 A 
ENDBRANCH   2  13
TORSDOF 4
ENDMDL
MODEL 4
REMARK VINA RESULT:      -2.0      1.942      4.477
REMARK  4 active torsions:
REMARK  status: ('A' for Active; 'I' for Inactive)
REMARK    1  A    between atoms: N_3  and  C_2 
REMARK       I    between atoms: C_6  and  N_3 
REMARK    2  A    between atoms: C_8  and  C_4 
REMARK    3  A    between atoms: C_9  and  C_6 
REMARK    4  A    between atoms: C_12  and  C_8 
ROOT
ATOM      1  N   UNL d   1      31.775  18.050 -23.710  0.00  0.00    -0.181 NA
ATOM      2  C   UNL d   1      32.576  18.222 -23.598  0.00  0.00     0.281 C 
ATOM      3  O   UNL d   1      33.149  17.671 -23.796  0.00  0.00    -0.265 OA
ENDROOT
BRANCH   1   4
ATOM      4  C   UNL d   1      31.547  17.324 -24.021  0.00  0.00     0.216 A 
ATOM      5  N   UNL d   1      31.043  16.777 -23.663  0.00  0.00    -0.200 NA
ATOM      6  C   UNL d   1      30.968  16.127 -24.172  0.00  0.00     0.175 A 
ATOM      7  N   UNL d   1      31.432  16.281 -24.847  0.00  0.00    -0.187 NA
ATOM      8  S   UNL d   1      31.782  17.013 -24.748  0.00  0.00     0.054 SA
BRANCH   6   9
ATOM      9  C   UNL d   1      30.517  15.456 -24.033  0.00  0.00     0.082 C 
BRANCH   9  10
ATOM     10  C   UNL d   1      29.693  15.489 -24.094  0.00  0.00     0.199 C 
ATOM     11  O   UNL d   1      29.341  15.516 -24.840  0.00  0.00    -0.286 OA
ATOM     12  C   UNL d   1      29.224  15.496 -23.412  0.00  0.00     0.045 C 
ENDBRANCH   9  10
ENDBRANCH   6   9
ENDBRANCH   1   4
BRANCH   2  13
ATOM     13  C   UNL d   1      32.798  18.953 -23.285  0.00  0.00     0.060 A 
ATOM     14  C   UNL d   1      32.910  19.601 -23.788  0.00  0.00     0.034 A 
ATOM     15  C   UNL d   1      33.131  20.332 -23.480  0.00  0.00     0.140 A 
ATOM     16  F   UNL d   1      33.241  20.973 -23.989  0.00  0.00    -0.204 F 
ATOM     17  C   UNL d   1      33.241  20.415 -22.671  0.00  0.00     0.030 A 
ATOM     18  C   UNL d   1      33.130  19.771 -22.167  0.00  0.00     0.003 A 
ATOM     19  C   UNL d   1      32.908  19.040 -22.475  0.00  0.00     0.005 A 
ENDBRANCH   2  13
TORSDOF 4
ENDMDL
MODEL 5
REMARK VINA RESULT:      -1.8      1.773      4.319
REMARK  4 active torsions:
REMARK  status: ('A' for Active; 'I' for Inactive)
REMARK    1  A    between atoms: N_3  and  C_2 
REMARK       I    between atoms: C_6  and  N_3 
REMARK    2  A    between atoms: C_8  and  C_4 
REMARK    3  A    between atoms: C_9  and  C_6 
REMARK    4  A    between atoms: C_12  and  C_8 
ROOT
ATOM      1  N   UNL d   1      31.003  16.689 -23.693  0.00  0.00    -0.181 NA
ATOM      2  C   UNL d   1      31.150  17.366 -24.143  0.00  0.00     0.281 C 
ATOM      3  O   UNL d   1      30.605  17.618 -24.701  0.00  0.00    -0.265 OA
ENDROOT
BRANCH   1   4
ATOM      4  C   UNL d   1      30.309  16.262 -23.800  0.00  0.00     0.216 A 
ATOM      5  N   UNL d   1      29.710  16.158 -23.243  0.00  0.00    -0.200 NA
ATOM      6  C   UNL d   1      29.117  15.692 -23.587  0.00  0.00     0.175 A 
ATOM      7  N   UNL d   1      29.359  15.511 -24.365  0.00  0.00    -0.187 NA
ATOM      8  S   UNL d   1      30.087  15.862 -24.487  0.00  0.00     0.054 SA
BRANCH   6   9
ATOM      9  C   UNL d   1      28.419  15.454 -23.226  0.00  0.00     0.082 C 
BRANCH   9  10
ATOM     10  C   UNL d   1      27.716  15.865 -23.371  0.00  0.00     0.199 C 
ATOM     11  O   UNL d   1      27.708  16.689 -23.322  0.00  0.00    -0.286 OA
ATOM     12  C   UNL d   1      27.024  15.453 -23.565  0.00  0.00     0.045 C 
ENDBRANCH   9  10
ENDBRANCH   6   9
ENDBRANCH   1   4
BRANCH   2  13
ATOM     13  C   UNL d   1      31.850  17.789 -24.030  0.00  0.00     0.060 A 
ATOM     14  C   UNL d   1      31.919  18.307 -23.388  0.00  0.00     0.034 A 
ATOM     15  C   UNL d   1      32.616  18.732 -23.271  0.00  0.00     0.140 A 
ATOM     16  F   UNL d   1      32.677  19.247 -22.629  0.00  0.00    -0.204 F 
ATOM     17  C   UNL d   1      33.241  18.638 -23.795  0.00  0.00     0.030 A 
ATOM     18  C   UNL d   1      33.174  18.122 -24.435  0.00  0.00     0.003 A 
ATOM     19  C   UNL d   1      32.478  17.697 -24.552  0.00  0.00     0.005 A 
ENDBRANCH   2  13
TORSDOF 4
ENDMDL
MODEL 6
REMARK VINA RESULT:      -1.3      5.205      6.776
REMARK  4 active torsions:
REMARK  status: ('A' for Active; 'I' for Inactive)
REMARK    1  A    between atoms: N_3  and  C_2 
REMARK       I    between atoms: C_6  and  N_3 
REMARK    2  A    between atoms: C_8  and  C_4 
REMARK    3  A    between atoms: C_9  and  C_6 
REMARK    4  A    between atoms: C_12  and  C_8 
ROOT
ATOM      1  N   UNL d   1      32.713  22.037 -21.191  0.00  0.00    -0.181 NA
ATOM      2  C   UNL d   1      33.015  21.296 -20.986  0.00  0.00     0.281 C 
ATOM      3  O   UNL d   1      33.241  21.140 -20.213  0.00  0.00    -0.265 OA
ENDROOT
BRANCH   1   4
ATOM      4  C   UNL d   1      32.637  22.625 -20.621  0.00  0.00     0.216 A 
ATOM      5  N   UNL d   1      33.095  22.706 -19.940  0.00  0.00    -0.200 NA
ATOM      6  C   UNL d   1      32.827  23.373 -19.528  0.00  0.00     0.175 A 
ATOM      7  N   UNL d   1      32.197  23.702 -19.964  0.00  0.00    -0.187 NA
ATOM      8  S   UNL d   1      32.087  23.240 -20.629  0.00  0.00     0.054 SA
BRANCH   6   9
ATOM      9  C   UNL d   1      33.128  23.656 -18.819  0.00  0.00     0.082 C 
BRANCH   9  10
ATOM     10  C   UNL d   1      32.712  23.536 -18.114  0.00  0.00     0.199 C 
ATOM     11  O   UNL d   1      31.892  23.634 -18.104  0.00  0.00    -0.286 OA
ATOM     12  C   UNL d   1      33.114  23.320 -17.423  0.00  0.00     0.045 C 
ENDBRANCH   9  10
ENDBRANCH   6   9
ENDBRANCH   1   4
BRANCH   2  13
ATOM     13  C   UNL d   1      33.089  20.710 -21.563  0.00  0.00     0.060 A 
ATOM     14  C   UNL d   1      33.127  20.921 -22.362  0.00  0.00     0.034 A 
ATOM     15  C   UNL d   1      33.201  20.340 -22.942  0.00  0.00     0.140 A 
ATOM     16  F   UNL d   1      33.238  20.559 -23.737  0.00  0.00    -0.204 F 
ATOM     17  C   UNL d   1      33.236  19.550 -22.722  0.00  0.00     0.030 A 
ATOM     18  C   UNL d   1      33.198  19.337 -21.925  0.00  0.00     0.003 A 
ATOM     19  C   UNL d   1      33.124  19.919 -21.346  0.00  0.00     0.005 A 
ENDBRANCH   2  13
TORSDOF 4
ENDMDL
MODEL 7
REMARK VINA RESULT:      -0.8      6.877      8.291
REMARK  4 active torsions:
REMARK  status: ('A' for Active; 'I' for Inactive)
REMARK    1  A    between atoms: N_3  and  C_2 
REMARK       I    between atoms: C_6  and  N_3 
REMARK    2  A    between atoms: C_8  and  C_4 
REMARK    3  A    between atoms: C_9  and  C_6 
REMARK    4  A    between atoms: C_12  and  C_8 
ROOT
ATOM      1  N   UNL d   1      32.345  23.579 -19.377  0.00  0.00    -0.181 NA
ATOM      2  C   UNL d   1      32.711  23.052 -18.857  0.00  0.00     0.281 C 
ATOM      3  O   UNL d   1      33.241  22.494 -19.138  0.00  0.00    -0.265 OA
ENDROOT
BRANCH   1   4
ATOM      4  C   UNL d   1      32.510  23.549 -20.182  0.00  0.00     0.216 A 
ATOM      5  N   UNL d   1      31.977  23.360 -20.782  0.00  0.00    -0.200 NA
ATOM      6  C   UNL d   1      32.380  23.397 -21.505  0.00  0.00     0.175 A 
ATOM      7  N   UNL d   1      33.170  23.611 -21.342  0.00  0.00    -0.187 NA
ATOM      8  S   UNL d   1      33.241  23.701 -20.533  0.00  0.00     0.054 SA
BRANCH   6   9
ATOM      9  C   UNL d   1      32.058  23.249 -22.246  0.00  0.00     0.082 C 
BRANCH   9  10
ATOM     10  C   UNL d   1      32.497  22.840 -22.814  0.00  0.00     0.199 C 
ATOM     11  O   UNL d   1      32.731  22.063 -22.665  0.00  0.00    -0.286 OA
ATOM     12  C   UNL d   1      32.700  23.206 -23.529  0.00  0.00     0.045 C 
ENDBRANCH   9  10
ENDBRANCH   6   9
ENDBRANCH   1   4
BRANCH   2  13
ATOM     13  C   UNL d   1      32.540  23.088 -18.050  0.00  0.00     0.060 A 
ATOM     14  C   UNL d   1      32.965  22.619 -17.517  0.00  0.00     0.034 A 
ATOM     15  C   UNL d   1      32.799  22.652 -16.710  0.00  0.00     0.140 A 
ATOM     16  F   UNL d   1      33.227  22.181 -16.185  0.00  0.00    -0.204 F 
ATOM     17  C   UNL d   1      32.208  23.153 -16.439  0.00  0.00     0.030 A 
ATOM     18  C   UNL d   1      31.783  23.622 -16.968  0.00  0.00     0.003 A 
ATOM     19  C   UNL d   1      31.950  23.589 -17.775  0.00  0.00     0.005 A 
ENDBRANCH   2  13
TORSDOF 4
ENDMDL
MODEL 8
REMARK VINA RESULT:      -0.4      2.196      4.827
REMARK  4 active torsions:
REMARK  status: ('A' for Active; 'I' for Inactive)
REMARK    1  A    between atoms: N_3  and  C_2 
REMARK       I    between atoms: C_6  and  N_3 
REMARK    2  A    between atoms: C_8  and  C_4 
REMARK    3  A    between atoms: C_9  and  C_6 
REMARK    4  A    between atoms: C_12  and  C_8 
ROOT
ATOM      1  N   UNL d   1      32.690  18.928 -22.600  0.00  0.00    -0.181 NA
ATOM      2  C   UNL d   1      32.993  19.645 -22.876  0.00  0.00     0.281 C 
ATOM      3  O   UNL d   1      33.241  19.718 -23.654  0.00  0.00    -0.265 OA
ENDROOT
BRANCH   1   4
ATOM      4  C   UNL d   1      32.635  18.280 -23.104  0.00  0.00     0.216 A 
ATOM      5  N   UNL d   1      31.966  18.048 -23.527  0.00  0.00    -0.200 NA
ATOM      6  C   UNL d   1      32.160  17.369 -23.962  0.00  0.00     0.175 A 
ATOM      7  N   UNL d   1      32.958  17.187 -23.801  0.00  0.00    -0.187 NA
ATOM      8  S   UNL d   1      33.240  17.748 -23.277  0.00  0.00     0.054 SA
BRANCH   6   9
ATOM      9  C   UNL d   1      31.656  16.954 -24.459  0.00  0.00     0.082 C 
BRANCH   9  10
ATOM     10  C   UNL d   1      31.033  16.512 -24.143  0.00  0.00     0.199 C 
ATOM     11  O   UNL d   1      31.177  15.749 -23.863  0.00  0.00    -0.286 OA
ATOM     12  C   UNL d   1      30.270  16.831 -24.108  0.00  0.00     0.045 C 
ENDBRANCH   9  10
ENDBRANCH   6   9
ENDBRANCH   1   4
BRANCH   2  13
ATOM     13  C   UNL d   1      33.045  20.291 -22.364  0.00  0.00     0.060 A 
ATOM     14  C   UNL d   1      33.059  20.169 -21.546  0.00  0.00     0.034 A 
ATOM     15  C   UNL d   1      33.111  20.811 -21.031  0.00  0.00     0.140 A 
ATOM     16  F   UNL d   1      33.125  20.680 -20.216  0.00  0.00    -0.204 F 
ATOM     17  C   UNL d   1      33.149  21.572 -21.335  0.00  0.00     0.030 A 
ATOM     18  C   UNL d   1      33.135  21.696 -22.151  0.00  0.00     0.003 A 
ATOM     19  C   UNL d   1      33.083  21.055 -22.665  0.00  0.00     0.005 A 
ENDBRANCH   2  13
TORSDOF 4
ENDMDL
