MODEL 1
REMARK VINA RESULT:      -0.6      0.000      0.000
REMARK  2 active torsions:
REMARK  status: ('A' for Active; 'I' for Inactive)
REMARK    1  A    between atoms: C_7  and  N_1 
REMARK    2  A    between atoms: C_9  and  C_2 
ROOT
ATOM      1  N   UNL d   1      30.908  16.825 -24.013  0.00  0.00    -0.273 N 
ATOM      2  C   UNL d   1      31.188  16.045 -24.045  0.00  0.00     0.174 A 
ATOM      3  N   UNL d   1      30.559  15.545 -23.874  0.00  0.00    -0.204 NA
ATOM      4  C   UNL d   1      30.110  16.797 -23.822  0.00  0.00     0.185 A 
ATOM      5  C   UNL d   1      29.893  16.009 -23.736  0.00  0.00     0.199 A 
ATOM      6  N   UNL d   1      29.546  17.393 -23.714  0.00  0.00    -0.224 NA
ATOM      7  N   UNL d   1      29.117  15.811 -23.543  0.00  0.00    -0.223 NA
ATOM      8  C   UNL d   1      28.775  17.195 -23.523  0.00  0.00     0.101 A 
ATOM      9  C   UNL d   1      28.555  16.410 -23.436  0.00  0.00     0.101 A 
ATOM     10  C   UNL d   1      28.212  17.790 -23.415  0.00  0.00     0.021 A 
ATOM     11  C   UNL d   1      27.781  16.209 -23.244  0.00  0.00     0.021 A 
ATOM     12  C   UNL d   1      27.215  16.801 -23.135  0.00  0.00     0.002 A 
ATOM     13  C   UNL d   1      27.436  17.597 -23.222  0.00  0.00     0.002 A 
ENDROOT
BRANCH   1  14
ATOM     14  C   UNL d   1      31.385  17.482 -24.155  0.00  0.00     0.069 A 
ATOM     15  C   UNL d   1      31.791  17.837 -23.526  0.00  0.00     0.044 A 
ATOM     16  C   UNL d   1      32.267  18.492 -23.666  0.00  0.00     0.124 A 
ATOM     17  O   UNL d   1      32.667  18.841 -23.043  0.00  0.00    -0.301 OA
ATOM     18  C   UNL d   1      32.336  18.794 -24.435  0.00  0.00     0.123 A 
ATOM     19  C   UNL d   1      33.152  19.507 -23.181  0.00  0.00     0.149 A 
ATOM     20  C   UNL d   1      33.226  19.816 -23.953  0.00  0.00     0.149 A 
ATOM     21  O   UNL d   1      32.818  19.458 -24.580  0.00  0.00    -0.301 OA
ATOM     22  C   UNL d   1      31.934  18.444 -25.061  0.00  0.00     0.028 A 
ATOM     23  C   UNL d   1      31.459  17.788 -24.921  0.00  0.00     0.020 A 
ENDBRANCH   1  14
BRANCH   2  24
ATOM     24  C   UNL d   1      31.960  15.817 -24.218  0.00  0.00     0.135 A 
ATOM     25  O   UNL d   1      32.557  15.663 -23.670  0.00  0.00    -0.302 OA
ATOM     26  C   UNL d   1      33.241  15.453 -24.091  0.00  0.00     0.123 A 
ATOM     27  C   UNL d   1      33.059  15.479 -24.899  0.00  0.00     0.029 A 
ATOM     28  C   UNL d   1      32.268  15.704 -24.977  0.00  0.00     0.030 A 
ENDBRANCH   2  24
TORSDOF 2
ENDMDL
