MODEL 1
REMARK VINA RESULT:      -4.9      0.000      0.000
REMARK  1 active torsions:
REMARK  status: ('A' for Active; 'I' for Inactive)
REMARK       I    between atoms: N_2  and  C_1 
REMARK       I    between atoms: N_4  and  C_1 
REMARK    1  A    between atoms: C_5  and  N_2 
ROOT
ATOM      1  N   UNL d   1     -41.153-121.772 -52.446  0.00  0.00    -0.242 NA
ATOM      2  C   UNL d   1     -41.166-122.750 -53.520  0.00  0.00     0.105 A 
ATOM      3  C   UNL d   1     -41.242-123.197 -52.149  0.00  0.00     0.019 A 
ATOM      4  C   UNL d   1     -41.211-122.399 -51.890  0.00  0.00     0.082 A 
ATOM      5  C   UNL d   1     -41.221-123.366 -52.968  0.00  0.00     0.022 A 
ATOM      6  C   UNL d   1     -41.128-121.953 -53.256  0.00  0.00     0.118 A 
ATOM      7  C   UNL d   1     -41.305-123.810 -51.594  0.00  0.00     0.002 A 
ATOM      8  C   UNL d   1     -41.234-122.224 -51.081  0.00  0.00     0.019 A 
ATOM      9  C   UNL d   1     -41.328-123.633 -50.776  0.00  0.00     0.000 A 
ATOM     10  C   UNL d   1     -41.292-122.846 -50.518  0.00  0.00     0.002 A 
ENDROOT
BRANCH   2  11
ATOM     11  N   UNL d   1     -41.133-122.919 -54.330  0.00  0.00    -0.191 NA
ATOM     12  C   UNL d   1     -41.714-122.625 -54.844  0.00  0.00     0.354 C 
ATOM     13  N   UNL d   1     -42.334-122.149 -54.548  0.00  0.00    -0.253 N 
ATOM     14  O   UNL d   1     -41.686-122.804 -55.666  0.00  0.00    -0.244 OA
ATOM     15  C   UNL d   1     -42.369-121.981 -53.734  0.00  0.00     0.104 C 
ATOM     16  C   UNL d   1     -42.919-121.862 -55.066  0.00  0.00     0.104 C 
ENDBRANCH   2  11
TORSDOF 1
ENDMDL
MODEL 2
REMARK VINA RESULT:      -4.6      2.250      3.649
REMARK  1 active torsions:
REMARK  status: ('A' for Active; 'I' for Inactive)
REMARK       I    between atoms: N_2  and  C_1 
REMARK       I    between atoms: N_4  and  C_1 
REMARK    1  A    between atoms: C_5  and  N_2 
ROOT
ATOM      1  N   UNL d   1     -41.255-121.868 -51.590  0.00  0.00    -0.242 NA
ATOM      2  C   UNL d   1     -41.165-122.966 -50.642  0.00  0.00     0.105 A 
ATOM      3  C   UNL d   1     -41.211-123.250 -52.057  0.00  0.00     0.019 A 
ATOM      4  C   UNL d   1     -41.252-122.427 -52.218  0.00  0.00     0.082 A 
ATOM      5  C   UNL d   1     -41.165-123.513 -51.264  0.00  0.00     0.022 A 
ATOM      6  C   UNL d   1     -41.214-122.143 -50.807  0.00  0.00     0.118 A 
ATOM      7  C   UNL d   1     -41.203-123.794 -52.683  0.00  0.00     0.002 A 
ATOM      8  C   UNL d   1     -41.295-122.159 -53.000  0.00  0.00     0.019 A 
ATOM      9  C   UNL d   1     -41.246-123.522 -53.473  0.00  0.00     0.000 A 
ATOM     10  C   UNL d   1     -41.293-122.711 -53.634  0.00  0.00     0.002 A 
ENDROOT
BRANCH   2  11
ATOM     11  N   UNL d   1     -41.132-123.229 -49.857  0.00  0.00    -0.191 NA
ATOM     12  C   UNL d   1     -41.789-123.145 -49.358  0.00  0.00     0.354 C 
ATOM     13  N   UNL d   1     -42.493-122.800 -49.646  0.00  0.00    -0.253 N 
ATOM     14  O   UNL d   1     -41.753-123.404 -48.558  0.00  0.00    -0.244 OA
ATOM     15  C   UNL d   1     -42.527-122.532 -50.434  0.00  0.00     0.104 C 
ATOM     16  C   UNL d   1     -43.148-122.710 -49.140  0.00  0.00     0.104 C 
ENDBRANCH   2  11
TORSDOF 1
ENDMDL
MODEL 3
REMARK VINA RESULT:      -4.5      1.776      2.871
REMARK  1 active torsions:
REMARK  status: ('A' for Active; 'I' for Inactive)
REMARK       I    between atoms: N_2  and  C_1 
REMARK       I    between atoms: N_4  and  C_1 
REMARK    1  A    between atoms: C_5  and  N_2 
ROOT
ATOM      1  N   UNL d   1     -42.985-122.843 -50.072  0.00  0.00    -0.242 NA
ATOM      2  C   UNL d   1     -41.870-122.275 -50.810  0.00  0.00     0.105 A 
ATOM      3  C   UNL d   1     -41.640-122.854 -49.507  0.00  0.00     0.019 A 
ATOM      4  C   UNL d   1     -42.456-123.042 -49.450  0.00  0.00     0.082 A 
ATOM      5  C   UNL d   1     -41.352-122.471 -50.193  0.00  0.00     0.022 A 
ATOM      6  C   UNL d   1     -42.687-122.459 -50.746  0.00  0.00     0.118 A 
ATOM      7  C   UNL d   1     -41.124-123.059 -48.891  0.00  0.00     0.002 A 
ATOM      8  C   UNL d   1     -42.748-123.423 -48.776  0.00  0.00     0.019 A 
ATOM      9  C   UNL d   1     -41.420-123.444 -48.209  0.00  0.00     0.000 A 
ATOM     10  C   UNL d   1     -42.226-123.625 -48.148  0.00  0.00     0.002 A 
ENDROOT
BRANCH   2  11
ATOM     11  N   UNL d   1     -41.585-121.885 -51.483  0.00  0.00    -0.191 NA
ATOM     12  C   UNL d   1     -41.419-122.311 -52.176  0.00  0.00     0.354 C 
ATOM     13  N   UNL d   1     -41.546-123.136 -52.202  0.00  0.00    -0.253 N 
ATOM     14  O   UNL d   1     -41.123-121.917 -52.858  0.00  0.00    -0.244 OA
ATOM     15  C   UNL d   1     -41.828-123.529 -51.524  0.00  0.00     0.104 C 
ATOM     16  C   UNL d   1     -41.371-123.561 -52.896  0.00  0.00     0.104 C 
ENDBRANCH   2  11
TORSDOF 1
ENDMDL
MODEL 4
REMARK VINA RESULT:      -4.3      1.916      3.516
REMARK  1 active torsions:
REMARK  status: ('A' for Active; 'I' for Inactive)
REMARK       I    between atoms: N_2  and  C_1 
REMARK       I    between atoms: N_4  and  C_1 
REMARK    1  A    between atoms: C_5  and  N_2 
ROOT
ATOM      1  N   UNL d   1     -41.227-123.817 -52.668  0.00  0.00    -0.242 NA
ATOM      2  C   UNL d   1     -41.236-122.732 -51.701  0.00  0.00     0.105 A 
ATOM      3  C   UNL d   1     -41.547-122.457 -53.084  0.00  0.00     0.019 A 
ATOM      4  C   UNL d   1     -41.442-123.269 -53.267  0.00  0.00     0.082 A 
ATOM      5  C   UNL d   1     -41.445-122.195 -52.296  0.00  0.00     0.022 A 
ATOM      6  C   UNL d   1     -41.124-123.543 -51.890  0.00  0.00     0.118 A 
ATOM      7  C   UNL d   1     -41.764-121.922 -53.681  0.00  0.00     0.002 A 
ATOM      8  C   UNL d   1     -41.544-123.536 -54.044  0.00  0.00     0.019 A 
ATOM      9  C   UNL d   1     -41.868-122.193 -54.466  0.00  0.00     0.000 A 
ATOM     10  C   UNL d   1     -41.757-122.994 -54.650  0.00  0.00     0.002 A 
ENDROOT
BRANCH   2  11
ATOM     11  N   UNL d   1     -41.123-122.469 -50.924  0.00  0.00    -0.191 NA
ATOM     12  C   UNL d   1     -41.593-122.766 -50.307  0.00  0.00     0.354 C 
ATOM     13  N   UNL d   1     -42.180-123.339 -50.467  0.00  0.00    -0.253 N 
ATOM     14  O   UNL d   1     -41.484-122.493 -49.519  0.00  0.00    -0.244 OA
ATOM     15  C   UNL d   1     -42.297-123.601 -51.248  0.00  0.00     0.104 C 
ATOM     16  C   UNL d   1     -42.655-123.629 -49.847  0.00  0.00     0.104 C 
ENDBRANCH   2  11
TORSDOF 1
ENDMDL
MODEL 5
REMARK VINA RESULT:      -4.3      2.854      4.435
REMARK  1 active torsions:
REMARK  status: ('A' for Active; 'I' for Inactive)
REMARK       I    between atoms: N_2  and  C_1 
REMARK       I    between atoms: N_4  and  C_1 
REMARK    1  A    between atoms: C_5  and  N_2 
ROOT
ATOM      1  N   UNL d   1     -42.166-121.980 -50.579  0.00  0.00    -0.242 NA
ATOM      2  C   UNL d   1     -42.506-123.143 -49.777  0.00  0.00     0.105 A 
ATOM      3  C   UNL d   1     -41.819-123.321 -51.035  0.00  0.00     0.019 A 
ATOM      4  C   UNL d   1     -41.818-122.490 -51.149  0.00  0.00     0.082 A 
ATOM      5  C   UNL d   1     -42.164-123.642 -50.343  0.00  0.00     0.022 A 
ATOM      6  C   UNL d   1     -42.510-122.312 -49.899  0.00  0.00     0.118 A 
ATOM      7  C   UNL d   1     -41.468-123.817 -51.600  0.00  0.00     0.002 A 
ATOM      8  C   UNL d   1     -41.477-122.165 -51.829  0.00  0.00     0.019 A 
ATOM      9  C   UNL d   1     -41.123-123.488 -52.287  0.00  0.00     0.000 A 
ATOM     10  C   UNL d   1     -41.126-122.668 -52.405  0.00  0.00     0.002 A 
ENDROOT
BRANCH   2  11
ATOM     11  N   UNL d   1     -42.858-123.463 -49.099  0.00  0.00    -0.191 NA
ATOM     12  C   UNL d   1     -42.453-123.460 -48.375  0.00  0.00     0.354 C 
ATOM     13  N   UNL d   1     -41.688-123.127 -48.324  0.00  0.00    -0.253 N 
ATOM     14  O   UNL d   1     -42.806-123.793 -47.687  0.00  0.00    -0.244 OA
ATOM     15  C   UNL d   1     -41.333-122.809 -49.005  0.00  0.00     0.104 C 
ATOM     16  C   UNL d   1     -41.282-123.133 -47.597  0.00  0.00     0.104 C 
ENDBRANCH   2  11
TORSDOF 1
ENDMDL
MODEL 6
REMARK VINA RESULT:      -3.4      2.823      4.080
REMARK  1 active torsions:
REMARK  status: ('A' for Active; 'I' for Inactive)
REMARK       I    between atoms: N_2  and  C_1 
REMARK       I    between atoms: N_4  and  C_1 
REMARK    1  A    between atoms: C_5  and  N_2 
ROOT
ATOM      1  N   UNL d   1     -41.162-123.048 -48.352  0.00  0.00    -0.242 NA
ATOM      2  C   UNL d   1     -41.768-123.613 -49.546  0.00  0.00     0.105 A 
ATOM      3  C   UNL d   1     -42.498-123.630 -48.300  0.00  0.00     0.019 A 
ATOM      4  C   UNL d   1     -41.856-123.247 -47.921  0.00  0.00     0.082 A 
ATOM      5  C   UNL d   1     -42.449-123.809 -49.116  0.00  0.00     0.022 A 
ATOM      6  C   UNL d   1     -41.123-123.235 -49.161  0.00  0.00     0.118 A 
ATOM      7  C   UNL d   1     -43.182-123.818 -47.869  0.00  0.00     0.002 A 
ATOM      8  C   UNL d   1     -41.899-123.064 -47.115  0.00  0.00     0.019 A 
ATOM      9  C   UNL d   1     -43.225-123.633 -47.054  0.00  0.00     0.000 A 
ATOM     10  C   UNL d   1     -42.588-123.260 -46.676  0.00  0.00     0.002 A 
ENDROOT
BRANCH   2  11
ATOM     11  N   UNL d   1     -41.715-123.801 -50.351  0.00  0.00    -0.191 NA
ATOM     12  C   UNL d   1     -41.743-123.203 -50.925  0.00  0.00     0.354 C 
ATOM     13  N   UNL d   1     -41.816-122.403 -50.694  0.00  0.00    -0.253 N 
ATOM     14  O   UNL d   1     -41.698-123.395 -51.743  0.00  0.00    -0.244 OA
ATOM     15  C   UNL d   1     -41.873-122.213 -49.885  0.00  0.00     0.104 C 
ATOM     16  C   UNL d   1     -41.852-121.806 -51.273  0.00  0.00     0.104 C 
ENDBRANCH   2  11
TORSDOF 1
ENDMDL
