MODEL 1
REMARK VINA RESULT:     -12.6      0.000      0.000
REMARK  2 active torsions:
REMARK  status: ('A' for Active; 'I' for Inactive)
REMARK    1  A    between atoms: C_6  and  C_2 
REMARK    2  A    between atoms: C_7  and  C_3 
ROOT
ATOM      1  N   UNL d   1      52.321  31.897  52.922  0.00  0.00    -0.243 NA
ATOM      2  C   UNL d   1      52.494  32.673  53.131  0.00  0.00     0.104 A 
ATOM      3  C   UNL d   1      53.706  32.525  53.972  0.00  0.00     0.033 A 
ATOM      4  S   UNL d   1      53.828  31.713  53.968  0.00  0.00    -0.085 SA
ATOM      5  C   UNL d   1      53.126  32.942  53.608  0.00  0.00     0.028 A 
ATOM      6  C   UNL d   1      52.726  31.207  53.131  0.00  0.00     0.087 A 
ATOM      7  C   UNL d   1      53.402  31.124  53.601  0.00  0.00     0.047 A 
ATOM      8  C   UNL d   1      52.363  30.553  52.801  0.00  0.00     0.020 A 
ATOM      9  C   UNL d   1      53.706  30.389  53.734  0.00  0.00     0.008 A 
ATOM     10  C   UNL d   1      53.356  29.706  53.410  0.00  0.00     0.001 A 
ATOM     11  C   UNL d   1      52.683  29.788  52.943  0.00  0.00     0.002 A 
ENDROOT
BRANCH   3  12
ATOM     12  C   UNL d   1      54.251  32.966  54.406  0.00  0.00     0.034 A 
ATOM     13  C   UNL d   1      54.945  33.258  54.036  0.00  0.00     0.141 A 
ATOM     14  F   UNL d   1      55.076  33.102  53.241  0.00  0.00    -0.204 F 
ATOM     15  C   UNL d   1      55.482  33.694  54.469  0.00  0.00     0.030 A 
ATOM     16  C   UNL d   1      55.349  33.845  55.252  0.00  0.00     0.002 A 
ATOM     17  C   UNL d   1      54.666  33.566  55.644  0.00  0.00     0.000 A 
ATOM     18  C   UNL d   1      54.121  33.125  55.209  0.00  0.00     0.003 A 
ENDBRANCH   3  12
BRANCH   2  19
ATOM     19  C   UNL d   1      51.980  33.243  52.830  0.00  0.00     0.118 A 
ATOM     20  O   UNL d   1      52.053  33.644  52.112  0.00  0.00    -0.304 OA
ATOM     21  C   UNL d   1      51.408  34.162  52.046  0.00  0.00     0.123 A 
ATOM     22  C   UNL d   1      50.935  34.084  52.721  0.00  0.00     0.029 A 
ATOM     23  C   UNL d   1      51.289  33.518  53.203  0.00  0.00     0.028 A 
ENDBRANCH   2  19
TORSDOF 2
ENDMDL
MODEL 2
REMARK VINA RESULT:     -12.1      1.282      3.142
REMARK  2 active torsions:
REMARK  status: ('A' for Active; 'I' for Inactive)
REMARK    1  A    between atoms: C_6  and  C_2 
REMARK    2  A    between atoms: C_7  and  C_3 
ROOT
ATOM      1  N   UNL d   1      53.890  31.783  54.030  0.00  0.00    -0.243 NA
ATOM      2  C   UNL d   1      53.744  32.592  54.055  0.00  0.00     0.104 A 
ATOM      3  C   UNL d   1      52.530  32.734  53.217  0.00  0.00     0.033 A 
ATOM      4  S   UNL d   1      52.379  31.959  52.987  0.00  0.00    -0.085 SA
ATOM      5  C   UNL d   1      53.123  33.008  53.681  0.00  0.00     0.028 A 
ATOM      6  C   UNL d   1      53.461  31.197  53.633  0.00  0.00     0.087 A 
ATOM      7  C   UNL d   1      52.784  31.276  53.166  0.00  0.00     0.047 A 
ATOM      8  C   UNL d   1      53.801  30.464  53.758  0.00  0.00     0.020 A 
ATOM      9  C   UNL d   1      52.455  30.621  52.828  0.00  0.00     0.008 A 
ATOM     10  C   UNL d   1      52.780  29.862  52.939  0.00  0.00     0.001 A 
ATOM     11  C   UNL d   1      53.454  29.783  53.404  0.00  0.00     0.002 A 
ENDROOT
BRANCH   3  12
ATOM     12  C   UNL d   1      52.002  33.299  52.932  0.00  0.00     0.034 A 
ATOM     13  C   UNL d   1      51.279  33.441  53.336  0.00  0.00     0.141 A 
ATOM     14  F   UNL d   1      51.105  33.013  54.014  0.00  0.00    -0.204 F 
ATOM     15  C   UNL d   1      50.759  34.001  53.051  0.00  0.00     0.030 A 
ATOM     16  C   UNL d   1      50.935  34.420  52.383  0.00  0.00     0.002 A 
ATOM     17  C   UNL d   1      51.646  34.299  51.962  0.00  0.00     0.000 A 
ATOM     18  C   UNL d   1      52.175  33.733  52.247  0.00  0.00     0.003 A 
ENDBRANCH   3  12
BRANCH   2  19
ATOM     19  C   UNL d   1      54.277  33.033  54.503  0.00  0.00     0.118 A 
ATOM     20  O   UNL d   1      54.967  33.396  54.231  0.00  0.00    -0.304 OA
ATOM     21  C   UNL d   1      55.322  33.776  54.878  0.00  0.00     0.123 A 
ATOM     22  C   UNL d   1      54.856  33.649  55.550  0.00  0.00     0.029 A 
ATOM     23  C   UNL d   1      54.212  33.191  55.317  0.00  0.00     0.028 A 
ENDBRANCH   2  19
TORSDOF 2
ENDMDL
MODEL 3
REMARK VINA RESULT:     -11.9      1.375      3.724
REMARK  2 active torsions:
REMARK  status: ('A' for Active; 'I' for Inactive)
REMARK    1  A    between atoms: C_6  and  C_2 
REMARK    2  A    between atoms: C_7  and  C_3 
ROOT
ATOM      1  N   UNL d   1      53.651  32.145  53.980  0.00  0.00    -0.243 NA
ATOM      2  C   UNL d   1      53.033  31.967  53.467  0.00  0.00     0.104 A 
ATOM      3  C   UNL d   1      52.350  33.273  53.310  0.00  0.00     0.033 A 
ATOM      4  S   UNL d   1      52.801  33.769  53.784  0.00  0.00    -0.085 SA
ATOM      5  C   UNL d   1      52.451  32.490  53.172  0.00  0.00     0.028 A 
ATOM      6  C   UNL d   1      53.841  32.874  54.321  0.00  0.00     0.087 A 
ATOM      7  C   UNL d   1      53.459  33.603  54.233  0.00  0.00     0.047 A 
ATOM      8  C   UNL d   1      54.501  32.802  54.798  0.00  0.00     0.020 A 
ATOM      9  C   UNL d   1      53.743  34.250  54.623  0.00  0.00     0.008 A 
ATOM     10  C   UNL d   1      54.414  34.204  55.115  0.00  0.00     0.001 A 
ATOM     11  C   UNL d   1      54.794  33.479  55.202  0.00  0.00     0.002 A 
ENDROOT
BRANCH   3  12
ATOM     12  C   UNL d   1      51.712  33.628  52.927  0.00  0.00     0.034 A 
ATOM     13  C   UNL d   1      50.947  33.600  53.272  0.00  0.00     0.141 A 
ATOM     14  F   UNL d   1      50.840  33.218  53.990  0.00  0.00    -0.204 F 
ATOM     15  C   UNL d   1      50.317  33.953  52.890  0.00  0.00     0.030 A 
ATOM     16  C   UNL d   1      50.427  34.329  52.183  0.00  0.00     0.002 A 
ATOM     17  C   UNL d   1      51.177  34.370  51.819  0.00  0.00     0.000 A 
ATOM     18  C   UNL d   1      51.817  34.015  52.201  0.00  0.00     0.003 A 
ENDBRANCH   3  12
BRANCH   2  19
ATOM     19  C   UNL d   1      52.992  31.181  53.223  0.00  0.00     0.118 A 
ATOM     20  O   UNL d   1      52.990  30.907  52.444  0.00  0.00    -0.304 OA
ATOM     21  C   UNL d   1      52.942  30.079  52.469  0.00  0.00     0.123 A 
ATOM     22  C   UNL d   1      52.915  29.838  53.261  0.00  0.00     0.029 A 
ATOM     23  C   UNL d   1      52.946  30.519  53.724  0.00  0.00     0.028 A 
ENDBRANCH   2  19
TORSDOF 2
ENDMDL
MODEL 4
REMARK VINA RESULT:     -11.3      0.929      2.693
REMARK  2 active torsions:
REMARK  status: ('A' for Active; 'I' for Inactive)
REMARK    1  A    between atoms: C_6  and  C_2 
REMARK    2  A    between atoms: C_7  and  C_3 
ROOT
ATOM      1  N   UNL d   1      52.057  32.287  52.933  0.00  0.00    -0.243 NA
ATOM      2  C   UNL d   1      52.733  31.942  53.249  0.00  0.00     0.104 A 
ATOM      3  C   UNL d   1      53.413  33.085  53.902  0.00  0.00     0.033 A 
ATOM      4  S   UNL d   1      52.903  33.710  53.745  0.00  0.00    -0.085 SA
ATOM      5  C   UNL d   1      53.338  32.317  53.686  0.00  0.00     0.028 A 
ATOM      6  C   UNL d   1      51.819  33.078  52.972  0.00  0.00     0.087 A 
ATOM      7  C   UNL d   1      52.199  33.717  53.336  0.00  0.00     0.047 A 
ATOM      8  C   UNL d   1      51.109  33.181  52.581  0.00  0.00     0.020 A 
ATOM      9  C   UNL d   1      51.863  34.450  53.305  0.00  0.00     0.008 A 
ATOM     10  C   UNL d   1      51.139  34.582  52.913  0.00  0.00     0.001 A 
ATOM     11  C   UNL d   1      50.762  33.947  52.551  0.00  0.00     0.002 A 
ENDROOT
BRANCH   3  12
ATOM     12  C   UNL d   1      54.086  33.276  54.338  0.00  0.00     0.034 A 
ATOM     13  C   UNL d   1      54.824  33.371  53.949  0.00  0.00     0.141 A 
ATOM     14  F   UNL d   1      54.869  33.273  53.135  0.00  0.00    -0.204 F 
ATOM     15  C   UNL d   1      55.490  33.560  54.383  0.00  0.00     0.030 A 
ATOM     16  C   UNL d   1      55.441  33.655  55.184  0.00  0.00     0.002 A 
ATOM     17  C   UNL d   1      54.719  33.566  55.595  0.00  0.00     0.000 A 
ATOM     18  C   UNL d   1      54.044  33.375  55.159  0.00  0.00     0.003 A 
ENDBRANCH   3  12
BRANCH   2  19
ATOM     19  C   UNL d   1      52.812  31.132  53.114  0.00  0.00     0.118 A 
ATOM     20  O   UNL d   1      52.987  30.768  52.394  0.00  0.00    -0.304 OA
ATOM     21  C   UNL d   1      53.011  29.949  52.526  0.00  0.00     0.123 A 
ATOM     22  C   UNL d   1      52.851  29.804  53.325  0.00  0.00     0.029 A 
ATOM     23  C   UNL d   1      52.729  30.534  53.686  0.00  0.00     0.028 A 
ENDBRANCH   2  19
TORSDOF 2
ENDMDL
MODEL 5
REMARK VINA RESULT:     -10.4      1.041      2.997
REMARK  2 active torsions:
REMARK  status: ('A' for Active; 'I' for Inactive)
REMARK    1  A    between atoms: C_6  and  C_2 
REMARK    2  A    between atoms: C_7  and  C_3 
ROOT
ATOM      1  N   UNL d   1      52.860  33.832  53.998  0.00  0.00    -0.243 NA
ATOM      2  C   UNL d   1      52.385  33.282  53.613  0.00  0.00     0.104 A 
ATOM      3  C   UNL d   1      53.141  32.018  53.783  0.00  0.00     0.033 A 
ATOM      4  S   UNL d   1      53.800  32.260  54.210  0.00  0.00    -0.085 SA
ATOM      5  C   UNL d   1      52.527  32.463  53.524  0.00  0.00     0.028 A 
ATOM      6  C   UNL d   1      53.581  33.707  54.384  0.00  0.00     0.087 A 
ATOM      7  C   UNL d   1      54.002  33.002  54.479  0.00  0.00     0.047 A 
ATOM      8  C   UNL d   1      53.864  34.409  54.692  0.00  0.00     0.020 A 
ATOM      9  C   UNL d   1      54.702  33.008  54.881  0.00  0.00     0.008 A 
ATOM     10  C   UNL d   1      55.014  33.710  55.204  0.00  0.00     0.001 A 
ATOM     11  C   UNL d   1      54.594  34.411  55.110  0.00  0.00     0.002 A 
ENDROOT
BRANCH   3  12
ATOM     12  C   UNL d   1      53.111  31.215  53.599  0.00  0.00     0.034 A 
ATOM     13  C   UNL d   1      53.213  30.962  52.805  0.00  0.00     0.141 A 
ATOM     14  F   UNL d   1      53.344  31.519  52.217  0.00  0.00    -0.204 F 
ATOM     15  C   UNL d   1      53.182  30.166  52.627  0.00  0.00     0.030 A 
ATOM     16  C   UNL d   1      53.054  29.621  53.210  0.00  0.00     0.002 A 
ATOM     17  C   UNL d   1      52.949  29.847  54.007  0.00  0.00     0.000 A 
ATOM     18  C   UNL d   1      52.979  30.651  54.192  0.00  0.00     0.003 A 
ENDBRANCH   3  12
BRANCH   2  19
ATOM     19  C   UNL d   1      51.694  33.583  53.280  0.00  0.00     0.118 A 
ATOM     20  O   UNL d   1      50.921  33.438  53.533  0.00  0.00    -0.304 OA
ATOM     21  C   UNL d   1      50.410  33.857  53.032  0.00  0.00     0.123 A 
ATOM     22  C   UNL d   1      50.862  34.263  52.469  0.00  0.00     0.029 A 
ATOM     23  C   UNL d   1      51.654  34.093  52.624  0.00  0.00     0.028 A 
ENDBRANCH   2  19
TORSDOF 2
ENDMDL
MODEL 6
REMARK VINA RESULT:     -10.0      1.276      3.543
REMARK  2 active torsions:
REMARK  status: ('A' for Active; 'I' for Inactive)
REMARK    1  A    between atoms: C_6  and  C_2 
REMARK    2  A    between atoms: C_7  and  C_3 
ROOT
ATOM      1  N   UNL d   1      53.176  33.756  53.848  0.00  0.00    -0.243 NA
ATOM      2  C   UNL d   1      53.689  33.147  54.054  0.00  0.00     0.104 A 
ATOM      3  C   UNL d   1      52.962  31.936  53.604  0.00  0.00     0.033 A 
ATOM      4  S   UNL d   1      52.271  32.249  53.289  0.00  0.00    -0.085 SA
ATOM      5  C   UNL d   1      53.578  32.327  53.937  0.00  0.00     0.028 A 
ATOM      6  C   UNL d   1      52.437  33.701  53.481  0.00  0.00     0.087 A 
ATOM      7  C   UNL d   1      52.031  33.025  53.230  0.00  0.00     0.047 A 
ATOM      8  C   UNL d   1      52.115  34.445  53.379  0.00  0.00     0.020 A 
ATOM      9  C   UNL d   1      51.308  33.102  52.880  0.00  0.00     0.008 A 
ATOM     10  C   UNL d   1      50.956  33.849  52.765  0.00  0.00     0.001 A 
ATOM     11  C   UNL d   1      51.360  34.521  53.014  0.00  0.00     0.002 A 
ENDROOT
BRANCH   3  12
ATOM     12  C   UNL d   1      53.028  31.115  53.574  0.00  0.00     0.034 A 
ATOM     13  C   UNL d   1      53.184  30.733  52.843  0.00  0.00     0.141 A 
ATOM     14  F   UNL d   1      53.270  31.182  52.162  0.00  0.00    -0.204 F 
ATOM     15  C   UNL d   1      53.248  29.919  52.816  0.00  0.00     0.030 A 
ATOM     16  C   UNL d   1      53.163  29.481  53.490  0.00  0.00     0.002 A 
ATOM     17  C   UNL d   1      53.007  29.836  54.229  0.00  0.00     0.000 A 
ATOM     18  C   UNL d   1      52.941  30.658  54.260  0.00  0.00     0.003 A 
ENDBRANCH   3  12
BRANCH   2  19
ATOM     19  C   UNL d   1      54.391  33.384  54.417  0.00  0.00     0.118 A 
ATOM     20  O   UNL d   1      55.119  33.510  54.047  0.00  0.00    -0.304 OA
ATOM     21  C   UNL d   1      55.660  33.742  54.632  0.00  0.00     0.123 A 
ATOM     22  C   UNL d   1      55.271  33.761  55.362  0.00  0.00     0.029 A 
ATOM     23  C   UNL d   1      54.489  33.540  55.228  0.00  0.00     0.028 A 
ENDBRANCH   2  19
TORSDOF 2
ENDMDL
