MODEL 1
REMARK VINA RESULT:      -6.9      0.000      0.000
REMARK  1 active torsions:
REMARK  status: ('A' for Active; 'I' for Inactive)
REMARK    1  A    between atoms: C_2  and  C_1 
REMARK       I    between atoms: N_3  and  C_2 
ROOT
ATOM      1  C   UNL d   1      56.681  -0.098  32.562  0.00  0.00     0.109 A 
ATOM      2  C   UNL d   1      56.626  -0.900  32.510  0.00  0.00     0.026 A 
ATOM      3  C   UNL d   1      56.079   0.251  32.949  0.00  0.00    -0.014 A 
ATOM      4  C   UNL d   1      56.227   0.630  32.903  0.00  0.00    -0.014 A 
ATOM      5  C   UNL d   1      55.881  -1.171  32.914  0.00  0.00     0.045 A 
ATOM      6  C   UNL d   1      55.607   0.410  33.241  0.00  0.00    -0.007 A 
ATOM      7  C   UNL d   1      55.284  -0.056  33.379  0.00  0.00    -0.007 A 
ATOM      8  C   UNL d   1      54.832   0.672  33.719  0.00  0.00    -0.001 A 
ATOM      9  C   UNL d   1      55.232  -0.824  33.328  0.00  0.00    -0.022 A 
ATOM     10  C   UNL d   1      55.483  -0.631  33.202  0.00  0.00    -0.022 A 
ENDROOT
BRANCH   1  11
ATOM     11  C   UNL d   1      57.534   0.311  32.110  0.00  0.00     0.248 C 
ATOM     12  N   UNL d   1      57.707   0.267  31.083  0.00  0.00    -0.275 N 
ATOM     13  C   UNL d   1      57.534   0.072  30.347  0.00  0.00     0.083 A 
ATOM     14  C   UNL d   1      58.386   0.640  31.072  0.00  0.00     0.083 A 
ATOM     15  C   UNL d   1      58.118   0.331  29.885  0.00  0.00     0.021 A 
ATOM     16  C   UNL d   1      58.644   0.682  30.332  0.00  0.00     0.021 A 
ATOM     17  O   UNL d   1      58.064   0.678  32.657  0.00  0.00    -0.271 OA
ENDBRANCH   1  11
TORSDOF 1
ENDMDL
MODEL 2
REMARK VINA RESULT:      -6.5      0.897      1.553
REMARK  1 active torsions:
REMARK  status: ('A' for Active; 'I' for Inactive)
REMARK    1  A    between atoms: C_2  and  C_1 
REMARK       I    between atoms: N_3  and  C_2 
ROOT
ATOM      1  C   UNL d   1      56.783  -0.001  31.901  0.00  0.00     0.109 A 
ATOM      2  C   UNL d   1      56.548   0.680  32.260  0.00  0.00     0.026 A 
ATOM      3  C   UNL d   1      56.501  -0.667  32.235  0.00  0.00    -0.014 A 
ATOM      4  C   UNL d   1      56.687  -0.917  31.970  0.00  0.00    -0.014 A 
ATOM      5  C   UNL d   1      56.022   0.483  32.949  0.00  0.00     0.045 A 
ATOM      6  C   UNL d   1      56.250  -1.086  32.542  0.00  0.00    -0.007 A 
ATOM      7  C   UNL d   1      55.935  -0.861  32.978  0.00  0.00    -0.007 A 
ATOM      8  C   UNL d   1      55.840  -1.776  33.046  0.00  0.00    -0.001 A 
ATOM      9  C   UNL d   1      55.710  -0.209  33.322  0.00  0.00    -0.022 A 
ATOM     10  C   UNL d   1      55.913  -0.232  33.048  0.00  0.00    -0.022 A 
ENDROOT
BRANCH   1  11
ATOM     11  C   UNL d   1      57.410   0.137  31.072  0.00  0.00     0.248 C 
ATOM     12  N   UNL d   1      58.418   0.385  31.159  0.00  0.00    -0.275 N 
ATOM     13  C   UNL d   1      59.072   0.552  31.553  0.00  0.00     0.083 A 
ATOM     14  C   UNL d   1      58.588   0.412  30.404  0.00  0.00     0.083 A 
ATOM     15  C   UNL d   1      59.644   0.682  31.028  0.00  0.00     0.021 A 
ATOM     16  C   UNL d   1      59.347   0.596  30.318  0.00  0.00     0.021 A 
ATOM     17  O   UNL d   1      57.019   0.027  30.330  0.00  0.00    -0.271 OA
ENDBRANCH   1  11
TORSDOF 1
ENDMDL
MODEL 3
REMARK VINA RESULT:      -5.8      1.152      1.788
REMARK  1 active torsions:
REMARK  status: ('A' for Active; 'I' for Inactive)
REMARK    1  A    between atoms: C_2  and  C_1 
REMARK       I    between atoms: N_3  and  C_2 
ROOT
ATOM      1  C   UNL d   1      57.053  -0.381  31.383  0.00  0.00     0.109 A 
ATOM      2  C   UNL d   1      56.971   0.420  31.360  0.00  0.00     0.026 A 
ATOM      3  C   UNL d   1      56.664  -0.737  31.978  0.00  0.00    -0.014 A 
ATOM      4  C   UNL d   1      56.785  -1.114  31.875  0.00  0.00    -0.014 A 
ATOM      5  C   UNL d   1      56.450   0.682  32.031  0.00  0.00     0.045 A 
ATOM      6  C   UNL d   1      56.351  -0.902  32.435  0.00  0.00    -0.007 A 
ATOM      7  C   UNL d   1      56.106  -0.439  32.694  0.00  0.00    -0.007 A 
ATOM      8  C   UNL d   1      55.839  -1.172  33.185  0.00  0.00    -0.001 A 
ATOM      9  C   UNL d   1      56.028   0.327  32.671  0.00  0.00    -0.022 A 
ATOM     10  C   UNL d   1      56.210   0.137  32.454  0.00  0.00    -0.022 A 
ENDROOT
BRANCH   1  11
ATOM     11  C   UNL d   1      57.656  -0.780  30.623  0.00  0.00     0.248 C 
ATOM     12  N   UNL d   1      58.286  -0.196  30.033  0.00  0.00    -0.275 N 
ATOM     13  C   UNL d   1      58.613   0.474  29.802  0.00  0.00     0.083 A 
ATOM     14  C   UNL d   1      58.575  -0.762  29.591  0.00  0.00     0.083 A 
ATOM     15  C   UNL d   1      59.108   0.309  29.211  0.00  0.00     0.021 A 
ATOM     16  C   UNL d   1      59.085  -0.453  29.080  0.00  0.00     0.021 A 
ATOM     17  O   UNL d   1      57.580  -1.618  30.537  0.00  0.00    -0.271 OA
ENDBRANCH   1  11
TORSDOF 1
ENDMDL
MODEL 4
REMARK VINA RESULT:      -5.6      1.313      3.331
REMARK  1 active torsions:
REMARK  status: ('A' for Active; 'I' for Inactive)
REMARK    1  A    between atoms: C_2  and  C_1 
REMARK       I    between atoms: N_3  and  C_2 
ROOT
ATOM      1  C   UNL d   1      56.556  -0.190  32.772  0.00  0.00     0.109 A 
ATOM      2  C   UNL d   1      56.343  -0.945  32.591  0.00  0.00     0.026 A 
ATOM      3  C   UNL d   1      56.976   0.181  32.207  0.00  0.00    -0.014 A 
ATOM      4  C   UNL d   1      57.013   0.530  32.418  0.00  0.00    -0.014 A 
ATOM      5  C   UNL d   1      56.651  -1.152  31.783  0.00  0.00     0.045 A 
ATOM      6  C   UNL d   1      57.271   0.363  31.745  0.00  0.00    -0.007 A 
ATOM      7  C   UNL d   1      57.299  -0.057  31.341  0.00  0.00    -0.007 A 
ATOM      8  C   UNL d   1      57.756   0.662  30.987  0.00  0.00    -0.001 A 
ATOM      9  C   UNL d   1      57.095  -0.780  31.168  0.00  0.00    -0.022 A 
ATOM     10  C   UNL d   1      57.022  -0.614  31.457  0.00  0.00    -0.022 A 
ENDROOT
BRANCH   1  11
ATOM     11  C   UNL d   1      56.234   0.141  33.714  0.00  0.00     0.248 C 
ATOM     12  N   UNL d   1      55.230   0.295  33.947  0.00  0.00    -0.275 N 
ATOM     13  C   UNL d   1      54.464   0.305  33.794  0.00  0.00     0.083 A 
ATOM     14  C   UNL d   1      55.324   0.526  34.681  0.00  0.00     0.083 A 
ATOM     15  C   UNL d   1      54.091   0.545  34.445  0.00  0.00     0.021 A 
ATOM     16  C   UNL d   1      54.620   0.682  34.993  0.00  0.00     0.021 A 
ATOM     17  O   UNL d   1      56.865   0.270  34.261  0.00  0.00    -0.271 OA
ENDBRANCH   1  11
TORSDOF 1
ENDMDL
MODEL 5
REMARK VINA RESULT:      -4.6      1.016      3.589
REMARK  1 active torsions:
REMARK  status: ('A' for Active; 'I' for Inactive)
REMARK    1  A    between atoms: C_2  and  C_1 
REMARK       I    between atoms: N_3  and  C_2 
ROOT
ATOM      1  C   UNL d   1      57.397  -0.218  31.596  0.00  0.00     0.109 A 
ATOM      2  C   UNL d   1      57.806   0.375  31.956  0.00  0.00     0.026 A 
ATOM      3  C   UNL d   1      57.635  -0.384  30.856  0.00  0.00    -0.014 A 
ATOM      4  C   UNL d   1      57.361  -0.682  30.799  0.00  0.00    -0.014 A 
ATOM      5  C   UNL d   1      58.428   0.682  31.400  0.00  0.00     0.045 A 
ATOM      6  C   UNL d   1      57.877  -0.431  30.333  0.00  0.00    -0.007 A 
ATOM      7  C   UNL d   1      58.309  -0.043  30.271  0.00  0.00    -0.007 A 
ATOM      8  C   UNL d   1      58.273  -0.508  29.475  0.00  0.00    -0.001 A 
ATOM      9  C   UNL d   1      58.701   0.524  30.616  0.00  0.00    -0.022 A 
ATOM     10  C   UNL d   1      58.443   0.347  30.752  0.00  0.00    -0.022 A 
ENDROOT
BRANCH   1  11
ATOM     11  C   UNL d   1      56.637  -0.641  32.182  0.00  0.00     0.248 C 
ATOM     12  N   UNL d   1      55.984  -0.073  32.761  0.00  0.00    -0.275 N 
ATOM     13  C   UNL d   1      55.695   0.594  33.050  0.00  0.00     0.083 A 
ATOM     14  C   UNL d   1      55.566  -0.655  33.056  0.00  0.00     0.083 A 
ATOM     15  C   UNL d   1      55.095   0.410  33.526  0.00  0.00     0.021 A 
ATOM     16  C   UNL d   1      55.014  -0.359  33.530  0.00  0.00     0.021 A 
ATOM     17  O   UNL d   1      56.608  -1.486  32.139  0.00  0.00    -0.271 OA
ENDBRANCH   1  11
TORSDOF 1
ENDMDL
MODEL 6
REMARK VINA RESULT:      -4.0      9.272     10.028
REMARK  1 active torsions:
REMARK  status: ('A' for Active; 'I' for Inactive)
REMARK    1  A    between atoms: C_2  and  C_1 
REMARK       I    between atoms: N_3  and  C_2 
ROOT
ATOM      1  C   UNL d   1      59.993  -9.104  34.672  0.00  0.00     0.109 A 
ATOM      2  C   UNL d   1      60.588  -9.514  35.028  0.00  0.00     0.026 A 
ATOM      3  C   UNL d   1      59.690  -8.513  35.110  0.00  0.00    -0.014 A 
ATOM      4  C   UNL d   1      59.417  -8.400  34.826  0.00  0.00    -0.014 A 
ATOM      5  C   UNL d   1      60.738  -9.173  35.835  0.00  0.00     0.045 A 
ATOM      6  C   UNL d   1      59.538  -8.112  35.497  0.00  0.00    -0.007 A 
ATOM      7  C   UNL d   1      59.863  -8.159  35.979  0.00  0.00    -0.007 A 
ATOM      8  C   UNL d   1      59.288  -7.455  36.132  0.00  0.00    -0.001 A 
ATOM      9  C   UNL d   1      60.433  -8.551  36.320  0.00  0.00    -0.022 A 
ATOM     10  C   UNL d   1      60.306  -8.610  36.008  0.00  0.00    -0.022 A 
ENDROOT
BRANCH   1  11
ATOM     11  C   UNL d   1      59.747  -9.440  33.710  0.00  0.00     0.248 C 
ATOM     12  N   UNL d   1      60.432  -9.462  32.925  0.00  0.00    -0.275 N 
ATOM     13  C   UNL d   1      61.133  -9.353  32.598  0.00  0.00     0.083 A 
ATOM     14  C   UNL d   1      59.962  -9.746  32.379  0.00  0.00     0.083 A 
ATOM     15  C   UNL d   1      61.085  -9.575  31.843  0.00  0.00     0.021 A 
ATOM     16  C   UNL d   1      60.362  -9.818  31.707  0.00  0.00     0.021 A 
ATOM     17  O   UNL d   1      58.942  -9.689  33.634  0.00  0.00    -0.271 OA
ENDBRANCH   1  11
TORSDOF 1
ENDMDL
