MODEL 1
REMARK VINA RESULT:      58.4      0.000      0.000
REMARK  6 active torsions:
REMARK  status: ('A' for Active; 'I' for Inactive)
REMARK    1  A    between atoms: C_18  and  N_5 
REMARK    2  A    between atoms: S_11  and  C_6 
REMARK    3  A    between atoms: C_10  and  C_12 
REMARK    4  A    between atoms: C_15  and  S_11 
REMARK    5  A    between atoms: C_12  and  C_15 
REMARK    6  A    between atoms: C_21  and  C_18 
ROOT
ATOM      1  C   UNL d   1     -51.403  25.593  33.324  0.00  0.00     0.081 A 
ATOM      2  C   UNL d   1     -51.641  26.372  33.335  0.00  0.00     0.117 A 
ATOM      3  N   UNL d   1     -51.081  26.976  33.343  0.00  0.00    -0.215 NA
ATOM      4  C   UNL d   1     -50.562  25.428  33.320  0.00  0.00     0.268 A 
ATOM      5  N   UNL d   1     -50.034  26.042  33.328  0.00  0.00    -0.253 N 
ATOM      6  C   UNL d   1     -50.280  26.775  33.338  0.00  0.00     0.182 A 
ATOM      7  S   UNL d   1     -52.454  26.355  33.336  0.00  0.00    -0.068 SA
ATOM      8  C   UNL d   1     -52.043  25.135  33.318  0.00  0.00     0.013 A 
ATOM      9  C   UNL d   1     -52.726  25.631  33.326  0.00  0.00     0.031 A 
ATOM     10  O   UNL d   1     -50.296  24.609  33.308  0.00  0.00    -0.267 OA
ATOM     11  C   UNL d   1     -52.012  24.290  33.306  0.00  0.00     0.001 C 
ATOM     12  C   UNL d   1     -53.533  25.382  33.324  0.00  0.00     0.007 C 
ENDROOT
BRANCH   6  13
ATOM     13  S   UNL d   1     -49.725  27.399  33.346  0.00  0.00    -0.046 SA
BRANCH  13  14
ATOM     14  C   UNL d   1     -49.514  27.770  34.073  0.00  0.00     0.081 C 
BRANCH  14  15
ATOM     15  C   UNL d   1     -49.221  28.532  34.093  0.00  0.00     0.208 C 
ATOM     16  O   UNL d   1     -49.496  29.109  33.557  0.00  0.00    -0.285 OA
BRANCH  15  17
ATOM     17  C   UNL d   1     -48.673  28.747  34.613  0.00  0.00     0.069 A 
ATOM     18  S   UNL d   1     -48.097  29.348  34.447  0.00  0.00    -0.083 SA
ATOM     19  C   UNL d   1     -47.616  29.428  35.111  0.00  0.00     0.035 A 
ATOM     20  C   UNL d   1     -47.856  28.909  35.695  0.00  0.00     0.008 A 
ATOM     21  C   UNL d   1     -48.478  28.497  35.423  0.00  0.00     0.010 A 
ENDBRANCH  15  17
ENDBRANCH  14  15
ENDBRANCH  13  14
ENDBRANCH   6  13
BRANCH   5  22
ATOM     22  C   UNL d   1     -49.232  25.909  33.324  0.00  0.00     0.085 C 
BRANCH  22  23
ATOM     23  C   UNL d   1     -48.927  25.143  33.310  0.00  0.00     0.019 C 
ATOM     24  C   UNL d   1     -48.318  24.901  33.818  0.00  0.00     0.002 C 
ENDBRANCH  22  23
ENDBRANCH   5  22
TORSDOF 6
ENDMDL
MODEL 2
REMARK VINA RESULT:      61.2      1.324      2.048
REMARK  6 active torsions:
REMARK  status: ('A' for Active; 'I' for Inactive)
REMARK    1  A    between atoms: C_18  and  N_5 
REMARK    2  A    between atoms: S_11  and  C_6 
REMARK    3  A    between atoms: C_10  and  C_12 
REMARK    4  A    between atoms: C_15  and  S_11 
REMARK    5  A    between atoms: C_12  and  C_15 
REMARK    6  A    between atoms: C_21  and  C_18 
ROOT
ATOM      1  C   UNL d   1     -51.544  25.307  33.595  0.00  0.00     0.081 A 
ATOM      2  C   UNL d   1     -50.753  25.121  33.536  0.00  0.00     0.117 A 
ATOM      3  N   UNL d   1     -50.183  25.713  33.594  0.00  0.00    -0.215 NA
ATOM      4  C   UNL d   1     -51.757  26.128  33.717  0.00  0.00     0.268 A 
ATOM      5  N   UNL d   1     -51.176  26.689  33.770  0.00  0.00    -0.253 N 
ATOM      6  C   UNL d   1     -50.431  26.492  33.712  0.00  0.00     0.182 A 
ATOM      7  S   UNL d   1     -50.723  24.317  33.423  0.00  0.00    -0.068 SA
ATOM      8  C   UNL d   1     -51.964  24.646  33.521  0.00  0.00     0.013 A 
ATOM      9  C   UNL d   1     -51.430  24.002  33.410  0.00  0.00     0.031 A 
ATOM     10  O   UNL d   1     -52.590  26.340  33.781  0.00  0.00    -0.267 OA
ATOM     11  C   UNL d   1     -52.808  24.623  33.553  0.00  0.00     0.001 C 
ATOM     12  C   UNL d   1     -51.631  23.188  33.306  0.00  0.00     0.007 C 
ENDROOT
BRANCH   6  13
ATOM     13  S   UNL d   1     -49.840  27.081  33.768  0.00  0.00    -0.046 SA
BRANCH  13  14
ATOM     14  C   UNL d   1     -49.315  27.094  34.428  0.00  0.00     0.081 C 
BRANCH  14  15
ATOM     15  C   UNL d   1     -48.578  27.441  34.379  0.00  0.00     0.208 C 
ATOM     16  O   UNL d   1     -47.983  27.113  33.895  0.00  0.00    -0.285 OA
BRANCH  15  17
ATOM     17  C   UNL d   1     -48.403  28.092  34.782  0.00  0.00     0.069 A 
ATOM     18  S   UNL d   1     -47.605  28.349  34.909  0.00  0.00    -0.083 SA
ATOM     19  C   UNL d   1     -47.630  29.045  35.350  0.00  0.00     0.035 A 
ATOM     20  C   UNL d   1     -48.405  29.245  35.512  0.00  0.00     0.008 A 
ATOM     21  C   UNL d   1     -48.879  28.697  35.188  0.00  0.00     0.010 A 
ENDBRANCH  15  17
ENDBRANCH  14  15
ENDBRANCH  13  14
ENDBRANCH   6  13
BRANCH   5  22
ATOM     22  C   UNL d   1     -51.355  27.474  33.886  0.00  0.00     0.085 C 
BRANCH  22  23
ATOM     23  C   UNL d   1     -51.744  27.913  33.306  0.00  0.00     0.019 C 
ATOM     24  C   UNL d   1     -51.805  28.738  33.344  0.00  0.00     0.002 C 
ENDBRANCH  22  23
ENDBRANCH   5  22
TORSDOF 6
ENDMDL
