MODEL 1
REMARK VINA RESULT:      -7.9      0.000      0.000
REMARK  7 active torsions:
REMARK  status: ('A' for Active; 'I' for Inactive)
REMARK    1  A    between atoms: N_4  and  C_2 
REMARK    2  A    between atoms: S_9  and  C_3 
REMARK    3  A    between atoms: C_8  and  C_13 
REMARK    4  A    between atoms: O_11  and  C_8 
REMARK    5  A    between atoms: C_13  and  S_9 
REMARK    6  A    between atoms: C_14  and  O_11 
REMARK    7  A    between atoms: C_17  and  C_14 
ROOT
ATOM      1  N   UNL d   1      52.968  33.441  53.439  0.00  0.00    -0.203 NA
ATOM      2  C   UNL d   1      53.470  32.899  53.802  0.00  0.00     0.152 A 
ATOM      3  C   UNL d   1      52.395  33.179  52.901  0.00  0.00     0.196 A 
ATOM      4  C   UNL d   1      53.402  32.097  53.632  0.00  0.00     0.057 A 
ATOM      5  N   UNL d   1      52.326  32.376  52.730  0.00  0.00    -0.221 NA
ATOM      6  C   UNL d   1      52.828  31.835  53.094  0.00  0.00     0.087 A 
ATOM      7  C   UNL d   1      52.760  31.028  52.923  0.00  0.00     0.021 C 
ENDROOT
BRANCH   3   8
ATOM      8  S   UNL d   1      51.889  33.728  52.535  0.00  0.00    -0.043 SA
BRANCH   8   9
ATOM      9  C   UNL d   1      51.142  33.873  52.853  0.00  0.00     0.107 C 
BRANCH   9  10
ATOM     10  C   UNL d   1      50.581  34.280  52.408  0.00  0.00     0.307 C 
ATOM     11  O   UNL d   1      50.609  34.266  51.587  0.00  0.00    -0.258 OA
BRANCH  10  12
ATOM     12  O   UNL d   1      49.984  34.708  52.792  0.00  0.00    -0.271 OA
BRANCH  12  13
ATOM     13  C   UNL d   1      49.230  34.752  52.463  0.00  0.00     0.126 C 
BRANCH  13  14
ATOM     14  C   UNL d   1      48.698  35.327  52.723  0.00  0.00     0.025 A 
ATOM     15  C   UNL d   1      48.129  35.624  52.194  0.00  0.00     0.002 A 
ATOM     16  C   UNL d   1      47.597  36.199  52.454  0.00  0.00     0.000 A 
ATOM     17  C   UNL d   1      47.638  36.473  53.241  0.00  0.00     0.000 A 
ATOM     18  C   UNL d   1      48.210  36.167  53.754  0.00  0.00     0.000 A 
ATOM     19  C   UNL d   1      48.736  35.598  53.496  0.00  0.00     0.002 A 
ENDBRANCH  13  14
ENDBRANCH  12  13
ENDBRANCH  10  12
ENDBRANCH   9  10
ENDBRANCH   8   9
ENDBRANCH   3   8
BRANCH   2  20
ATOM     20  N   UNL d   1      54.043  33.157  54.339  0.00  0.00    -0.285 N 
ATOM     21  C   UNL d   1      53.895  33.105  55.151  0.00  0.00     0.108 A 
ATOM     22  C   UNL d   1      54.463  33.360  55.687  0.00  0.00     0.142 A 
ATOM     23  O   UNL d   1      55.177  33.667  55.416  0.00  0.00    -0.300 OA
ATOM     24  C   UNL d   1      55.324  33.718  54.605  0.00  0.00     0.142 A 
ATOM     25  C   UNL d   1      54.755  33.462  54.066  0.00  0.00     0.108 A 
ENDBRANCH   2  20
TORSDOF 7
ENDMDL
MODEL 2
REMARK VINA RESULT:      -7.5      1.356      2.032
REMARK  7 active torsions:
REMARK  status: ('A' for Active; 'I' for Inactive)
REMARK    1  A    between atoms: N_4  and  C_2 
REMARK    2  A    between atoms: S_9  and  C_3 
REMARK    3  A    between atoms: C_8  and  C_13 
REMARK    4  A    between atoms: O_11  and  C_8 
REMARK    5  A    between atoms: C_13  and  S_9 
REMARK    6  A    between atoms: C_14  and  O_11 
REMARK    7  A    between atoms: C_17  and  C_14 
ROOT
ATOM      1  N   UNL d   1      51.971  33.161  52.916  0.00  0.00    -0.203 NA
ATOM      2  C   UNL d   1      52.667  32.986  53.319  0.00  0.00     0.152 A 
ATOM      3  C   UNL d   1      51.686  33.940  52.899  0.00  0.00     0.196 A 
ATOM      4  C   UNL d   1      53.080  33.584  53.704  0.00  0.00     0.057 A 
ATOM      5  N   UNL d   1      52.099  34.539  53.285  0.00  0.00    -0.221 NA
ATOM      6  C   UNL d   1      52.795  34.362  53.687  0.00  0.00     0.087 A 
ATOM      7  C   UNL d   1      53.212  34.963  54.076  0.00  0.00     0.021 C 
ENDROOT
BRANCH   3   8
ATOM      8  S   UNL d   1      50.983  34.113  52.492  0.00  0.00    -0.043 SA
BRANCH   8   9
ATOM      9  C   UNL d   1      50.346  34.446  52.898  0.00  0.00     0.107 C 
BRANCH   9  10
ATOM     10  C   UNL d   1      49.673  34.677  52.481  0.00  0.00     0.307 C 
ATOM     11  O   UNL d   1      49.575  34.462  51.694  0.00  0.00    -0.258 OA
BRANCH  10  12
ATOM     12  O   UNL d   1      49.090  35.128  52.861  0.00  0.00    -0.271 OA
BRANCH  12  13
ATOM     13  C   UNL d   1      48.553  35.567  52.416  0.00  0.00     0.126 C 
BRANCH  13  14
ATOM     14  C   UNL d   1      47.923  35.948  52.787  0.00  0.00     0.025 A 
ATOM     15  C   UNL d   1      47.179  35.964  52.415  0.00  0.00     0.002 A 
ATOM     16  C   UNL d   1      46.549  36.346  52.786  0.00  0.00     0.000 A 
ATOM     17  C   UNL d   1      46.666  36.709  53.527  0.00  0.00     0.000 A 
ATOM     18  C   UNL d   1      47.412  36.685  53.884  0.00  0.00     0.000 A 
ATOM     19  C   UNL d   1      48.036  36.307  53.516  0.00  0.00     0.002 A 
ENDBRANCH  13  14
ENDBRANCH  12  13
ENDBRANCH  10  12
ENDBRANCH   9  10
ENDBRANCH   8   9
ENDBRANCH   3   8
BRANCH   2  20
ATOM     20  N   UNL d   1      52.954  32.212  53.338  0.00  0.00    -0.285 N 
ATOM     21  C   UNL d   1      52.532  31.610  52.958  0.00  0.00     0.108 A 
ATOM     22  C   UNL d   1      52.814  30.839  52.975  0.00  0.00     0.142 A 
ATOM     23  O   UNL d   1      53.516  30.666  53.369  0.00  0.00    -0.300 OA
ATOM     24  C   UNL d   1      53.937  31.267  53.749  0.00  0.00     0.142 A 
ATOM     25  C   UNL d   1      53.654  32.041  53.732  0.00  0.00     0.108 A 
ENDBRANCH   2  20
TORSDOF 7
ENDMDL
MODEL 3
REMARK VINA RESULT:      -7.4      1.198      2.126
REMARK  7 active torsions:
REMARK  status: ('A' for Active; 'I' for Inactive)
REMARK    1  A    between atoms: N_4  and  C_2 
REMARK    2  A    between atoms: S_9  and  C_3 
REMARK    3  A    between atoms: C_8  and  C_13 
REMARK    4  A    between atoms: O_11  and  C_8 
REMARK    5  A    between atoms: C_13  and  S_9 
REMARK    6  A    between atoms: C_14  and  O_11 
REMARK    7  A    between atoms: C_17  and  C_14 
ROOT
ATOM      1  N   UNL d   1      52.658  32.587  53.184  0.00  0.00    -0.203 NA
ATOM      2  C   UNL d   1      53.165  32.114  53.628  0.00  0.00     0.152 A 
ATOM      3  C   UNL d   1      52.665  33.410  53.282  0.00  0.00     0.196 A 
ATOM      4  C   UNL d   1      53.679  32.460  54.169  0.00  0.00     0.057 A 
ATOM      5  N   UNL d   1      53.180  33.757  53.824  0.00  0.00    -0.221 NA
ATOM      6  C   UNL d   1      53.687  33.283  54.268  0.00  0.00     0.087 A 
ATOM      7  C   UNL d   1      54.204  33.629  54.813  0.00  0.00     0.021 C 
ENDROOT
BRANCH   3   8
ATOM      8  S   UNL d   1      52.152  33.885  52.833  0.00  0.00    -0.043 SA
BRANCH   8   9
ATOM      9  C   UNL d   1      51.366  33.973  53.065  0.00  0.00     0.107 C 
BRANCH   9  10
ATOM     10  C   UNL d   1      50.825  34.321  52.550  0.00  0.00     0.307 C 
ATOM     11  O   UNL d   1      50.940  34.287  51.737  0.00  0.00    -0.258 OA
BRANCH  10  12
ATOM     12  O   UNL d   1      50.158  34.708  52.855  0.00  0.00    -0.271 OA
BRANCH  12  13
ATOM     13  C   UNL d   1      49.436  34.661  52.461  0.00  0.00     0.126 C 
BRANCH  13  14
ATOM     14  C   UNL d   1      48.835  35.199  52.634  0.00  0.00     0.025 A 
ATOM     15  C   UNL d   1      48.284  35.399  52.043  0.00  0.00     0.002 A 
ATOM     16  C   UNL d   1      47.683  35.936  52.216  0.00  0.00     0.000 A 
ATOM     17  C   UNL d   1      47.635  36.270  52.979  0.00  0.00     0.000 A 
ATOM     18  C   UNL d   1      48.190  36.061  53.555  0.00  0.00     0.000 A 
ATOM     19  C   UNL d   1      48.786  35.528  53.383  0.00  0.00     0.002 A 
ENDBRANCH  13  14
ENDBRANCH  12  13
ENDBRANCH  10  12
ENDBRANCH   9  10
ENDBRANCH   8   9
ENDBRANCH   3   8
BRANCH   2  20
ATOM     20  N   UNL d   1      53.160  31.294  53.532  0.00  0.00    -0.285 N 
ATOM     21  C   UNL d   1      52.970  30.969  52.796  0.00  0.00     0.108 A 
ATOM     22  C   UNL d   1      52.964  30.154  52.697  0.00  0.00     0.142 A 
ATOM     23  O   UNL d   1      53.147  29.661  53.331  0.00  0.00    -0.300 OA
ATOM     24  C   UNL d   1      53.337  29.986  54.066  0.00  0.00     0.142 A 
ATOM     25  C   UNL d   1      53.343  30.805  54.166  0.00  0.00     0.108 A 
ENDBRANCH   2  20
TORSDOF 7
ENDMDL
MODEL 4
REMARK VINA RESULT:      -6.3      1.768      5.481
REMARK  7 active torsions:
REMARK  status: ('A' for Active; 'I' for Inactive)
REMARK    1  A    between atoms: N_4  and  C_2 
REMARK    2  A    between atoms: S_9  and  C_3 
REMARK    3  A    between atoms: C_8  and  C_13 
REMARK    4  A    between atoms: O_11  and  C_8 
REMARK    5  A    between atoms: C_13  and  S_9 
REMARK    6  A    between atoms: C_14  and  O_11 
REMARK    7  A    between atoms: C_17  and  C_14 
ROOT
ATOM      1  N   UNL d   1      52.646  34.040  53.307  0.00  0.00    -0.203 NA
ATOM      2  C   UNL d   1      52.032  34.587  53.347  0.00  0.00     0.152 A 
ATOM      3  C   UNL d   1      53.332  34.152  53.759  0.00  0.00     0.196 A 
ATOM      4  C   UNL d   1      52.100  35.245  53.836  0.00  0.00     0.057 A 
ATOM      5  N   UNL d   1      53.400  34.811  54.249  0.00  0.00    -0.221 NA
ATOM      6  C   UNL d   1      52.785  35.357  54.289  0.00  0.00     0.087 A 
ATOM      7  C   UNL d   1      52.852  36.019  54.780  0.00  0.00     0.021 C 
ENDROOT
BRANCH   3   8
ATOM      8  S   UNL d   1      53.950  33.598  53.716  0.00  0.00    -0.043 SA
BRANCH   8   9
ATOM      9  C   UNL d   1      53.912  32.906  54.163  0.00  0.00     0.107 C 
BRANCH   9  10
ATOM     10  C   UNL d   1      54.281  32.222  53.889  0.00  0.00     0.307 C 
ATOM     11  O   UNL d   1      54.968  32.270  53.441  0.00  0.00    -0.258 OA
BRANCH  10  12
ATOM     12  O   UNL d   1      53.956  31.481  54.066  0.00  0.00    -0.271 OA
BRANCH  12  13
ATOM     13  C   UNL d   1      53.959  30.882  53.500  0.00  0.00     0.126 C 
BRANCH  13  14
ATOM     14  C   UNL d   1      53.495  30.209  53.607  0.00  0.00     0.025 A 
ATOM     15  C   UNL d   1      53.682  29.677  54.219  0.00  0.00     0.002 A 
ATOM     16  C   UNL d   1      53.218  29.004  54.326  0.00  0.00     0.000 A 
ATOM     17  C   UNL d   1      52.569  28.866  53.821  0.00  0.00     0.000 A 
ATOM     18  C   UNL d   1      52.395  29.404  53.218  0.00  0.00     0.000 A 
ATOM     19  C   UNL d   1      52.855  30.071  53.112  0.00  0.00     0.002 A 
ENDBRANCH  13  14
ENDBRANCH  12  13
ENDBRANCH  10  12
ENDBRANCH   9  10
ENDBRANCH   8   9
ENDBRANCH   3   8
BRANCH   2  20
ATOM     20  N   UNL d   1      51.347  34.478  52.898  0.00  0.00    -0.285 N 
ATOM     21  C   UNL d   1      51.409  34.353  52.083  0.00  0.00     0.108 A 
ATOM     22  C   UNL d   1      50.731  34.245  51.633  0.00  0.00     0.142 A 
ATOM     23  O   UNL d   1      49.990  34.261  51.993  0.00  0.00    -0.300 OA
ATOM     24  C   UNL d   1      49.929  34.386  52.807  0.00  0.00     0.142 A 
ATOM     25  C   UNL d   1      50.611  34.495  53.259  0.00  0.00     0.108 A 
ENDBRANCH   2  20
TORSDOF 7
ENDMDL
MODEL 5
REMARK VINA RESULT:      -5.9      1.393      1.774
REMARK  7 active torsions:
REMARK  status: ('A' for Active; 'I' for Inactive)
REMARK    1  A    between atoms: N_4  and  C_2 
REMARK    2  A    between atoms: S_9  and  C_3 
REMARK    3  A    between atoms: C_8  and  C_13 
REMARK    4  A    between atoms: O_11  and  C_8 
REMARK    5  A    between atoms: C_13  and  S_9 
REMARK    6  A    between atoms: C_14  and  O_11 
REMARK    7  A    between atoms: C_17  and  C_14 
ROOT
ATOM      1  N   UNL d   1      51.662  34.393  53.029  0.00  0.00    -0.203 NA
ATOM      2  C   UNL d   1      52.262  34.064  53.487  0.00  0.00     0.152 A 
ATOM      3  C   UNL d   1      51.222  33.913  52.515  0.00  0.00     0.196 A 
ATOM      4  C   UNL d   1      52.425  33.260  53.434  0.00  0.00     0.057 A 
ATOM      5  N   UNL d   1      51.385  33.108  52.461  0.00  0.00    -0.221 NA
ATOM      6  C   UNL d   1      51.986  32.780  52.919  0.00  0.00     0.087 A 
ATOM      7  C   UNL d   1      52.151  31.971  52.867  0.00  0.00     0.021 C 
ENDROOT
BRANCH   3   8
ATOM      8  S   UNL d   1      50.617  34.248  52.054  0.00  0.00    -0.043 SA
BRANCH   8   9
ATOM      9  C   UNL d   1      49.892  34.432  52.401  0.00  0.00     0.107 C 
BRANCH   9  10
ATOM     10  C   UNL d   1      49.273  34.707  51.931  0.00  0.00     0.307 C 
ATOM     11  O   UNL d   1      49.263  34.556  51.124  0.00  0.00    -0.258 OA
BRANCH  10  12
ATOM     12  O   UNL d   1      48.657  35.141  52.277  0.00  0.00    -0.271 OA
BRANCH  12  13
ATOM     13  C   UNL d   1      48.000  35.355  51.828  0.00  0.00     0.126 C 
BRANCH  13  14
ATOM     14  C   UNL d   1      47.392  35.796  52.169  0.00  0.00     0.025 A 
ATOM     15  C   UNL d   1      47.554  36.268  52.835  0.00  0.00     0.002 A 
ATOM     16  C   UNL d   1      46.946  36.709  53.176  0.00  0.00     0.000 A 
ATOM     17  C   UNL d   1      46.180  36.677  52.848  0.00  0.00     0.000 A 
ATOM     18  C   UNL d   1      46.035  36.204  52.186  0.00  0.00     0.000 A 
ATOM     19  C   UNL d   1      46.637  35.766  51.848  0.00  0.00     0.002 A 
ENDBRANCH  13  14
ENDBRANCH  12  13
ENDBRANCH  10  12
ENDBRANCH   9  10
ENDBRANCH   8   9
ENDBRANCH   3   8
BRANCH   2  20
ATOM     20  N   UNL d   1      52.702  34.539  54.001  0.00  0.00    -0.285 N 
ATOM     21  C   UNL d   1      52.813  34.299  54.784  0.00  0.00     0.108 A 
ATOM     22  C   UNL d   1      53.249  34.768  55.298  0.00  0.00     0.142 A 
ATOM     23  O   UNL d   1      53.576  35.475  55.032  0.00  0.00    -0.300 OA
ATOM     24  C   UNL d   1      53.465  35.715  54.249  0.00  0.00     0.142 A 
ATOM     25  C   UNL d   1      53.026  35.243  53.733  0.00  0.00     0.108 A 
ENDBRANCH   2  20
TORSDOF 7
ENDMDL
MODEL 6
REMARK VINA RESULT:      -5.6      2.316      5.187
REMARK  7 active torsions:
REMARK  status: ('A' for Active; 'I' for Inactive)
REMARK    1  A    between atoms: N_4  and  C_2 
REMARK    2  A    between atoms: S_9  and  C_3 
REMARK    3  A    between atoms: C_8  and  C_13 
REMARK    4  A    between atoms: O_11  and  C_8 
REMARK    5  A    between atoms: C_13  and  S_9 
REMARK    6  A    between atoms: C_14  and  O_11 
REMARK    7  A    between atoms: C_17  and  C_14 
ROOT
ATOM      1  N   UNL d   1      52.573  33.430  53.383  0.00  0.00    -0.203 NA
ATOM      2  C   UNL d   1      52.290  34.152  53.660  0.00  0.00     0.152 A 
ATOM      3  C   UNL d   1      52.121  32.984  52.850  0.00  0.00     0.196 A 
ATOM      4  C   UNL d   1      51.559  34.431  53.406  0.00  0.00     0.057 A 
ATOM      5  N   UNL d   1      51.389  33.263  52.596  0.00  0.00    -0.221 NA
ATOM      6  C   UNL d   1      51.107  33.985  52.873  0.00  0.00     0.087 A 
ATOM      7  C   UNL d   1      50.372  34.267  52.619  0.00  0.00     0.021 C 
ENDROOT
BRANCH   3   8
ATOM      8  S   UNL d   1      52.409  32.255  52.573  0.00  0.00    -0.043 SA
BRANCH   8   9
ATOM      9  C   UNL d   1      52.211  31.559  52.968  0.00  0.00     0.107 C 
BRANCH   9  10
ATOM     10  C   UNL d   1      52.630  30.867  52.811  0.00  0.00     0.307 C 
ATOM     11  O   UNL d   1      53.030  30.774  52.100  0.00  0.00    -0.258 OA
BRANCH  10  12
ATOM     12  O   UNL d   1      52.648  30.261  53.376  0.00  0.00    -0.271 OA
BRANCH  12  13
ATOM     13  C   UNL d   1      53.369  29.994  53.673  0.00  0.00     0.126 C 
BRANCH  13  14
ATOM     14  C   UNL d   1      53.385  29.434  54.279  0.00  0.00     0.025 A 
ATOM     15  C   UNL d   1      53.236  29.676  55.061  0.00  0.00     0.002 A 
ATOM     16  C   UNL d   1      53.252  29.117  55.668  0.00  0.00     0.000 A 
ATOM     17  C   UNL d   1      53.416  28.320  55.488  0.00  0.00     0.000 A 
ATOM     18  C   UNL d   1      53.562  28.095  54.706  0.00  0.00     0.000 A 
ATOM     19  C   UNL d   1      53.546  28.649  54.106  0.00  0.00     0.002 A 
ENDBRANCH  13  14
ENDBRANCH  12  13
ENDBRANCH  10  12
ENDBRANCH   9  10
ENDBRANCH   8   9
ENDBRANCH   3   8
BRANCH   2  20
ATOM     20  N   UNL d   1      52.738  34.599  54.191  0.00  0.00    -0.285 N 
ATOM     21  C   UNL d   1      53.104  34.225  54.832  0.00  0.00     0.108 A 
ATOM     22  C   UNL d   1      53.550  34.666  55.362  0.00  0.00     0.142 A 
ATOM     23  O   UNL d   1      53.632  35.479  55.256  0.00  0.00    -0.300 OA
ATOM     24  C   UNL d   1      53.266  35.851  54.615  0.00  0.00     0.142 A 
ATOM     25  C   UNL d   1      52.818  35.408  54.083  0.00  0.00     0.108 A 
ENDBRANCH   2  20
TORSDOF 7
ENDMDL
