MODEL 1
REMARK VINA RESULT:      52.6      0.000      0.000
REMARK  5 active torsions:
REMARK  status: ('A' for Active; 'I' for Inactive)
REMARK    1  A    between atoms: C_4  and  S_1 
REMARK    2  A    between atoms: N_5  and  S_1 
REMARK    3  A    between atoms: C_2  and  C_9 
REMARK       I    between atoms: N_3  and  C_2 
REMARK    4  A    between atoms: C_8  and  N_3 
REMARK    5  A    between atoms: O_16  and  C_11 
ROOT
ATOM      1  C   UNL d   1      13.576  13.735  -4.272  0.00  0.00     0.104 A 
ATOM      2  C   UNL d   1      14.150  14.938  -3.253  0.00  0.00     0.058 A 
ATOM      3  C   UNL d   1      13.783  13.576  -3.521  0.00  0.00     0.013 A 
ATOM      4  C   UNL d   1      13.651  14.500  -4.529  0.00  0.00     0.013 A 
ATOM      5  C   UNL d   1      13.929  15.113  -4.054  0.00  0.00     0.005 A 
ATOM      6  C   UNL d   1      14.067  14.169  -3.015  0.00  0.00     0.005 A 
ENDROOT
BRANCH   2   7
ATOM      7  C   UNL d   1      14.440  15.545  -2.735  0.00  0.00     0.279 C 
ATOM      8  N   UNL d   1      14.745  15.389  -2.032  0.00  0.00    -0.206 NA
ATOM      9  O   UNL d   1      14.385  16.346  -3.021  0.00  0.00    -0.265 OA
BRANCH   8  10
ATOM     10  C   UNL d   1      15.020  15.999  -1.549  0.00  0.00     0.107 A 
ATOM     11  C   UNL d   1      15.349  15.819  -0.833  0.00  0.00     0.112 A 
ATOM     12  C   UNL d   1      15.624  16.430  -0.352  0.00  0.00     0.026 A 
ATOM     13  C   UNL d   1      15.569  17.219  -0.585  0.00  0.00     0.002 A 
ATOM     14  C   UNL d   1      15.227  17.394  -1.329  0.00  0.00     0.002 A 
ATOM     15  C   UNL d   1      14.953  16.780  -1.807  0.00  0.00     0.021 A 
BRANCH  11  16
ATOM     16  O   UNL d   1      15.388  15.098  -0.641  0.00  0.00    -0.327 OA
ATOM     17  C   UNL d   1      16.126  14.988  -0.015  0.00  0.00     0.181 C 
ENDBRANCH  11  16
ENDBRANCH   8  10
ENDBRANCH   2   7
BRANCH   1  18
ATOM     18  S   UNL d   1      13.265  13.151  -4.866  0.00  0.00     0.271 S 
ATOM     19  O   UNL d   1      13.574  13.561  -5.534  0.00  0.00    -0.200 OA
ATOM     20  O   UNL d   1      12.973  12.763  -4.223  0.00  0.00    -0.200 OA
BRANCH  18  21
ATOM     21  N   UNL d   1      12.931  12.536  -5.397  0.00  0.00    -0.226 N 
ATOM     22  C   UNL d   1      12.771  11.779  -5.108  0.00  0.00     0.111 C 
ATOM     23  C   UNL d   1      12.775  12.720  -6.198  0.00  0.00     0.111 C 
ENDBRANCH  18  21
ENDBRANCH   1  18
TORSDOF 5
ENDMDL
MODEL 2
REMARK VINA RESULT:      54.8      2.510      3.711
REMARK  5 active torsions:
REMARK  status: ('A' for Active; 'I' for Inactive)
REMARK    1  A    between atoms: C_4  and  S_1 
REMARK    2  A    between atoms: N_5  and  S_1 
REMARK    3  A    between atoms: C_2  and  C_9 
REMARK       I    between atoms: N_3  and  C_2 
REMARK    4  A    between atoms: C_8  and  N_3 
REMARK    5  A    between atoms: O_16  and  C_11 
ROOT
ATOM      1  C   UNL d   1      14.867  13.713  -1.088  0.00  0.00     0.104 A 
ATOM      2  C   UNL d   1      14.896  15.165  -1.928  0.00  0.00     0.058 A 
ATOM      3  C   UNL d   1      15.210  14.360  -0.780  0.00  0.00     0.013 A 
ATOM      4  C   UNL d   1      14.530  13.777  -1.822  0.00  0.00     0.013 A 
ATOM      5  C   UNL d   1      14.527  14.476  -2.260  0.00  0.00     0.005 A 
ATOM      6  C   UNL d   1      15.226  15.080  -1.194  0.00  0.00     0.005 A 
ENDROOT
BRANCH   2   7
ATOM      7  C   UNL d   1      14.912  15.901  -2.351  0.00  0.00     0.279 C 
ATOM      8  N   UNL d   1      14.929  15.938  -3.132  0.00  0.00    -0.206 NA
ATOM      9  O   UNL d   1      14.909  16.610  -1.878  0.00  0.00    -0.265 OA
BRANCH   8  10
ATOM     10  C   UNL d   1      14.944  16.668  -3.516  0.00  0.00     0.107 A 
ATOM     11  C   UNL d   1      15.240  16.713  -4.267  0.00  0.00     0.112 A 
ATOM     12  C   UNL d   1      15.255  17.443  -4.651  0.00  0.00     0.026 A 
ATOM     13  C   UNL d   1      14.975  18.127  -4.284  0.00  0.00     0.002 A 
ATOM     14  C   UNL d   1      14.671  18.068  -3.507  0.00  0.00     0.002 A 
ATOM     15  C   UNL d   1      14.658  17.336  -3.127  0.00  0.00     0.021 A 
BRANCH  11  16
ATOM     16  O   UNL d   1      15.488  16.082  -4.581  0.00  0.00    -0.327 OA
ATOM     17  C   UNL d   1      15.953  16.311  -5.405  0.00  0.00     0.181 C 
ENDBRANCH  11  16
ENDBRANCH   8  10
ENDBRANCH   2   7
BRANCH   1  18
ATOM     18  S   UNL d   1      14.814  12.913  -0.702  0.00  0.00     0.271 S 
ATOM     19  O   UNL d   1      14.675  12.498  -1.422  0.00  0.00    -0.200 OA
ATOM     20  O   UNL d   1      14.946  13.316  -0.016  0.00  0.00    -0.200 OA
BRANCH  18  21
ATOM     21  N   UNL d   1      14.773  12.156  -0.257  0.00  0.00    -0.226 N 
ATOM     22  C   UNL d   1      14.041  11.818  -0.080  0.00  0.00     0.111 C 
ATOM     23  C   UNL d   1      15.479  11.779  -0.015  0.00  0.00     0.111 C 
ENDBRANCH  18  21
ENDBRANCH   1  18
TORSDOF 5
ENDMDL
