MODEL 1
REMARK VINA RESULT:      71.6      0.000      0.000
REMARK  5 active torsions:
REMARK  status: ('A' for Active; 'I' for Inactive)
REMARK    1  A    between atoms: N_6  and  C_1 
REMARK    2  A    between atoms: C_11  and  N_2 
REMARK    3  A    between atoms: S_3  and  C_10 
REMARK    4  A    between atoms: N_8  and  S_3 
REMARK       I    between atoms: C_9  and  N_6 
REMARK    5  A    between atoms: C_15  and  C_9 
ROOT
ATOM      1  N   UNL d   1     -50.512  25.710  33.949  0.00  0.00    -0.189 NA
ATOM      2  C   UNL d   1     -50.587  26.489  33.863  0.00  0.00     0.281 C 
ATOM      3  O   UNL d   1     -51.263  26.728  33.463  0.00  0.00    -0.265 OA
ENDROOT
BRANCH   2   4
ATOM      4  C   UNL d   1     -50.037  27.047  34.146  0.00  0.00     0.058 A 
ATOM      5  C   UNL d   1     -50.022  27.244  34.858  0.00  0.00     0.005 A 
ATOM      6  C   UNL d   1     -49.508  27.768  35.133  0.00  0.00     0.013 A 
ATOM      7  C   UNL d   1     -48.966  28.107  34.597  0.00  0.00     0.104 A 
ATOM      8  C   UNL d   1     -49.035  27.857  33.867  0.00  0.00     0.013 A 
ATOM      9  C   UNL d   1     -49.556  27.331  33.606  0.00  0.00     0.005 A 
BRANCH   7  10
ATOM     10  S   UNL d   1     -48.413  28.670  34.888  0.00  0.00     0.271 S 
ATOM     11  O   UNL d   1     -48.909  29.262  34.769  0.00  0.00    -0.200 OA
ATOM     12  O   UNL d   1     -47.857  28.034  35.025  0.00  0.00    -0.200 OA
BRANCH  10  13
ATOM     13  N   UNL d   1     -47.923  29.264  35.158  0.00  0.00    -0.229 N 
ATOM     14  C   UNL d   1     -47.261  29.138  35.608  0.00  0.00     0.092 A 
ATOM     15  C   UNL d   1     -46.932  29.910  35.755  0.00  0.00     0.021 A 
ATOM     16  C   UNL d   1     -47.378  30.447  35.410  0.00  0.00     0.021 A 
ATOM     17  C   UNL d   1     -48.002  30.075  35.031  0.00  0.00     0.092 A 
ENDBRANCH  10  13
ENDBRANCH   7  10
ENDBRANCH   2   4
BRANCH   1  18
ATOM     18  C   UNL d   1     -50.995  25.092  33.707  0.00  0.00     0.165 A 
ATOM     19  N   UNL d   1     -50.908  24.334  33.501  0.00  0.00    -0.238 N 
ATOM     20  N   UNL d   1     -51.539  23.947  33.306  0.00  0.00    -0.168 NA
ATOM     21  C   UNL d   1     -52.152  24.486  33.379  0.00  0.00     0.111 A 
ATOM     22  C   UNL d   1     -51.838  25.197  33.625  0.00  0.00     0.062 A 
ATOM     23  C   UNL d   1     -52.982  24.615  33.306  0.00  0.00     0.056 A 
ATOM     24  C   UNL d   1     -52.458  25.771  33.707  0.00  0.00     0.040 A 
ATOM     25  S   UNL d   1     -53.178  25.392  33.503  0.00  0.00    -0.084 SA
BRANCH  19  26
ATOM     26  C   UNL d   1     -50.179  23.925  33.480  0.00  0.00     0.088 C 
ATOM     27  C   UNL d   1     -50.569  23.189  33.637  0.00  0.00     0.025 C 
ATOM     28  C   UNL d   1     -49.772  24.670  33.320  0.00  0.00     0.025 C 
ATOM     29  C   UNL d   1     -49.401  23.527  33.452  0.00  0.00     0.025 C 
ENDBRANCH  19  26
ENDBRANCH   1  18
TORSDOF 5
ENDMDL
