MODEL 1
REMARK VINA RESULT:     -11.2      0.000      0.000
REMARK  2 active torsions:
REMARK  status: ('A' for Active; 'I' for Inactive)
REMARK    1  A    between atoms: C_4  and  C_1 
REMARK    2  A    between atoms: C_2  and  C_7 
ROOT
ATOM      1  C   UNL d   1      53.421  32.509  54.042  0.00  0.00     0.003 A 
ATOM      2  C   UNL d   1      54.299  33.430  54.688  0.00  0.00     0.071 A 
ATOM      3  C   UNL d   1      54.166  32.689  54.358  0.00  0.00     0.004 A 
ATOM      4  C   UNL d   1      52.818  33.063  54.055  0.00  0.00     0.000 A 
ATOM      5  C   UNL d   1      53.696  33.995  54.705  0.00  0.00     0.004 A 
ATOM      6  C   UNL d   1      52.949  33.807  54.385  0.00  0.00    -0.000 A 
ENDROOT
BRANCH   1   7
ATOM      7  C   UNL d   1      53.290  31.764  53.712  0.00  0.00     0.042 A 
ATOM      8  C   UNL d   1      53.434  31.082  54.158  0.00  0.00     0.045 A 
ATOM      9  C   UNL d   1      53.303  30.338  53.828  0.00  0.00     0.196 A 
ATOM     10  O   UNL d   1      53.446  29.656  54.273  0.00  0.00    -0.287 OA
ATOM     11  C   UNL d   1      53.029  30.274  53.052  0.00  0.00     0.045 A 
ATOM     12  C   UNL d   1      52.886  30.956  52.606  0.00  0.00     0.045 A 
ATOM     13  C   UNL d   1      53.016  31.700  52.936  0.00  0.00     0.196 A 
ATOM     14  O   UNL d   1      52.873  32.382  52.490  0.00  0.00    -0.287 OA
ENDBRANCH   1   7
BRANCH   2  15
ATOM     15  C   UNL d   1      55.039  33.615  55.005  0.00  0.00     0.419 C 
ATOM     16  F   UNL d   1      55.713  33.784  55.291  0.00  0.00    -0.166 F 
ATOM     17  F   UNL d   1      55.292  33.631  55.829  0.00  0.00    -0.166 F 
ATOM     18  F   UNL d   1      55.771  33.846  54.597  0.00  0.00    -0.166 F 
ENDBRANCH   2  15
TORSDOF 2
ENDMDL
MODEL 2
REMARK VINA RESULT:     -11.0      2.366      3.480
REMARK  2 active torsions:
REMARK  status: ('A' for Active; 'I' for Inactive)
REMARK    1  A    between atoms: C_4  and  C_1 
REMARK    2  A    between atoms: C_2  and  C_7 
ROOT
ATOM      1  C   UNL d   1      53.630  32.089  53.729  0.00  0.00     0.003 A 
ATOM      2  C   UNL d   1      53.285  30.712  53.574  0.00  0.00     0.071 A 
ATOM      3  C   UNL d   1      53.738  31.294  53.938  0.00  0.00     0.004 A 
ATOM      4  C   UNL d   1      53.076  32.298  53.163  0.00  0.00     0.000 A 
ATOM      5  C   UNL d   1      52.724  30.915  53.002  0.00  0.00     0.004 A 
ATOM      6  C   UNL d   1      52.620  31.717  52.797  0.00  0.00    -0.000 A 
ENDROOT
BRANCH   1   7
ATOM      7  C   UNL d   1      54.086  32.670  54.095  0.00  0.00     0.042 A 
ATOM      8  C   UNL d   1      53.824  33.021  54.797  0.00  0.00     0.045 A 
ATOM      9  C   UNL d   1      54.280  33.602  55.164  0.00  0.00     0.196 A 
ATOM     10  O   UNL d   1      54.019  33.952  55.866  0.00  0.00    -0.287 OA
ATOM     11  C   UNL d   1      54.998  33.834  54.829  0.00  0.00     0.045 A 
ATOM     12  C   UNL d   1      55.260  33.483  54.127  0.00  0.00     0.045 A 
ATOM     13  C   UNL d   1      54.804  32.902  53.761  0.00  0.00     0.196 A 
ATOM     14  O   UNL d   1      55.066  32.552  53.059  0.00  0.00    -0.287 OA
ENDBRANCH   1   7
BRANCH   2  15
ATOM     15  C   UNL d   1      53.389  29.919  53.779  0.00  0.00     0.419 C 
ATOM     16  F   UNL d   1      53.481  29.197  53.967  0.00  0.00    -0.166 F 
ATOM     17  F   UNL d   1      53.968  29.351  53.488  0.00  0.00    -0.166 F 
ATOM     18  F   UNL d   1      52.942  29.433  54.345  0.00  0.00    -0.166 F 
ENDBRANCH   2  15
TORSDOF 2
ENDMDL
MODEL 3
REMARK VINA RESULT:     -10.9      1.813      2.503
REMARK  2 active torsions:
REMARK  status: ('A' for Active; 'I' for Inactive)
REMARK    1  A    between atoms: C_4  and  C_1 
REMARK    2  A    between atoms: C_2  and  C_7 
ROOT
ATOM      1  C   UNL d   1      53.277  33.334  53.581  0.00  0.00     0.003 A 
ATOM      2  C   UNL d   1      54.346  33.166  54.512  0.00  0.00     0.071 A 
ATOM      3  C   UNL d   1      53.601  33.465  54.333  0.00  0.00     0.004 A 
ATOM      4  C   UNL d   1      53.692  32.909  53.017  0.00  0.00     0.000 A 
ATOM      5  C   UNL d   1      54.771  32.736  53.948  0.00  0.00     0.004 A 
ATOM      6  C   UNL d   1      54.439  32.608  53.194  0.00  0.00    -0.000 A 
ENDROOT
BRANCH   1   7
ATOM      7  C   UNL d   1      52.530  33.635  53.404  0.00  0.00     0.042 A 
ATOM      8  C   UNL d   1      51.861  33.154  53.475  0.00  0.00     0.045 A 
ATOM      9  C   UNL d   1      51.114  33.455  53.298  0.00  0.00     0.196 A 
ATOM     10  O   UNL d   1      50.446  32.973  53.369  0.00  0.00    -0.287 OA
ATOM     11  C   UNL d   1      51.035  34.238  53.050  0.00  0.00     0.045 A 
ATOM     12  C   UNL d   1      51.703  34.720  52.979  0.00  0.00     0.045 A 
ATOM     13  C   UNL d   1      52.450  34.418  53.156  0.00  0.00     0.196 A 
ATOM     14  O   UNL d   1      53.119  34.900  53.085  0.00  0.00    -0.287 OA
ENDBRANCH   1   7
BRANCH   2  15
ATOM     15  C   UNL d   1      54.675  33.293  55.259  0.00  0.00     0.419 C 
ATOM     16  F   UNL d   1      54.974  33.411  55.938  0.00  0.00    -0.166 F 
ATOM     17  F   UNL d   1      54.524  32.879  56.000  0.00  0.00    -0.166 F 
ATOM     18  F   UNL d   1      55.264  33.881  55.509  0.00  0.00    -0.166 F 
ENDBRANCH   2  15
TORSDOF 2
ENDMDL
MODEL 4
REMARK VINA RESULT:     -10.2      2.525      3.651
REMARK  2 active torsions:
REMARK  status: ('A' for Active; 'I' for Inactive)
REMARK    1  A    between atoms: C_4  and  C_1 
REMARK    2  A    between atoms: C_2  and  C_7 
ROOT
ATOM      1  C   UNL d   1      53.015  32.675  53.265  0.00  0.00     0.003 A 
ATOM      2  C   UNL d   1      53.254  31.267  53.241  0.00  0.00     0.071 A 
ATOM      3  C   UNL d   1      52.736  31.902  53.160  0.00  0.00     0.004 A 
ATOM      4  C   UNL d   1      53.801  32.812  53.449  0.00  0.00     0.000 A 
ATOM      5  C   UNL d   1      54.049  31.398  53.426  0.00  0.00     0.004 A 
ATOM      6  C   UNL d   1      54.323  32.178  53.531  0.00  0.00    -0.000 A 
ENDROOT
BRANCH   1   7
ATOM      7  C   UNL d   1      52.493  33.309  53.183  0.00  0.00     0.042 A 
ATOM      8  C   UNL d   1      52.124  33.450  52.456  0.00  0.00     0.045 A 
ATOM      9  C   UNL d   1      51.603  34.083  52.374  0.00  0.00     0.196 A 
ATOM     10  O   UNL d   1      51.234  34.225  51.648  0.00  0.00    -0.287 OA
ATOM     11  C   UNL d   1      51.450  34.576  53.018  0.00  0.00     0.045 A 
ATOM     12  C   UNL d   1      51.819  34.435  53.744  0.00  0.00     0.045 A 
ATOM     13  C   UNL d   1      52.340  33.801  53.826  0.00  0.00     0.196 A 
ATOM     14  O   UNL d   1      52.709  33.660  54.553  0.00  0.00    -0.287 OA
ENDBRANCH   1   7
BRANCH   2  15
ATOM     15  C   UNL d   1      52.981  30.495  53.137  0.00  0.00     0.419 C 
ATOM     16  F   UNL d   1      52.734  29.792  53.040  0.00  0.00    -0.166 F 
ATOM     17  F   UNL d   1      52.670  29.942  53.721  0.00  0.00    -0.166 F 
ATOM     18  F   UNL d   1      52.932  30.021  52.410  0.00  0.00    -0.166 F 
ENDBRANCH   2  15
TORSDOF 2
ENDMDL
MODEL 5
REMARK VINA RESULT:      -9.9      2.552      2.975
REMARK  2 active torsions:
REMARK  status: ('A' for Active; 'I' for Inactive)
REMARK    1  A    between atoms: C_4  and  C_1 
REMARK    2  A    between atoms: C_2  and  C_7 
ROOT
ATOM      1  C   UNL d   1      52.667  32.799  53.353  0.00  0.00     0.003 A 
ATOM      2  C   UNL d   1      51.893  33.843  52.761  0.00  0.00     0.071 A 
ATOM      3  C   UNL d   1      52.182  33.073  52.739  0.00  0.00     0.004 A 
ATOM      4  C   UNL d   1      52.859  33.288  53.982  0.00  0.00     0.000 A 
ATOM      5  C   UNL d   1      52.082  34.343  53.392  0.00  0.00     0.004 A 
ATOM      6  C   UNL d   1      52.570  34.061  54.007  0.00  0.00    -0.000 A 
ENDROOT
BRANCH   1   7
ATOM      7  C   UNL d   1      52.955  32.027  53.328  0.00  0.00     0.042 A 
ATOM      8  C   UNL d   1      52.430  31.389  53.298  0.00  0.00     0.045 A 
ATOM      9  C   UNL d   1      52.718  30.617  53.272  0.00  0.00     0.196 A 
ATOM     10  O   UNL d   1      52.193  29.979  53.242  0.00  0.00    -0.287 OA
ATOM     11  C   UNL d   1      53.532  30.482  53.278  0.00  0.00     0.045 A 
ATOM     12  C   UNL d   1      54.058  31.119  53.308  0.00  0.00     0.045 A 
ATOM     13  C   UNL d   1      53.769  31.892  53.333  0.00  0.00     0.196 A 
ATOM     14  O   UNL d   1      54.295  32.529  53.364  0.00  0.00    -0.287 OA
ENDBRANCH   1   7
BRANCH   2  15
ATOM     15  C   UNL d   1      51.410  34.121  52.152  0.00  0.00     0.419 C 
ATOM     16  F   UNL d   1      50.969  34.374  51.599  0.00  0.00    -0.166 F 
ATOM     17  F   UNL d   1      51.628  34.395  51.364  0.00  0.00    -0.166 F 
ATOM     18  F   UNL d   1      50.547  34.217  52.133  0.00  0.00    -0.166 F 
ENDBRANCH   2  15
TORSDOF 2
ENDMDL
MODEL 6
REMARK VINA RESULT:      -9.9      2.560      3.574
REMARK  2 active torsions:
REMARK  status: ('A' for Active; 'I' for Inactive)
REMARK    1  A    between atoms: C_4  and  C_1 
REMARK    2  A    between atoms: C_2  and  C_7 
ROOT
ATOM      1  C   UNL d   1      53.096  33.079  53.630  0.00  0.00     0.003 A 
ATOM      2  C   UNL d   1      51.996  33.488  52.817  0.00  0.00     0.071 A 
ATOM      3  C   UNL d   1      52.664  33.680  53.258  0.00  0.00     0.004 A 
ATOM      4  C   UNL d   1      52.865  32.296  53.561  0.00  0.00     0.000 A 
ATOM      5  C   UNL d   1      51.756  32.700  52.743  0.00  0.00     0.004 A 
ATOM      6  C   UNL d   1      52.196  32.101  53.120  0.00  0.00    -0.000 A 
ENDROOT
BRANCH   1   7
ATOM      7  C   UNL d   1      53.765  33.275  54.072  0.00  0.00     0.042 A 
ATOM      8  C   UNL d   1      53.685  33.688  54.783  0.00  0.00     0.045 A 
ATOM      9  C   UNL d   1      54.353  33.884  55.225  0.00  0.00     0.196 A 
ATOM     10  O   UNL d   1      54.273  34.297  55.937  0.00  0.00    -0.287 OA
ATOM     11  C   UNL d   1      55.102  33.666  54.956  0.00  0.00     0.045 A 
ATOM     12  C   UNL d   1      55.182  33.253  54.244  0.00  0.00     0.045 A 
ATOM     13  C   UNL d   1      54.514  33.057  53.802  0.00  0.00     0.196 A 
ATOM     14  O   UNL d   1      54.594  32.644  53.091  0.00  0.00    -0.287 OA
ENDBRANCH   1   7
BRANCH   2  15
ATOM     15  C   UNL d   1      51.561  34.083  52.444  0.00  0.00     0.419 C 
ATOM     16  F   UNL d   1      51.165  34.624  52.107  0.00  0.00    -0.166 F 
ATOM     17  F   UNL d   1      51.615  34.373  51.634  0.00  0.00    -0.166 F 
ATOM     18  F   UNL d   1      50.927  34.584  52.764  0.00  0.00    -0.166 F 
ENDBRANCH   2  15
TORSDOF 2
ENDMDL
