MODEL 1
REMARK VINA RESULT:      43.1      0.000      0.000
REMARK  3 active torsions:
REMARK  status: ('A' for Active; 'I' for Inactive)
REMARK    1  A    between atoms: C_8  and  C_1 
REMARK    2  A    between atoms: O_12  and  C_8 
REMARK    3  A    between atoms: C_21  and  O_12 
ROOT
ATOM      1  C   UNL d   1      14.020  12.657  -2.513  0.00  0.00     0.084 A 
ATOM      2  C   UNL d   1      14.162  13.458  -2.522  0.00  0.00     0.065 A 
ATOM      3  C   UNL d   1      13.824  13.784  -3.251  0.00  0.00     0.107 A 
ATOM      4  N   UNL d   1      13.482  13.190  -3.678  0.00  0.00    -0.302 N 
ATOM      5  C   UNL d   1      13.604  12.491  -3.218  0.00  0.00     0.070 A 
ATOM      6  C   UNL d   1      14.548  13.937  -1.977  0.00  0.00     0.197 A 
ATOM      7  C   UNL d   1      13.874  14.588  -3.429  0.00  0.00     0.212 A 
ATOM      8  C   UNL d   1      14.597  14.730  -2.154  0.00  0.00     0.042 A 
ATOM      9  C   UNL d   1      14.259  15.056  -2.882  0.00  0.00     0.043 A 
ATOM     10  C   UNL d   1      13.070  13.188  -4.430  0.00  0.00     0.080 A 
ATOM     11  C   UNL d   1      13.313  11.792  -3.515  0.00  0.00     0.018 A 
ATOM     12  O   UNL d   1      14.880  13.616  -1.261  0.00  0.00    -0.286 OA
ATOM     13  O   UNL d   1      13.544  14.913  -4.143  0.00  0.00    -0.285 OA
ATOM     14  C   UNL d   1      12.783  12.493  -4.722  0.00  0.00     0.019 A 
ATOM     15  C   UNL d   1      12.906  11.788  -4.259  0.00  0.00     0.003 A 
ATOM     16  C   UNL d   1      14.985  15.207  -1.604  0.00  0.00     0.003 A 
ATOM     17  C   UNL d   1      14.314  15.856  -3.052  0.00  0.00     0.003 A 
ATOM     18  C   UNL d   1      15.034  16.006  -1.784  0.00  0.00     0.000 A 
ATOM     19  C   UNL d   1      14.700  16.329  -2.504  0.00  0.00     0.000 A 
ENDROOT
BRANCH   1  20
ATOM     20  C   UNL d   1      14.258  12.118  -1.894  0.00  0.00     0.302 C 
ATOM     21  O   UNL d   1      15.040  11.927  -1.814  0.00  0.00    -0.259 OA
BRANCH  20  22
ATOM     22  O   UNL d   1      13.714  11.779  -1.366  0.00  0.00    -0.273 OA
BRANCH  22  23
ATOM     23  C   UNL d   1      13.805  11.842  -0.511  0.00  0.00     0.103 C 
ATOM     24  C   UNL d   1      14.585  11.787  -0.163  0.00  0.00     0.027 C 
ATOM     25  C   UNL d   1      13.122  11.959  -0.014  0.00  0.00     0.027 C 
ENDBRANCH  22  23
ENDBRANCH  20  22
ENDBRANCH   1  20
TORSDOF 3
ENDMDL
