MODEL 1
REMARK VINA RESULT:      11.7      0.000      0.000
REMARK  2 active torsions:
REMARK  status: ('A' for Active; 'I' for Inactive)
REMARK    1  A    between atoms: C_6  and  C_4 
REMARK    2  A    between atoms: C_7  and  C_5 
ROOT
ATOM      1  O   UNL d   1      45.973 -17.038  43.627  0.00  0.00    -0.268 OA
ATOM      2  N   UNL d   1      46.057 -17.198  44.955  0.00  0.00    -0.121 NA
ATOM      3  N   UNL d   1      46.244 -17.925  44.600  0.00  0.00    -0.121 NA
ATOM      4  C   UNL d   1      46.191 -17.823  43.782  0.00  0.00     0.204 A 
ATOM      5  C   UNL d   1      45.893 -16.662  44.361  0.00  0.00     0.204 A 
ENDROOT
BRANCH   4   6
ATOM      6  C   UNL d   1      46.331 -18.405  43.206  0.00  0.00     0.046 A 
ATOM      7  C   UNL d   1      46.297 -19.202  43.404  0.00  0.00     0.024 A 
ATOM      8  C   UNL d   1      46.436 -19.770  42.836  0.00  0.00     0.099 A 
ATOM      9  N   UNL d   1      46.610 -19.547  42.062  0.00  0.00    -0.242 NA
ATOM     10  C   UNL d   1      46.647 -18.755  41.854  0.00  0.00     0.099 A 
ATOM     11  C   UNL d   1      46.506 -18.182  42.432  0.00  0.00     0.024 A 
ENDBRANCH   4   6
BRANCH   5  12
ATOM     12  C   UNL d   1      45.680 -15.864  44.467  0.00  0.00     0.043 A 
ATOM     13  C   UNL d   1      44.979 -15.672  44.852  0.00  0.00     0.004 A 
ATOM     14  C   UNL d   1      44.770 -14.886  44.955  0.00  0.00     0.000 A 
ATOM     15  C   UNL d   1      45.265 -14.290  44.671  0.00  0.00     0.000 A 
ATOM     16  C   UNL d   1      45.967 -14.481  44.286  0.00  0.00     0.000 A 
ATOM     17  C   UNL d   1      46.176 -15.273  44.183  0.00  0.00     0.004 A 
ENDBRANCH   5  12
TORSDOF 2
ENDMDL
