MODEL 1
REMARK VINA RESULT:      -3.0      0.000      0.000
REMARK  3 active torsions:
REMARK  status: ('A' for Active; 'I' for Inactive)
REMARK    1  A    between atoms: C_6  and  N_1 
REMARK    2  A    between atoms: C_8  and  C_6 
REMARK    3  A    between atoms: O_15  and  C_9 
ROOT
ATOM      1  N   UNL d   1      32.017  17.422 -24.202  0.00  0.00    -0.268 N 
ATOM      2  C   UNL d   1      31.477  17.808 -24.694  0.00  0.00     0.296 A 
ATOM      3  S   UNL d   1      30.778  17.352 -24.711  0.00  0.00    -0.025 SA
ATOM      4  C   UNL d   1      31.654  16.732 -23.916  0.00  0.00     0.073 A 
ATOM      5  C   UNL d   1      30.900  16.690 -24.226  0.00  0.00     0.050 A 
ATOM      6  O   UNL d   1      31.612  18.514 -25.092  0.00  0.00    -0.259 OA
ATOM      7  C   UNL d   1      31.926  16.141 -23.410  0.00  0.00     0.018 A 
ATOM      8  C   UNL d   1      30.400  16.055 -24.038  0.00  0.00     0.008 A 
ATOM      9  C   UNL d   1      31.435  15.505 -23.217  0.00  0.00     0.002 A 
ATOM     10  C   UNL d   1      30.667  15.462 -23.533  0.00  0.00     0.001 A 
ENDROOT
BRANCH   1  11
ATOM     11  C   UNL d   1      32.781  17.674 -24.023  0.00  0.00     0.084 C 
BRANCH  11  12
ATOM     12  C   UNL d   1      32.897  18.319 -23.526  0.00  0.00     0.018 A 
ATOM     13  C   UNL d   1      33.035  18.192 -22.722  0.00  0.00     0.004 A 
ATOM     14  C   UNL d   1      33.151  18.833 -22.222  0.00  0.00     0.024 A 
ATOM     15  C   UNL d   1      33.130  19.605 -22.519  0.00  0.00     0.094 A 
ATOM     16  C   UNL d   1      32.990  19.726 -23.330  0.00  0.00     0.024 A 
ATOM     17  C   UNL d   1      32.874  19.082 -23.827  0.00  0.00     0.004 A 
BRANCH  15  18
ATOM     18  O   UNL d   1      33.241  20.270 -22.051  0.00  0.00    -0.328 OA
ATOM     19  C   UNL d   1      32.791  20.375 -21.372  0.00  0.00     0.181 C 
ENDBRANCH  15  18
ENDBRANCH  11  12
ENDBRANCH   1  11
TORSDOF 3
ENDMDL
MODEL 2
REMARK VINA RESULT:      -2.8      1.859      3.836
REMARK  3 active torsions:
REMARK  status: ('A' for Active; 'I' for Inactive)
REMARK    1  A    between atoms: C_6  and  N_1 
REMARK    2  A    between atoms: C_8  and  C_6 
REMARK    3  A    between atoms: O_15  and  C_9 
ROOT
ATOM      1  N   UNL d   1      31.291  16.825 -24.478  0.00  0.00    -0.268 N 
ATOM      2  C   UNL d   1      31.369  17.643 -24.566  0.00  0.00     0.296 A 
ATOM      3  S   UNL d   1      32.045  17.880 -24.136  0.00  0.00    -0.025 SA
ATOM      4  C   UNL d   1      31.913  16.559 -23.998  0.00  0.00     0.073 A 
ATOM      5  C   UNL d   1      32.371  17.201 -23.789  0.00  0.00     0.050 A 
ATOM      6  O   UNL d   1      30.870  18.129 -24.999  0.00  0.00    -0.259 OA
ATOM      7  C   UNL d   1      32.111  15.805 -23.728  0.00  0.00     0.018 A 
ATOM      8  C   UNL d   1      33.039  17.105 -23.306  0.00  0.00     0.008 A 
ATOM      9  C   UNL d   1      32.774  15.700 -23.247  0.00  0.00     0.002 A 
ATOM     10  C   UNL d   1      33.241  16.354 -23.035  0.00  0.00     0.001 A 
ENDROOT
BRANCH   1  11
ATOM     11  C   UNL d   1      30.700  16.354 -24.809  0.00  0.00     0.084 C 
BRANCH  11  12
ATOM     12  C   UNL d   1      29.963  16.305 -24.449  0.00  0.00     0.018 A 
ATOM     13  C   UNL d   1      29.784  15.654 -23.975  0.00  0.00     0.004 A 
ATOM     14  C   UNL d   1      29.049  15.601 -23.613  0.00  0.00     0.024 A 
ATOM     15  C   UNL d   1      28.485  16.197 -23.722  0.00  0.00     0.094 A 
ATOM     16  C   UNL d   1      28.671  16.851 -24.201  0.00  0.00     0.024 A 
ATOM     17  C   UNL d   1      29.409  16.900 -24.561  0.00  0.00     0.004 A 
BRANCH  15  18
ATOM     18  O   UNL d   1      27.741  16.180 -23.378  0.00  0.00    -0.328 OA
ATOM     19  C   UNL d   1      27.286  15.497 -23.415  0.00  0.00     0.181 C 
ENDBRANCH  15  18
ENDBRANCH  11  12
ENDBRANCH   1  11
TORSDOF 3
ENDMDL
MODEL 3
REMARK VINA RESULT:      -2.8      1.505      3.712
REMARK  3 active torsions:
REMARK  status: ('A' for Active; 'I' for Inactive)
REMARK    1  A    between atoms: C_6  and  N_1 
REMARK    2  A    between atoms: C_8  and  C_6 
REMARK    3  A    between atoms: O_15  and  C_9 
ROOT
ATOM      1  N   UNL d   1      33.240  18.974 -23.710  0.00  0.00    -0.268 N 
ATOM      2  C   UNL d   1      33.240  19.568 -24.285  0.00  0.00     0.296 A 
ATOM      3  S   UNL d   1      33.240  20.303 -23.889  0.00  0.00    -0.025 SA
ATOM      4  C   UNL d   1      33.240  19.339 -22.965  0.00  0.00     0.073 A 
ATOM      5  C   UNL d   1      33.240  20.148 -23.074  0.00  0.00     0.050 A 
ATOM      6  O   UNL d   1      33.240  19.449 -25.097  0.00  0.00    -0.259 OA
ATOM      7  C   UNL d   1      33.240  19.025 -22.202  0.00  0.00     0.018 A 
ATOM      8  C   UNL d   1      33.241  20.662 -22.423  0.00  0.00     0.008 A 
ATOM      9  C   UNL d   1      33.240  19.530 -21.549  0.00  0.00     0.002 A 
ATOM     10  C   UNL d   1      33.241  20.353 -21.660  0.00  0.00     0.001 A 
ENDROOT
BRANCH   1  11
ATOM     11  C   UNL d   1      33.239  18.161 -23.850  0.00  0.00     0.084 C 
BRANCH  11  12
ATOM     12  C   UNL d   1      32.532  17.769 -23.995  0.00  0.00     0.018 A 
ATOM     13  C   UNL d   1      32.125  17.910 -24.699  0.00  0.00     0.004 A 
ATOM     14  C   UNL d   1      31.418  17.520 -24.848  0.00  0.00     0.024 A 
ATOM     15  C   UNL d   1      31.110  16.986 -24.295  0.00  0.00     0.094 A 
ATOM     16  C   UNL d   1      31.525  16.848 -23.588  0.00  0.00     0.024 A 
ATOM     17  C   UNL d   1      32.232  17.241 -23.443  0.00  0.00     0.004 A 
BRANCH  15  18
ATOM     18  O   UNL d   1      30.408  16.577 -24.408  0.00  0.00    -0.328 OA
ATOM     19  C   UNL d   1      29.692  16.980 -24.406  0.00  0.00     0.181 C 
ENDBRANCH  15  18
ENDBRANCH  11  12
ENDBRANCH   1  11
TORSDOF 3
ENDMDL
MODEL 4
REMARK VINA RESULT:      -2.2      1.541      3.965
REMARK  3 active torsions:
REMARK  status: ('A' for Active; 'I' for Inactive)
REMARK    1  A    between atoms: C_6  and  N_1 
REMARK    2  A    between atoms: C_8  and  C_6 
REMARK    3  A    between atoms: O_15  and  C_9 
ROOT
ATOM      1  N   UNL d   1      33.223  18.909 -23.440  0.00  0.00    -0.268 N 
ATOM      2  C   UNL d   1      33.218  18.965 -22.616  0.00  0.00     0.296 A 
ATOM      3  S   UNL d   1      33.218  19.775 -22.416  0.00  0.00    -0.025 SA
ATOM      4  C   UNL d   1      33.226  19.679 -23.748  0.00  0.00     0.073 A 
ATOM      5  C   UNL d   1      33.223  20.206 -23.125  0.00  0.00     0.050 A 
ATOM      6  O   UNL d   1      33.214  18.332 -22.092  0.00  0.00    -0.259 OA
ATOM      7  C   UNL d   1      33.231  19.957 -24.525  0.00  0.00     0.018 A 
ATOM      8  C   UNL d   1      33.224  21.025 -23.264  0.00  0.00     0.008 A 
ATOM      9  C   UNL d   1      33.233  20.770 -24.671  0.00  0.00     0.002 A 
ATOM     10  C   UNL d   1      33.229  21.307 -24.037  0.00  0.00     0.001 A 
ENDROOT
BRANCH   1  11
ATOM     11  C   UNL d   1      33.225  18.212 -23.881  0.00  0.00     0.084 C 
BRANCH  11  12
ATOM     12  C   UNL d   1      32.557  17.734 -23.898  0.00  0.00     0.018 A 
ATOM     13  C   UNL d   1      31.949  17.903 -24.430  0.00  0.00     0.004 A 
ATOM     14  C   UNL d   1      31.280  17.428 -24.451  0.00  0.00     0.024 A 
ATOM     15  C   UNL d   1      31.211  16.779 -23.941  0.00  0.00     0.094 A 
ATOM     16  C   UNL d   1      31.827  16.614 -23.407  0.00  0.00     0.024 A 
ATOM     17  C   UNL d   1      32.495  17.092 -23.390  0.00  0.00     0.004 A 
BRANCH  15  18
ATOM     18  O   UNL d   1      30.558  16.282 -23.932  0.00  0.00    -0.328 OA
ATOM     19  C   UNL d   1      29.810  16.581 -24.091  0.00  0.00     0.181 C 
ENDBRANCH  15  18
ENDBRANCH  11  12
ENDBRANCH   1  11
TORSDOF 3
ENDMDL
MODEL 5
REMARK VINA RESULT:      -1.5      1.776      3.871
REMARK  3 active torsions:
REMARK  status: ('A' for Active; 'I' for Inactive)
REMARK    1  A    between atoms: C_6  and  N_1 
REMARK    2  A    between atoms: C_8  and  C_6 
REMARK    3  A    between atoms: O_15  and  C_9 
ROOT
ATOM      1  N   UNL d   1      32.016  16.861 -24.095  0.00  0.00    -0.268 N 
ATOM      2  C   UNL d   1      32.386  16.257 -23.671  0.00  0.00     0.296 A 
ATOM      3  S   UNL d   1      32.910  16.614 -23.127  0.00  0.00    -0.025 SA
ATOM      4  C   UNL d   1      32.308  17.586 -23.817  0.00  0.00     0.073 A 
ATOM      5  C   UNL d   1      32.852  17.436 -23.228  0.00  0.00     0.050 A 
ATOM      6  O   UNL d   1      32.257  15.453 -23.770  0.00  0.00    -0.259 OA
ATOM      7  C   UNL d   1      32.139  18.364 -24.035  0.00  0.00     0.018 A 
ATOM      8  C   UNL d   1      33.241  18.059 -22.842  0.00  0.00     0.008 A 
ATOM      9  C   UNL d   1      32.521  18.990 -23.656  0.00  0.00     0.002 A 
ATOM     10  C   UNL d   1      33.076  18.837 -23.056  0.00  0.00     0.001 A 
ENDROOT
BRANCH   1  11
ATOM     11  C   UNL d   1      31.454  16.764 -24.691  0.00  0.00     0.084 C 
BRANCH  11  12
ATOM     12  C   UNL d   1      30.665  16.641 -24.498  0.00  0.00     0.018 A 
ATOM     13  C   UNL d   1      30.120  17.252 -24.604  0.00  0.00     0.004 A 
ATOM     14  C   UNL d   1      29.331  17.134 -24.412  0.00  0.00     0.024 A 
ATOM     15  C   UNL d   1      29.077  16.405 -24.111  0.00  0.00     0.094 A 
ATOM     16  C   UNL d   1      29.631  15.794 -24.006  0.00  0.00     0.024 A 
ATOM     17  C   UNL d   1      30.420  15.917 -24.200  0.00  0.00     0.004 A 
BRANCH  15  18
ATOM     18  O   UNL d   1      28.298  16.250 -23.908  0.00  0.00    -0.328 OA
ATOM     19  C   UNL d   1      27.973  16.586 -23.233  0.00  0.00     0.181 C 
ENDBRANCH  15  18
ENDBRANCH  11  12
ENDBRANCH   1  11
TORSDOF 3
ENDMDL
MODEL 6
REMARK VINA RESULT:      -1.1      3.172      5.806
REMARK  3 active torsions:
REMARK  status: ('A' for Active; 'I' for Inactive)
REMARK    1  A    between atoms: C_6  and  N_1 
REMARK    2  A    between atoms: C_8  and  C_6 
REMARK    3  A    between atoms: O_15  and  C_9 
ROOT
ATOM      1  N   UNL d   1      32.666  22.874 -21.446  0.00  0.00    -0.268 N 
ATOM      2  C   UNL d   1      32.028  23.267 -21.793  0.00  0.00     0.296 A 
ATOM      3  S   UNL d   1      31.595  23.636 -21.182  0.00  0.00    -0.025 SA
ATOM      4  C   UNL d   1      32.629  22.999 -20.627  0.00  0.00     0.073 A 
ATOM      5  C   UNL d   1      31.977  23.463 -20.466  0.00  0.00     0.050 A 
ATOM      6  O   UNL d   1      31.856  23.287 -22.596  0.00  0.00    -0.259 OA
ATOM      7  C   UNL d   1      33.115  22.742 -20.012  0.00  0.00     0.018 A 
ATOM      8  C   UNL d   1      31.795  23.681 -19.687  0.00  0.00     0.008 A 
ATOM      9  C   UNL d   1      32.941  22.954 -19.233  0.00  0.00     0.002 A 
ATOM     10  C   UNL d   1      32.277  23.427 -19.069  0.00  0.00     0.001 A 
ENDROOT
BRANCH   1  11
ATOM     11  C   UNL d   1      33.241  22.434 -21.842  0.00  0.00     0.084 C 
BRANCH  11  12
ATOM     12  C   UNL d   1      33.122  21.633 -21.983  0.00  0.00     0.018 A 
ATOM     13  C   UNL d   1      33.233  21.333 -22.744  0.00  0.00     0.004 A 
ATOM     14  C   UNL d   1      33.115  20.534 -22.890  0.00  0.00     0.024 A 
ATOM     15  C   UNL d   1      32.886  20.026 -22.277  0.00  0.00     0.094 A 
ATOM     16  C   UNL d   1      32.776  20.334 -21.513  0.00  0.00     0.024 A 
ATOM     17  C   UNL d   1      32.895  21.135 -21.372  0.00  0.00     0.004 A 
BRANCH  15  18
ATOM     18  O   UNL d   1      32.758  19.223 -22.384  0.00  0.00    -0.328 OA
ATOM     19  C   UNL d   1      32.888  18.879 -23.118  0.00  0.00     0.181 C 
ENDBRANCH  15  18
ENDBRANCH  11  12
ENDBRANCH   1  11
TORSDOF 3
ENDMDL
MODEL 7
REMARK VINA RESULT:      -1.0      1.453      2.156
REMARK  3 active torsions:
REMARK  status: ('A' for Active; 'I' for Inactive)
REMARK    1  A    between atoms: C_6  and  N_1 
REMARK    2  A    between atoms: C_8  and  C_6 
REMARK    3  A    between atoms: O_15  and  C_9 
ROOT
ATOM      1  N   UNL d   1      32.815  19.269 -23.586  0.00  0.00    -0.268 N 
ATOM      2  C   UNL d   1      32.759  19.740 -24.262  0.00  0.00     0.296 A 
ATOM      3  S   UNL d   1      32.273  19.340 -24.810  0.00  0.00    -0.025 SA
ATOM      4  C   UNL d   1      32.367  18.583 -23.714  0.00  0.00     0.073 A 
ATOM      5  C   UNL d   1      32.037  18.626 -24.459  0.00  0.00     0.050 A 
ATOM      6  O   UNL d   1      33.119  20.470 -24.369  0.00  0.00    -0.259 OA
ATOM      7  C   UNL d   1      32.224  17.926 -23.237  0.00  0.00     0.018 A 
ATOM      8  C   UNL d   1      31.556  18.013 -24.745  0.00  0.00     0.008 A 
ATOM      9  C   UNL d   1      31.747  17.312 -23.513  0.00  0.00     0.002 A 
ATOM     10  C   UNL d   1      31.410  17.356 -24.272  0.00  0.00     0.001 A 
ENDROOT
BRANCH   1  11
ATOM     11  C   UNL d   1      33.241  19.447 -22.902  0.00  0.00     0.084 C 
BRANCH  11  12
ATOM     12  C   UNL d   1      32.967  20.024 -22.385  0.00  0.00     0.018 A 
ATOM     13  C   UNL d   1      32.678  19.803 -21.644  0.00  0.00     0.004 A 
ATOM     14  C   UNL d   1      32.403  20.376 -21.125  0.00  0.00     0.024 A 
ATOM     15  C   UNL d   1      32.415  21.175 -21.339  0.00  0.00     0.094 A 
ATOM     16  C   UNL d   1      32.708  21.392 -22.086  0.00  0.00     0.024 A 
ATOM     17  C   UNL d   1      32.981  20.815 -22.603  0.00  0.00     0.004 A 
BRANCH  15  18
ATOM     18  O   UNL d   1      32.150  21.776 -20.847  0.00  0.00    -0.328 OA
ATOM     19  C   UNL d   1      32.679  22.180 -20.367  0.00  0.00     0.181 C 
ENDBRANCH  15  18
ENDBRANCH  11  12
ENDBRANCH   1  11
TORSDOF 3
ENDMDL
MODEL 8
REMARK VINA RESULT:      -0.9      2.486      5.061
REMARK  3 active torsions:
REMARK  status: ('A' for Active; 'I' for Inactive)
REMARK    1  A    between atoms: C_6  and  N_1 
REMARK    2  A    between atoms: C_8  and  C_6 
REMARK    3  A    between atoms: O_15  and  C_9 
ROOT
ATOM      1  N   UNL d   1      32.808  21.402 -21.686  0.00  0.00    -0.268 N 
ATOM      2  C   UNL d   1      32.618  21.134 -20.928  0.00  0.00     0.296 A 
ATOM      3  S   UNL d   1      32.175  21.732 -20.550  0.00  0.00    -0.025 SA
ATOM      4  C   UNL d   1      32.485  22.161 -21.777  0.00  0.00     0.073 A 
ATOM      5  C   UNL d   1      32.101  22.362 -21.086  0.00  0.00     0.050 A 
ATOM      6  O   UNL d   1      32.829  20.407 -20.609  0.00  0.00    -0.259 OA
ATOM      7  C   UNL d   1      32.500  22.689 -22.410  0.00  0.00     0.018 A 
ATOM      8  C   UNL d   1      31.721  23.096 -21.011  0.00  0.00     0.008 A 
ATOM      9  C   UNL d   1      32.124  23.421 -22.344  0.00  0.00     0.002 A 
ATOM     10  C   UNL d   1      31.733  23.626 -21.641  0.00  0.00     0.001 A 
ENDROOT
BRANCH   1  11
ATOM     11  C   UNL d   1      33.241  20.990 -22.254  0.00  0.00     0.084 C 
BRANCH  11  12
ATOM     12  C   UNL d   1      32.956  20.280 -22.554  0.00  0.00     0.018 A 
ATOM     13  C   UNL d   1      32.518  20.280 -23.253  0.00  0.00     0.004 A 
ATOM     14  C   UNL d   1      32.231  19.573 -23.557  0.00  0.00     0.024 A 
ATOM     15  C   UNL d   1      32.380  18.859 -23.166  0.00  0.00     0.094 A 
ATOM     16  C   UNL d   1      32.822  18.865 -22.461  0.00  0.00     0.024 A 
ATOM     17  C   UNL d   1      33.107  19.575 -22.161  0.00  0.00     0.004 A 
BRANCH  15  18
ATOM     18  O   UNL d   1      32.111  18.133 -23.438  0.00  0.00    -0.328 OA
ATOM     19  C   UNL d   1      32.259  17.903 -24.212  0.00  0.00     0.181 C 
ENDBRANCH  15  18
ENDBRANCH  11  12
ENDBRANCH   1  11
TORSDOF 3
ENDMDL
MODEL 9
REMARK VINA RESULT:      -0.8      3.840      6.548
REMARK  3 active torsions:
REMARK  status: ('A' for Active; 'I' for Inactive)
REMARK    1  A    between atoms: C_6  and  N_1 
REMARK    2  A    between atoms: C_8  and  C_6 
REMARK    3  A    between atoms: O_15  and  C_9 
ROOT
ATOM      1  N   UNL d   1      32.525  23.269 -20.177  0.00  0.00    -0.268 N 
ATOM      2  C   UNL d   1      31.757  23.498 -20.377  0.00  0.00     0.296 A 
ATOM      3  S   UNL d   1      31.361  23.699 -19.670  0.00  0.00    -0.025 SA
ATOM      4  C   UNL d   1      32.604  23.328 -19.354  0.00  0.00     0.073 A 
ATOM      5  C   UNL d   1      31.895  23.589 -19.045  0.00  0.00     0.050 A 
ATOM      6  O   UNL d   1      31.445  23.521 -21.136  0.00  0.00    -0.259 OA
ATOM      7  C   UNL d   1      33.241  23.173 -18.853  0.00  0.00     0.018 A 
ATOM      8  C   UNL d   1      31.806  23.702 -18.228  0.00  0.00     0.008 A 
ATOM      9  C   UNL d   1      33.160  23.282 -18.038  0.00  0.00     0.002 A 
ATOM     10  C   UNL d   1      32.439  23.549 -17.724  0.00  0.00     0.001 A 
ENDROOT
BRANCH   1  11
ATOM     11  C   UNL d   1      33.113  23.025 -20.702  0.00  0.00     0.084 C 
BRANCH  11  12
ATOM     12  C   UNL d   1      33.064  22.287 -21.061  0.00  0.00     0.018 A 
ATOM     13  C   UNL d   1      32.888  21.623 -20.602  0.00  0.00     0.004 A 
ATOM     14  C   UNL d   1      32.838  20.884 -20.956  0.00  0.00     0.024 A 
ATOM     15  C   UNL d   1      32.963  20.799 -21.770  0.00  0.00     0.094 A 
ATOM     16  C   UNL d   1      33.140  21.472 -22.226  0.00  0.00     0.024 A 
ATOM     17  C   UNL d   1      33.188  22.210 -21.868  0.00  0.00     0.004 A 
BRANCH  15  18
ATOM     18  O   UNL d   1      32.922  20.078 -22.158  0.00  0.00    -0.328 OA
ATOM     19  C   UNL d   1      33.046  20.039 -22.969  0.00  0.00     0.181 C 
ENDBRANCH  15  18
ENDBRANCH  11  12
ENDBRANCH   1  11
TORSDOF 3
ENDMDL
