MODEL 1
REMARK VINA RESULT:      -2.9      0.000      0.000
REMARK  3 active torsions:
REMARK  status: ('A' for Active; 'I' for Inactive)
REMARK    1  A    between atoms: C_13  and  N_2 
REMARK    2  A    between atoms: N_5  and  C_14 
REMARK    3  A    between atoms: C_14  and  C_13 
ROOT
ATOM      1  C   UNL d   1      33.234  21.632 -22.361  0.00  0.00     0.166 A 
ATOM      2  N   UNL d   1      33.238  21.278 -23.119  0.00  0.00    -0.288 N 
ATOM      3  C   UNL d   1      33.232  22.456 -22.458  0.00  0.00     0.117 A 
ATOM      4  N   UNL d   1      33.233  21.289 -21.601  0.00  0.00    -0.225 NA
ATOM      5  N   UNL d   1      33.229  22.940 -21.796  0.00  0.00    -0.241 NA
ATOM      6  C   UNL d   1      33.235  22.614 -23.280  0.00  0.00     0.037 A 
ATOM      7  C   UNL d   1      33.238  21.890 -23.672  0.00  0.00     0.067 A 
ATOM      8  C   UNL d   1      33.229  21.773 -20.932  0.00  0.00     0.101 A 
ATOM      9  C   UNL d   1      33.228  22.597 -21.030  0.00  0.00     0.099 A 
ATOM     10  C   UNL d   1      33.234  23.345 -23.702  0.00  0.00     0.003 A 
ATOM     11  C   UNL d   1      33.240  21.884 -24.519  0.00  0.00     0.018 A 
ATOM     12  C   UNL d   1      33.228  21.435 -20.165  0.00  0.00     0.021 A 
ATOM     13  C   UNL d   1      33.224  23.054 -20.366  0.00  0.00     0.021 A 
ATOM     14  C   UNL d   1      33.237  23.338 -24.519  0.00  0.00     0.000 A 
ATOM     15  C   UNL d   1      33.240  22.615 -24.918  0.00  0.00     0.002 A 
ATOM     16  C   UNL d   1      33.223  22.741 -19.599  0.00  0.00     0.002 A 
ATOM     17  C   UNL d   1      33.225  21.916 -19.500  0.00  0.00     0.002 A 
ENDROOT
BRANCH   2  18
ATOM     18  C   UNL d   1      33.241  20.632 -23.637  0.00  0.00     0.101 C 
BRANCH  18  19
ATOM     19  C   UNL d   1      33.241  19.862 -23.341  0.00  0.00     0.104 C 
BRANCH  19  20
ATOM     20  N   UNL d   1      33.155  19.228 -23.860  0.00  0.00    -0.250 N 
ATOM     21  C   UNL d   1      33.152  19.154 -24.527  0.00  0.00     0.378 A 
ATOM     22  O   UNL d   1      33.060  18.503 -24.662  0.00  0.00    -0.258 OA
ATOM     23  O   UNL d   1      33.227  19.640 -24.978  0.00  0.00    -0.237 OA
ATOM     24  C   UNL d   1      33.007  18.177 -24.077  0.00  0.00     0.121 A 
ATOM     25  C   UNL d   1      33.066  18.625 -23.582  0.00  0.00     0.092 A 
ATOM     26  C   UNL d   1      32.912  17.527 -23.927  0.00  0.00     0.026 A 
ATOM     27  C   UNL d   1      33.031  18.433 -22.941  0.00  0.00     0.020 A 
ATOM     28  C   UNL d   1      32.936  17.781 -22.796  0.00  0.00     0.002 A 
ATOM     29  C   UNL d   1      32.877  17.334 -23.287  0.00  0.00     0.002 A 
ENDBRANCH  19  20
ENDBRANCH  18  19
ENDBRANCH   2  18
TORSDOF 3
ENDMDL
MODEL 2
REMARK VINA RESULT:      -2.7      2.565      5.542
REMARK  3 active torsions:
REMARK  status: ('A' for Active; 'I' for Inactive)
REMARK    1  A    between atoms: C_13  and  N_2 
REMARK    2  A    between atoms: N_5  and  C_14 
REMARK    3  A    between atoms: C_14  and  C_13 
ROOT
ATOM      1  C   UNL d   1      30.882  17.216 -24.083  0.00  0.00     0.166 A 
ATOM      2  N   UNL d   1      31.674  17.484 -24.120  0.00  0.00    -0.288 N 
ATOM      3  C   UNL d   1      30.855  16.442 -24.380  0.00  0.00     0.117 A 
ATOM      4  N   UNL d   1      30.192  17.597 -23.813  0.00  0.00    -0.225 NA
ATOM      5  N   UNL d   1      30.138  16.045 -24.407  0.00  0.00    -0.241 NA
ATOM      6  C   UNL d   1      31.634  16.228 -24.601  0.00  0.00     0.037 A 
ATOM      7  C   UNL d   1      32.123  16.870 -24.438  0.00  0.00     0.067 A 
ATOM      8  C   UNL d   1      29.468  17.202 -23.839  0.00  0.00     0.101 A 
ATOM      9  C   UNL d   1      29.442  16.427 -24.135  0.00  0.00     0.099 A 
ATOM     10  C   UNL d   1      31.938  15.513 -24.932  0.00  0.00     0.003 A 
ATOM     11  C   UNL d   1      32.951  16.805 -24.609  0.00  0.00     0.018 A 
ATOM     12  C   UNL d   1      28.770  17.578 -23.569  0.00  0.00     0.021 A 
ATOM     13  C   UNL d   1      28.726  16.056 -24.153  0.00  0.00     0.021 A 
ATOM     14  C   UNL d   1      32.735  15.453 -25.097  0.00  0.00     0.000 A 
ATOM     15  C   UNL d   1      33.232  16.093 -24.936  0.00  0.00     0.002 A 
ATOM     16  C   UNL d   1      28.024  16.410 -23.891  0.00  0.00     0.002 A 
ATOM     17  C   UNL d   1      28.050  17.185 -23.594  0.00  0.00     0.002 A 
ENDROOT
BRANCH   2  18
ATOM     18  C   UNL d   1      32.276  18.043 -24.009  0.00  0.00     0.101 C 
BRANCH  18  19
ATOM     19  C   UNL d   1      32.277  18.523 -23.339  0.00  0.00     0.104 C 
BRANCH  19  20
ATOM     20  N   UNL d   1      32.634  19.266 -23.373  0.00  0.00    -0.250 N 
ATOM     21  C   UNL d   1      32.836  19.676 -23.864  0.00  0.00     0.378 A 
ATOM     22  O   UNL d   1      33.097  20.225 -23.579  0.00  0.00    -0.258 OA
ATOM     23  O   UNL d   1      32.787  19.560 -24.519  0.00  0.00    -0.237 OA
ATOM     24  C   UNL d   1      33.055  20.151 -22.913  0.00  0.00     0.121 A 
ATOM     25  C   UNL d   1      32.769  19.558 -22.786  0.00  0.00     0.092 A 
ATOM     26  C   UNL d   1      33.241  20.548 -22.401  0.00  0.00     0.026 A 
ATOM     27  C   UNL d   1      32.666  19.358 -22.155  0.00  0.00     0.020 A 
ATOM     28  C   UNL d   1      32.853  19.757 -21.646  0.00  0.00     0.002 A 
ATOM     29  C   UNL d   1      33.138  20.347 -21.771  0.00  0.00     0.002 A 
ENDBRANCH  19  20
ENDBRANCH  18  19
ENDBRANCH   2  18
TORSDOF 3
ENDMDL
MODEL 3
REMARK VINA RESULT:      -2.5      1.605      4.284
REMARK  3 active torsions:
REMARK  status: ('A' for Active; 'I' for Inactive)
REMARK    1  A    between atoms: C_13  and  N_2 
REMARK    2  A    between atoms: N_5  and  C_14 
REMARK    3  A    between atoms: C_14  and  C_13 
ROOT
ATOM      1  C   UNL d   1      33.236  20.629 -22.853  0.00  0.00     0.166 A 
ATOM      2  N   UNL d   1      33.235  21.453 -22.712  0.00  0.00    -0.288 N 
ATOM      3  C   UNL d   1      33.237  20.505 -23.673  0.00  0.00     0.117 A 
ATOM      4  N   UNL d   1      33.235  19.987 -22.321  0.00  0.00    -0.225 NA
ATOM      5  N   UNL d   1      33.238  19.738 -23.965  0.00  0.00    -0.241 NA
ATOM      6  C   UNL d   1      33.238  21.256 -24.043  0.00  0.00     0.037 A 
ATOM      7  C   UNL d   1      33.237  21.825 -23.448  0.00  0.00     0.067 A 
ATOM      8  C   UNL d   1      33.235  19.214 -22.611  0.00  0.00     0.101 A 
ATOM      9  C   UNL d   1      33.237  19.091 -23.432  0.00  0.00     0.099 A 
ATOM     10  C   UNL d   1      33.240  21.470 -24.859  0.00  0.00     0.003 A 
ATOM     11  C   UNL d   1      33.237  22.644 -23.667  0.00  0.00     0.018 A 
ATOM     12  C   UNL d   1      33.234  18.563 -22.083  0.00  0.00     0.021 A 
ATOM     13  C   UNL d   1      33.238  18.329 -23.697  0.00  0.00     0.021 A 
ATOM     14  C   UNL d   1      33.240  22.259 -25.069  0.00  0.00     0.000 A 
ATOM     15  C   UNL d   1      33.239  22.836 -24.477  0.00  0.00     0.002 A 
ATOM     16  C   UNL d   1      33.237  17.672 -23.192  0.00  0.00     0.002 A 
ATOM     17  C   UNL d   1      33.235  17.795 -22.371  0.00  0.00     0.002 A 
ENDROOT
BRANCH   2  18
ATOM     18  C   UNL d   1      33.234  22.125 -22.226  0.00  0.00     0.101 C 
BRANCH  18  19
ATOM     19  C   UNL d   1      33.083  22.051 -21.418  0.00  0.00     0.104 C 
BRANCH  19  20
ATOM     20  N   UNL d   1      32.991  22.730 -20.960  0.00  0.00    -0.250 N 
ATOM     21  C   UNL d   1      32.857  23.376 -21.084  0.00  0.00     0.378 A 
ATOM     22  O   UNL d   1      32.843  23.701 -20.498  0.00  0.00    -0.258 OA
ATOM     23  O   UNL d   1      32.756  23.648 -21.686  0.00  0.00    -0.237 OA
ATOM     24  C   UNL d   1      32.968  23.253 -20.012  0.00  0.00     0.121 A 
ATOM     25  C   UNL d   1      33.059  22.654 -20.298  0.00  0.00     0.092 A 
ATOM     26  C   UNL d   1      33.012  23.312 -19.342  0.00  0.00     0.026 A 
ATOM     27  C   UNL d   1      33.193  22.115 -19.925  0.00  0.00     0.020 A 
ATOM     28  C   UNL d   1      33.236  22.178 -19.255  0.00  0.00     0.002 A 
ATOM     29  C   UNL d   1      33.145  22.773 -18.969  0.00  0.00     0.002 A 
ENDBRANCH  19  20
ENDBRANCH  18  19
ENDBRANCH   2  18
TORSDOF 3
ENDMDL
