MODEL 1
REMARK VINA RESULT:       0.0      0.000      0.000
REMARK  6 active torsions:
REMARK  status: ('A' for Active; 'I' for Inactive)
REMARK    1  A    between atoms: N_10  and  C_3 
REMARK    2  A    between atoms: C_9  and  C_4 
REMARK    3  A    between atoms: C_20  and  N_13 
REMARK    4  A    between atoms: O_24  and  C_14 
REMARK    5  A    between atoms: O_26  and  C_16 
REMARK    6  A    between atoms: C_25  and  C_20 
ROOT
ATOM      1  N   UNL d   1      32.926  20.111 -22.823  0.00  0.00    -0.196 N 
ATOM      2  C   UNL d   1      32.877  19.305 -22.993  0.00  0.00     0.167 A 
ATOM      3  C   UNL d   1      33.077  20.347 -22.060  0.00  0.00     0.152 A 
ATOM      4  C   UNL d   1      32.728  19.051 -23.746  0.00  0.00     0.055 A 
ATOM      5  N   UNL d   1      32.672  20.411 -24.172  0.00  0.00    -0.163 NA
ATOM      6  C   UNL d   1      32.624  19.605 -24.342  0.00  0.00     0.104 A 
ATOM      7  N   UNL d   1      32.981  18.751 -22.397  0.00  0.00    -0.227 NA
ATOM      8  C   UNL d   1      33.182  19.808 -21.461  0.00  0.00     0.057 A 
ATOM      9  C   UNL d   1      33.133  19.003 -21.631  0.00  0.00     0.086 A 
ATOM     10  C   UNL d   1      32.474  19.365 -25.096  0.00  0.00     0.023 C 
ATOM     11  C   UNL d   1      33.241  18.431 -21.013  0.00  0.00     0.021 C 
ENDROOT
BRANCH   3  12
ATOM     12  N   UNL d   1      33.127  21.173 -21.886  0.00  0.00    -0.286 N 
ATOM     13  C   UNL d   1      33.107  21.185 -21.041  0.00  0.00     0.101 A 
ATOM     14  C   UNL d   1      33.145  21.924 -20.635  0.00  0.00     0.100 A 
ATOM     15  N   UNL d   1      33.203  22.649 -21.061  0.00  0.00    -0.300 N 
ATOM     16  C   UNL d   1      33.222  22.630 -21.917  0.00  0.00     0.100 A 
ATOM     17  C   UNL d   1      33.185  21.900 -22.325  0.00  0.00     0.101 A 
BRANCH  15  18
ATOM     18  C   UNL d   1      33.241  23.389 -20.642  0.00  0.00     0.080 C 
BRANCH  18  19
ATOM     19  C   UNL d   1      32.794  23.490 -19.932  0.00  0.00     0.018 A 
ATOM     20  C   UNL d   1      31.963  23.586 -19.968  0.00  0.00     0.002 A 
ATOM     21  C   UNL d   1      31.517  23.686 -19.254  0.00  0.00     0.000 A 
ATOM     22  C   UNL d   1      31.912  23.689 -18.514  0.00  0.00     0.000 A 
ATOM     23  C   UNL d   1      32.751  23.592 -18.484  0.00  0.00     0.000 A 
ATOM     24  C   UNL d   1      33.189  23.493 -19.193  0.00  0.00     0.002 A 
ENDBRANCH  18  19
ENDBRANCH  15  18
ENDBRANCH   3  12
BRANCH   4  25
ATOM     25  C   UNL d   1      32.680  18.258 -23.913  0.00  0.00     0.007 A 
ATOM     26  C   UNL d   1      32.072  17.819 -23.598  0.00  0.00     0.026 A 
ATOM     27  C   UNL d   1      32.023  17.013 -23.768  0.00  0.00     0.116 A 
ATOM     28  C   UNL d   1      32.584  16.663 -24.250  0.00  0.00     0.116 A 
ATOM     29  C   UNL d   1      33.182  17.113 -24.556  0.00  0.00     0.026 A 
ATOM     30  C   UNL d   1      33.230  17.915 -24.386  0.00  0.00     0.002 A 
BRANCH  27  31
ATOM     31  O   UNL d   1      31.406  16.552 -23.452  0.00  0.00    -0.326 OA
ATOM     32  C   UNL d   1      30.603  16.673 -23.721  0.00  0.00     0.181 C 
ENDBRANCH  27  31
BRANCH  28  33
ATOM     33  O   UNL d   1      32.534  15.832 -24.425  0.00  0.00    -0.326 OA
ATOM     34  C   UNL d   1      33.016  15.508 -25.049  0.00  0.00     0.181 C 
ENDBRANCH  28  33
ENDBRANCH   4  25
TORSDOF 6
ENDMDL
