MODEL 1
REMARK VINA RESULT:      12.5      0.000      0.000
REMARK  5 active torsions:
REMARK  status: ('A' for Active; 'I' for Inactive)
REMARK    1  A    between atoms: C_6  and  C_1 
REMARK    2  A    between atoms: C_7  and  C_4 
REMARK    3  A    between atoms: O_14  and  C_6 
REMARK    4  A    between atoms: O_15  and  C_9 
REMARK    5  A    between atoms: O_16  and  C_10 
ROOT
ATOM      1  C   UNL d   1      45.939 -17.328  44.320  0.00  0.00     0.027 A 
ATOM      2  C   UNL d   1      46.087 -17.588  43.548  0.00  0.00     0.028 A 
ATOM      3  C   UNL d   1      46.322 -18.362  43.410  0.00  0.00     0.116 A 
ATOM      4  C   UNL d   1      46.412 -18.887  44.045  0.00  0.00     0.116 A 
ATOM      5  C   UNL d   1      46.029 -17.853  44.955  0.00  0.00     0.004 A 
ATOM      6  C   UNL d   1      46.266 -18.633  44.812  0.00  0.00     0.026 A 
ENDROOT
BRANCH   1   7
ATOM      7  C   UNL d   1      45.702 -16.551  44.461  0.00  0.00     0.127 A 
ATOM      8  C   UNL d   1      46.038 -15.880  44.124  0.00  0.00     0.054 A 
ATOM      9  C   UNL d   1      45.634 -15.220  44.416  0.00  0.00     0.173 A 
ATOM     10  N   UNL d   1      45.050 -15.491  44.931  0.00  0.00    -0.121 NA
ATOM     11  O   UNL d   1      45.098 -16.315  44.955  0.00  0.00    -0.211 OA
BRANCH   9  12
ATOM     12  C   UNL d   1      45.785 -14.437  44.227  0.00  0.00     0.316 C 
ATOM     13  O   UNL d   1      46.565 -14.157  44.209  0.00  0.00    -0.257 OA
BRANCH  12  14
ATOM     14  O   UNL d   1      45.162 -13.927  44.055  0.00  0.00    -0.294 OA
ATOM     15  C   UNL d   1      45.318 -13.142  43.874  0.00  0.00     0.185 C 
ENDBRANCH  12  14
ENDBRANCH   9  12
ENDBRANCH   1   7
BRANCH   3  16
ATOM     16  O   UNL d   1      46.468 -18.616  42.643  0.00  0.00    -0.326 OA
ATOM     17  C   UNL d   1      46.045 -18.294  42.017  0.00  0.00     0.181 C 
ENDBRANCH   3  16
BRANCH   4  18
ATOM     18  O   UNL d   1      46.647 -19.659  43.904  0.00  0.00    -0.326 OA
ATOM     19  C   UNL d   1      46.608 -20.215  44.509  0.00  0.00     0.181 C 
ENDBRANCH   4  18
TORSDOF 5
ENDMDL
MODEL 2
REMARK VINA RESULT:      13.5      1.075      4.443
REMARK  5 active torsions:
REMARK  status: ('A' for Active; 'I' for Inactive)
REMARK    1  A    between atoms: C_6  and  C_1 
REMARK    2  A    between atoms: C_7  and  C_4 
REMARK    3  A    between atoms: O_14  and  C_6 
REMARK    4  A    between atoms: O_15  and  C_9 
REMARK    5  A    between atoms: O_16  and  C_10 
ROOT
ATOM      1  C   UNL d   1      45.670 -14.967  44.574  0.00  0.00     0.027 A 
ATOM      2  C   UNL d   1      45.083 -14.521  44.195  0.00  0.00     0.028 A 
ATOM      3  C   UNL d   1      45.121 -13.701  44.197  0.00  0.00     0.116 A 
ATOM      4  C   UNL d   1      45.747 -13.316  44.578  0.00  0.00     0.116 A 
ATOM      5  C   UNL d   1      46.296 -14.582  44.955  0.00  0.00     0.004 A 
ATOM      6  C   UNL d   1      46.331 -13.754  44.955  0.00  0.00     0.026 A 
ENDROOT
BRANCH   1   7
ATOM      7  C   UNL d   1      45.633 -15.790  44.573  0.00  0.00     0.127 A 
ATOM      8  C   UNL d   1      46.163 -16.293  44.196  0.00  0.00     0.054 A 
ATOM      9  C   UNL d   1      45.921 -17.070  44.337  0.00  0.00     0.173 A 
ATOM     10  N   UNL d   1      45.240 -17.040  44.802  0.00  0.00    -0.121 NA
ATOM     11  O   UNL d   1      45.068 -16.246  44.945  0.00  0.00    -0.211 OA
BRANCH   9  12
ATOM     12  C   UNL d   1      46.289 -17.750  44.065  0.00  0.00     0.316 C 
ATOM     13  O   UNL d   1      46.522 -18.338  44.599  0.00  0.00    -0.257 OA
BRANCH  12  14
ATOM     14  O   UNL d   1      46.427 -17.850  43.259  0.00  0.00    -0.294 OA
ATOM     15  C   UNL d   1      46.353 -18.595  42.924  0.00  0.00     0.185 C 
ENDBRANCH  12  14
ENDBRANCH   9  12
ENDBRANCH   1   7
BRANCH   3  16
ATOM     16  O   UNL d   1      44.537 -13.263  43.821  0.00  0.00    -0.326 OA
ATOM     17  C   UNL d   1      44.663 -12.980  43.060  0.00  0.00     0.181 C 
ENDBRANCH   3  16
BRANCH   4  18
ATOM     18  O   UNL d   1      45.782 -12.497  44.578  0.00  0.00    -0.326 OA
ATOM     19  C   UNL d   1      46.427 -12.116  44.918  0.00  0.00     0.181 C 
ENDBRANCH   4  18
TORSDOF 5
ENDMDL
