MODEL 1
REMARK VINA RESULT:      -6.3      0.000      0.000
REMARK  5 active torsions:
REMARK  status: ('A' for Active; 'I' for Inactive)
REMARK    1  A    between atoms: C_4  and  S_1 
REMARK    2  A    between atoms: N_7  and  S_1 
REMARK    3  A    between atoms: C_8  and  C_2 
REMARK    4  A    between atoms: C_6  and  C_13 
REMARK    5  A    between atoms: C_13  and  N_7 
ROOT
ATOM      1  C   UNL d   1     -46.269  12.612  22.982  0.00  0.00     0.112 A 
ATOM      2  N   UNL d   1     -46.968  12.894  23.336  0.00  0.00    -0.237 NA
ATOM      3  S   UNL d   1     -46.062  13.145  22.391  0.00  0.00    -0.066 SA
ATOM      4  C   UNL d   1     -47.180  13.592  22.961  0.00  0.00     0.108 A 
ATOM      5  C   UNL d   1     -46.625  13.752  22.378  0.00  0.00     0.058 A 
ENDROOT
BRANCH   4   6
ATOM      6  C   UNL d   1     -47.844  14.057  23.144  0.00  0.00     0.132 C 
BRANCH   6   7
ATOM      7  N   UNL d   1     -48.486  14.086  22.630  0.00  0.00    -0.155 NA
BRANCH   7   8
ATOM      8  S   UNL d   1     -49.172  14.512  22.831  0.00  0.00     0.291 S 
ATOM      9  O   UNL d   1     -49.372  13.933  23.383  0.00  0.00    -0.198 OA
ATOM     10  O   UNL d   1     -48.962  15.096  22.269  0.00  0.00    -0.198 OA
BRANCH   8  11
ATOM     11  C   UNL d   1     -49.847  14.939  23.024  0.00  0.00     0.135 A 
ATOM     12  S   UNL d   1     -50.525  14.967  22.597  0.00  0.00    -0.073 SA
ATOM     13  C   UNL d   1     -51.064  15.456  22.980  0.00  0.00     0.036 A 
ATOM     14  C   UNL d   1     -50.696  15.734  23.666  0.00  0.00     0.008 A 
ATOM     15  C   UNL d   1     -49.940  15.415  23.697  0.00  0.00     0.020 A 
ENDBRANCH   8  11
ENDBRANCH   7   8
ENDBRANCH   6   7
ENDBRANCH   4   6
BRANCH   1  16
ATOM     16  C   UNL d   1     -45.859  11.919  23.190  0.00  0.00     0.043 A 
ATOM     17  C   UNL d   1     -45.043  11.895  23.080  0.00  0.00     0.101 A 
ATOM     18  N   UNL d   1     -44.627  11.207  23.284  0.00  0.00    -0.242 NA
ATOM     19  C   UNL d   1     -45.042  10.572  23.589  0.00  0.00     0.099 A 
ATOM     20  C   UNL d   1     -45.866  10.601  23.698  0.00  0.00     0.021 A 
ATOM     21  C   UNL d   1     -46.272  11.280  23.496  0.00  0.00     0.005 A 
ENDBRANCH   1  16
TORSDOF 5
ENDMDL
MODEL 2
REMARK VINA RESULT:      -5.8      1.974      5.119
REMARK  5 active torsions:
REMARK  status: ('A' for Active; 'I' for Inactive)
REMARK    1  A    between atoms: C_4  and  S_1 
REMARK    2  A    between atoms: N_7  and  S_1 
REMARK    3  A    between atoms: C_8  and  C_2 
REMARK    4  A    between atoms: C_6  and  C_13 
REMARK    5  A    between atoms: C_13  and  N_7 
ROOT
ATOM      1  C   UNL d   1     -48.373  13.657  22.412  0.00  0.00     0.112 A 
ATOM      2  N   UNL d   1     -47.876  12.989  22.417  0.00  0.00    -0.237 NA
ATOM      3  S   UNL d   1     -47.921  14.300  22.655  0.00  0.00    -0.066 SA
ATOM      4  C   UNL d   1     -47.130  13.227  22.660  0.00  0.00     0.108 A 
ATOM      5  C   UNL d   1     -47.152  14.034  22.808  0.00  0.00     0.058 A 
ENDROOT
BRANCH   4   6
ATOM      6  C   UNL d   1     -46.467  12.733  22.742  0.00  0.00     0.132 C 
BRANCH   6   7
ATOM      7  N   UNL d   1     -46.406  12.221  23.382  0.00  0.00    -0.155 NA
BRANCH   7   8
ATOM      8  S   UNL d   1     -45.804  11.646  23.410  0.00  0.00     0.291 S 
ATOM      9  O   UNL d   1     -45.234  12.240  23.398  0.00  0.00    -0.198 OA
ATOM     10  O   UNL d   1     -46.391  11.048  23.423  0.00  0.00    -0.198 OA
BRANCH   8  11
ATOM     11  C   UNL d   1     -45.218  11.072  23.438  0.00  0.00     0.135 A 
ATOM     12  S   UNL d   1     -45.306  10.319  23.698  0.00  0.00    -0.073 SA
ATOM     13  C   UNL d   1     -44.586   9.926  23.634  0.00  0.00     0.036 A 
ATOM     14  C   UNL d   1     -44.041  10.464  23.324  0.00  0.00     0.008 A 
ATOM     15  C   UNL d   1     -44.429  11.178  23.201  0.00  0.00     0.020 A 
ENDBRANCH   8  11
ENDBRANCH   7   8
ENDBRANCH   6   7
ENDBRANCH   4   6
BRANCH   1  16
ATOM     16  C   UNL d   1     -49.177  13.669  22.201  0.00  0.00     0.043 A 
ATOM     17  C   UNL d   1     -49.697  14.124  22.651  0.00  0.00     0.101 A 
ATOM     18  N   UNL d   1     -50.500  14.142  22.447  0.00  0.00    -0.242 NA
ATOM     19  C   UNL d   1     -50.752  13.706  21.803  0.00  0.00     0.099 A 
ATOM     20  C   UNL d   1     -50.224  13.248  21.352  0.00  0.00     0.021 A 
ATOM     21  C   UNL d   1     -49.434  13.234  21.557  0.00  0.00     0.005 A 
ENDBRANCH   1  16
TORSDOF 5
ENDMDL
MODEL 3
REMARK VINA RESULT:      -5.7      1.897      2.245
REMARK  5 active torsions:
REMARK  status: ('A' for Active; 'I' for Inactive)
REMARK    1  A    between atoms: C_4  and  S_1 
REMARK    2  A    between atoms: N_7  and  S_1 
REMARK    3  A    between atoms: C_8  and  C_2 
REMARK    4  A    between atoms: C_6  and  C_13 
REMARK    5  A    between atoms: C_13  and  N_7 
ROOT
ATOM      1  C   UNL d   1     -45.618  13.178  22.478  0.00  0.00     0.112 A 
ATOM      2  N   UNL d   1     -46.302  12.747  22.677  0.00  0.00    -0.237 NA
ATOM      3  S   UNL d   1     -45.799  13.976  22.561  0.00  0.00    -0.066 SA
ATOM      4  C   UNL d   1     -46.890  13.281  22.879  0.00  0.00     0.108 A 
ATOM      5  C   UNL d   1     -46.586  14.040  22.810  0.00  0.00     0.058 A 
ENDROOT
BRANCH   4   6
ATOM      6  C   UNL d   1     -47.663  13.084  23.115  0.00  0.00     0.132 C 
BRANCH   6   7
ATOM      7  N   UNL d   1     -48.151  12.649  22.617  0.00  0.00    -0.155 NA
BRANCH   7   8
ATOM      8  S   UNL d   1     -48.950  12.519  22.812  0.00  0.00     0.291 S 
ATOM      9  O   UNL d   1     -48.722  12.189  23.532  0.00  0.00    -0.198 OA
ATOM     10  O   UNL d   1     -49.173  12.857  22.079  0.00  0.00    -0.198 OA
BRANCH   8  11
ATOM     11  C   UNL d   1     -49.741  12.395  22.997  0.00  0.00     0.135 A 
ATOM     12  S   UNL d   1     -50.360  12.834  22.738  0.00  0.00    -0.073 SA
ATOM     13  C   UNL d   1     -51.056  12.526  23.051  0.00  0.00     0.036 A 
ATOM     14  C   UNL d   1     -50.848  11.876  23.516  0.00  0.00     0.008 A 
ATOM     15  C   UNL d   1     -50.032  11.791  23.486  0.00  0.00     0.020 A 
ENDBRANCH   8  11
ENDBRANCH   7   8
ENDBRANCH   6   7
ENDBRANCH   4   6
BRANCH   1  16
ATOM     16  C   UNL d   1     -44.888  12.859  22.239  0.00  0.00     0.043 A 
ATOM     17  C   UNL d   1     -44.638  12.150  22.576  0.00  0.00     0.101 A 
ATOM     18  N   UNL d   1     -43.911  11.826  22.342  0.00  0.00    -0.242 NA
ATOM     19  C   UNL d   1     -43.465  12.221  21.783  0.00  0.00     0.099 A 
ATOM     20  C   UNL d   1     -43.722  12.936  21.446  0.00  0.00     0.021 A 
ATOM     21  C   UNL d   1     -44.439  13.252  21.678  0.00  0.00     0.005 A 
ENDBRANCH   1  16
TORSDOF 5
ENDMDL
MODEL 4
REMARK VINA RESULT:      -5.6      1.781      5.050
REMARK  5 active torsions:
REMARK  status: ('A' for Active; 'I' for Inactive)
REMARK    1  A    between atoms: C_4  and  S_1 
REMARK    2  A    between atoms: N_7  and  S_1 
REMARK    3  A    between atoms: C_8  and  C_2 
REMARK    4  A    between atoms: C_6  and  C_13 
REMARK    5  A    between atoms: C_13  and  N_7 
ROOT
ATOM      1  C   UNL d   1     -49.441  13.813  23.113  0.00  0.00     0.112 A 
ATOM      2  N   UNL d   1     -48.654  13.818  22.842  0.00  0.00    -0.237 NA
ATOM      3  S   UNL d   1     -49.605  13.051  23.376  0.00  0.00    -0.066 SA
ATOM      4  C   UNL d   1     -48.346  13.065  22.941  0.00  0.00     0.108 A 
ATOM      5  C   UNL d   1     -48.927  12.588  23.270  0.00  0.00     0.058 A 
ENDROOT
BRANCH   4   6
ATOM      6  C   UNL d   1     -47.574  12.828  22.742  0.00  0.00     0.132 C 
BRANCH   6   7
ATOM      7  N   UNL d   1     -46.941  13.341  22.846  0.00  0.00    -0.155 NA
BRANCH   7   8
ATOM      8  S   UNL d   1     -46.172  13.119  22.617  0.00  0.00     0.291 S 
ATOM      9  O   UNL d   1     -45.948  13.069  23.408  0.00  0.00    -0.198 OA
ATOM     10  O   UNL d   1     -46.407  13.172  21.814  0.00  0.00    -0.198 OA
BRANCH   8  11
ATOM     11  C   UNL d   1     -45.416  12.901  22.382  0.00  0.00     0.135 A 
ATOM     12  S   UNL d   1     -45.027  12.235  22.601  0.00  0.00    -0.073 SA
ATOM     13  C   UNL d   1     -44.285  12.226  22.245  0.00  0.00     0.036 A 
ATOM     14  C   UNL d   1     -44.224  12.915  21.792  0.00  0.00     0.008 A 
ATOM     15  C   UNL d   1     -44.924  13.337  21.874  0.00  0.00     0.020 A 
ENDBRANCH   8  11
ENDBRANCH   7   8
ENDBRANCH   6   7
ENDBRANCH   4   6
BRANCH   1  16
ATOM     16  C   UNL d   1     -49.964  14.460  23.116  0.00  0.00     0.043 A 
ATOM     17  C   UNL d   1     -50.540  14.506  22.528  0.00  0.00     0.101 A 
ATOM     18  N   UNL d   1     -51.064  15.148  22.524  0.00  0.00    -0.242 NA
ATOM     19  C   UNL d   1     -50.994  15.717  23.107  0.00  0.00     0.099 A 
ATOM     20  C   UNL d   1     -50.411  15.666  23.698  0.00  0.00     0.021 A 
ATOM     21  C   UNL d   1     -49.896  15.032  23.698  0.00  0.00     0.005 A 
ENDBRANCH   1  16
TORSDOF 5
ENDMDL
MODEL 5
REMARK VINA RESULT:      -4.9      8.055      9.044
REMARK  5 active torsions:
REMARK  status: ('A' for Active; 'I' for Inactive)
REMARK    1  A    between atoms: C_4  and  S_1 
REMARK    2  A    between atoms: N_7  and  S_1 
REMARK    3  A    between atoms: C_8  and  C_2 
REMARK    4  A    between atoms: C_6  and  C_13 
REMARK    5  A    between atoms: C_13  and  N_7 
ROOT
ATOM      1  C   UNL d   1     -39.591  14.112  21.668  0.00  0.00     0.112 A 
ATOM      2  N   UNL d   1     -39.422  14.456  20.928  0.00  0.00    -0.237 NA
ATOM      3  S   UNL d   1     -40.409  14.043  21.723  0.00  0.00    -0.066 SA
ATOM      4  C   UNL d   1     -40.132  14.592  20.542  0.00  0.00     0.108 A 
ATOM      5  C   UNL d   1     -40.744  14.340  21.026  0.00  0.00     0.058 A 
ENDROOT
BRANCH   4   6
ATOM      6  C   UNL d   1     -40.214  14.929  19.786  0.00  0.00     0.132 C 
BRANCH   6   7
ATOM      7  N   UNL d   1     -40.111  14.471  19.112  0.00  0.00    -0.155 NA
BRANCH   7   8
ATOM      8  S   UNL d   1     -40.248  14.790  18.356  0.00  0.00     0.291 S 
ATOM      9  O   UNL d   1     -39.689  15.378  18.501  0.00  0.00    -0.198 OA
ATOM     10  O   UNL d   1     -40.815  14.190  18.215  0.00  0.00    -0.198 OA
BRANCH   8  11
ATOM     11  C   UNL d   1     -40.389  15.099  17.608  0.00  0.00     0.135 A 
ATOM     12  S   UNL d   1     -39.833  15.356  17.091  0.00  0.00    -0.073 SA
ATOM     13  C   UNL d   1     -40.204  15.623  16.407  0.00  0.00     0.036 A 
ATOM     14  C   UNL d   1     -41.017  15.523  16.516  0.00  0.00     0.008 A 
ATOM     15  C   UNL d   1     -41.137  15.198  17.261  0.00  0.00     0.020 A 
ENDBRANCH   8  11
ENDBRANCH   7   8
ENDBRANCH   6   7
ENDBRANCH   4   6
BRANCH   1  16
ATOM     16  C   UNL d   1     -39.035  13.882  22.242  0.00  0.00     0.043 A 
ATOM     17  C   UNL d   1     -38.626  13.175  22.135  0.00  0.00     0.101 A 
ATOM     18  N   UNL d   1     -38.071  12.940  22.704  0.00  0.00    -0.242 NA
ATOM     19  C   UNL d   1     -37.945  13.419  23.355  0.00  0.00     0.099 A 
ATOM     20  C   UNL d   1     -38.361  14.131  23.458  0.00  0.00     0.021 A 
ATOM     21  C   UNL d   1     -38.908  14.360  22.895  0.00  0.00     0.005 A 
ENDBRANCH   1  16
TORSDOF 5
ENDMDL
MODEL 6
REMARK VINA RESULT:      -4.9      8.695     10.135
REMARK  5 active torsions:
REMARK  status: ('A' for Active; 'I' for Inactive)
REMARK    1  A    between atoms: C_4  and  S_1 
REMARK    2  A    between atoms: N_7  and  S_1 
REMARK    3  A    between atoms: C_8  and  C_2 
REMARK    4  A    between atoms: C_6  and  C_13 
REMARK    5  A    between atoms: C_13  and  N_7 
ROOT
ATOM      1  C   UNL d   1     -39.537  14.386  21.145  0.00  0.00     0.112 A 
ATOM      2  N   UNL d   1     -39.099  14.358  20.437  0.00  0.00    -0.237 NA
ATOM      3  S   UNL d   1     -40.327  14.481  20.939  0.00  0.00    -0.066 SA
ATOM      4  C   UNL d   1     -39.622  14.436  19.810  0.00  0.00     0.108 A 
ATOM      5  C   UNL d   1     -40.380  14.513  20.113  0.00  0.00     0.058 A 
ENDROOT
BRANCH   4   6
ATOM      6  C   UNL d   1     -39.415  14.437  19.005  0.00  0.00     0.132 C 
BRANCH   6   7
ATOM      7  N   UNL d   1     -39.025  13.794  18.674  0.00  0.00    -0.155 NA
BRANCH   7   8
ATOM      8  S   UNL d   1     -38.793  13.802  17.874  0.00  0.00     0.291 S 
ATOM      9  O   UNL d   1     -38.175  14.315  18.058  0.00  0.00    -0.198 OA
ATOM     10  O   UNL d   1     -39.424  13.281  17.697  0.00  0.00    -0.198 OA
BRANCH   8  11
ATOM     11  C   UNL d   1     -38.571  13.805  17.084  0.00  0.00     0.135 A 
ATOM     12  S   UNL d   1     -38.052  13.302  16.738  0.00  0.00    -0.073 SA
ATOM     13  C   UNL d   1     -37.985  13.492  15.940  0.00  0.00     0.036 A 
ATOM     14  C   UNL d   1     -38.484  14.136  15.799  0.00  0.00     0.008 A 
ATOM     15  C   UNL d   1     -38.850  14.334  16.507  0.00  0.00     0.020 A 
ENDBRANCH   8  11
ENDBRANCH   7   8
ENDBRANCH   6   7
ENDBRANCH   4   6
BRANCH   1  16
ATOM     16  C   UNL d   1     -39.229  14.327  21.915  0.00  0.00     0.043 A 
ATOM     17  C   UNL d   1     -39.036  15.020  22.317  0.00  0.00     0.101 A 
ATOM     18  N   UNL d   1     -38.730  14.970  23.086  0.00  0.00    -0.242 NA
ATOM     19  C   UNL d   1     -38.628  14.232  23.422  0.00  0.00     0.099 A 
ATOM     20  C   UNL d   1     -38.824  13.535  23.012  0.00  0.00     0.021 A 
ATOM     21  C   UNL d   1     -39.126  13.589  22.255  0.00  0.00     0.005 A 
ENDBRANCH   1  16
TORSDOF 5
ENDMDL
MODEL 7
REMARK VINA RESULT:      -4.8      8.818     10.058
REMARK  5 active torsions:
REMARK  status: ('A' for Active; 'I' for Inactive)
REMARK    1  A    between atoms: C_4  and  S_1 
REMARK    2  A    between atoms: N_7  and  S_1 
REMARK    3  A    between atoms: C_8  and  C_2 
REMARK    4  A    between atoms: C_6  and  C_13 
REMARK    5  A    between atoms: C_13  and  N_7 
ROOT
ATOM      1  C   UNL d   1     -39.417  14.420  17.942  0.00  0.00     0.112 A 
ATOM      2  N   UNL d   1     -39.056  14.536  18.684  0.00  0.00    -0.237 NA
ATOM      3  S   UNL d   1     -40.228  14.363  18.071  0.00  0.00    -0.066 SA
ATOM      4  C   UNL d   1     -39.645  14.548  19.255  0.00  0.00     0.108 A 
ATOM      5  C   UNL d   1     -40.369  14.442  18.883  0.00  0.00     0.058 A 
ENDROOT
BRANCH   4   6
ATOM      6  C   UNL d   1     -39.525  14.650  20.071  0.00  0.00     0.132 C 
BRANCH   6   7
ATOM      7  N   UNL d   1     -39.510  14.001  20.574  0.00  0.00    -0.155 NA
BRANCH   7   8
ATOM      8  S   UNL d   1     -39.257  14.081  21.363  0.00  0.00     0.291 S 
ATOM      9  O   UNL d   1     -39.885  14.592  21.515  0.00  0.00    -0.198 OA
ATOM     10  O   UNL d   1     -38.621  13.560  21.201  0.00  0.00    -0.198 OA
BRANCH   8  11
ATOM     11  C   UNL d   1     -39.000  14.153  22.140  0.00  0.00     0.135 A 
ATOM     12  S   UNL d   1     -38.819  14.838  22.515  0.00  0.00    -0.073 SA
ATOM     13  C   UNL d   1     -38.585  14.670  23.286  0.00  0.00     0.036 A 
ATOM     14  C   UNL d   1     -38.626  13.850  23.379  0.00  0.00     0.008 A 
ATOM     15  C   UNL d   1     -38.884  13.525  22.670  0.00  0.00     0.020 A 
ENDBRANCH   8  11
ENDBRANCH   7   8
ENDBRANCH   6   7
ENDBRANCH   4   6
BRANCH   1  16
ATOM     16  C   UNL d   1     -39.028  14.372  17.209  0.00  0.00     0.043 A 
ATOM     17  C   UNL d   1     -38.983  15.048  16.740  0.00  0.00     0.101 A 
ATOM     18  N   UNL d   1     -38.597  15.008  16.008  0.00  0.00    -0.242 NA
ATOM     19  C   UNL d   1     -38.272  14.295  15.773  0.00  0.00     0.099 A 
ATOM     20  C   UNL d   1     -38.320  13.616  16.249  0.00  0.00     0.021 A 
ATOM     21  C   UNL d   1     -38.701  13.660  16.970  0.00  0.00     0.005 A 
ENDBRANCH   1  16
TORSDOF 5
ENDMDL
