MODEL 1
REMARK VINA RESULT:      79.5      0.000      0.000
REMARK  4 active torsions:
REMARK  status: ('A' for Active; 'I' for Inactive)
REMARK    1  A    between atoms: C_6  and  S_1 
REMARK    2  A    between atoms: N_9  and  S_1 
REMARK    3  A    between atoms: C_17  and  N_9 
REMARK       I    between atoms: C_13  and  N_15 
REMARK    4  A    between atoms: N_15  and  C_18 
ROOT
ATOM      1  C   UNL d   1     -56.178-102.596 -39.159  0.00  0.00     0.054 A 
ATOM      2  C   UNL d   1     -55.459-102.666 -38.791  0.00  0.00     0.196 A 
ATOM      3  C   UNL d   1     -56.868-102.583 -38.763  0.00  0.00     0.043 A 
ATOM      4  C   UNL d   1     -56.880-102.642 -37.959  0.00  0.00     0.196 A 
ATOM      5  C   UNL d   1     -56.227-102.530 -40.008  0.00  0.00     0.108 A 
ATOM      6  C   UNL d   1     -55.436-102.728 -37.968  0.00  0.00     0.042 A 
ATOM      7  C   UNL d   1     -56.144-102.715 -37.563  0.00  0.00     0.042 A 
ATOM      8  O   UNL d   1     -54.759-102.673 -39.277  0.00  0.00    -0.286 OA
ATOM      9  O   UNL d   1     -57.618-102.628 -37.542  0.00  0.00    -0.287 OA
ATOM     10  C   UNL d   1     -57.608-102.510 -39.156  0.00  0.00     0.003 A 
ATOM     11  C   UNL d   1     -56.943-102.461 -40.367  0.00  0.00     0.013 A 
ATOM     12  C   UNL d   1     -54.723-102.801 -37.560  0.00  0.00     0.003 A 
ATOM     13  C   UNL d   1     -56.144-102.779 -36.692  0.00  0.00     0.003 A 
ATOM     14  C   UNL d   1     -57.630-102.448 -39.979  0.00  0.00     0.001 A 
ATOM     15  C   UNL d   1     -54.714-102.861 -36.761  0.00  0.00     0.000 A 
ATOM     16  C   UNL d   1     -55.423-102.850 -36.325  0.00  0.00     0.000 A 
ENDROOT
BRANCH   5  17
ATOM     17  S   UNL d   1     -55.511-102.539 -40.485  0.00  0.00     0.285 S 
ATOM     18  O   UNL d   1     -55.961-102.662 -41.151  0.00  0.00    -0.198 OA
ATOM     19  O   UNL d   1     -55.055-102.409 -39.774  0.00  0.00    -0.198 OA
BRANCH  17  20
ATOM     20  N   UNL d   1     -54.839-102.546 -40.932  0.00  0.00    -0.158 NA
BRANCH  20  21
ATOM     21  C   UNL d   1     -54.821-102.144 -41.673  0.00  0.00     0.094 A 
ATOM     22  C   UNL d   1     -54.887-101.330 -41.710  0.00  0.00     0.021 A 
ATOM     23  C   UNL d   1     -54.868-100.936 -42.446  0.00  0.00     0.021 A 
ATOM     24  C   UNL d   1     -54.781-101.380 -43.167  0.00  0.00     0.085 A 
ATOM     25  C   UNL d   1     -54.714-102.216 -43.114  0.00  0.00     0.021 A 
ATOM     26  C   UNL d   1     -54.733-102.590 -42.398  0.00  0.00     0.021 A 
BRANCH  24  27
ATOM     27  N   UNL d   1     -54.765-100.974 -43.881  0.00  0.00    -0.208 NA
ATOM     28  C   UNL d   1     -55.026-101.311 -44.594  0.00  0.00     0.279 C 
ATOM     29  O   UNL d   1     -55.321-102.116 -44.559  0.00  0.00    -0.265 OA
ATOM     30  C   UNL d   1     -55.023-100.929 -45.330  0.00  0.00     0.068 C 
ENDBRANCH  24  27
ENDBRANCH  20  21
ENDBRANCH  17  20
ENDBRANCH   5  17
TORSDOF 4
ENDMDL
