MODEL 1
REMARK VINA RESULT:      15.1      0.000      0.000
REMARK  1 active torsions:
REMARK  status: ('A' for Active; 'I' for Inactive)
REMARK    1  A    between atoms: C_2  and  C_1 
REMARK       I    between atoms: N_6  and  C_2 
ROOT
ATOM      1  C   UNL d   1      46.373 -19.113  42.785  0.00  0.00     0.057 A 
ATOM      2  C   UNL d   1      46.467 -19.531  43.488  0.00  0.00     0.005 A 
ATOM      3  C   UNL d   1      46.427 -19.131  44.218  0.00  0.00     0.001 A 
ATOM      4  C   UNL d   1      46.241 -18.299  42.804  0.00  0.00     0.011 A 
ATOM      5  C   UNL d   1      46.295 -18.319  44.231  0.00  0.00     0.006 A 
ATOM      6  C   UNL d   1      46.202 -17.900  43.530  0.00  0.00     0.035 A 
ATOM      7 BR   UNL d   1      46.070 -17.088  43.543  0.00  0.00    -0.049 Br
ATOM      8  C   UNL d   1      46.602 -20.319  43.686  0.00  0.00     0.000 C 
ATOM      9  C   UNL d   1      46.543 -19.716  44.785  0.00  0.00     0.000 C 
ATOM     10  C   UNL d   1      46.256 -17.919  44.955  0.00  0.00     0.001 C 
ENDROOT
BRANCH   1  11
ATOM     11  C   UNL d   1      46.412 -19.508  42.061  0.00  0.00     0.265 C 
ATOM     12  N   UNL d   1      46.503 -19.080  41.362  0.00  0.00    -0.272 N 
ATOM     13  C   UNL d   1      46.562 -18.263  41.298  0.00  0.00     0.083 A 
ATOM     14  C   UNL d   1      46.550 -19.399  40.601  0.00  0.00     0.083 A 
ATOM     15  C   UNL d   1      46.646 -18.071  40.502  0.00  0.00     0.021 A 
ATOM     16  C   UNL d   1      46.638 -18.775  40.070  0.00  0.00     0.021 A 
ATOM     17  O   UNL d   1      46.360 -20.330  42.037  0.00  0.00    -0.267 OA
ENDBRANCH   1  11
TORSDOF 1
ENDMDL
MODEL 2
REMARK VINA RESULT:      16.2      1.646      2.994
REMARK  1 active torsions:
REMARK  status: ('A' for Active; 'I' for Inactive)
REMARK    1  A    between atoms: C_2  and  C_1 
REMARK       I    between atoms: N_6  and  C_2 
ROOT
ATOM      1  C   UNL d   1      46.348 -18.309  43.532  0.00  0.00     0.057 A 
ATOM      2  C   UNL d   1      46.287 -19.130  43.515  0.00  0.00     0.005 A 
ATOM      3  C   UNL d   1      46.346 -19.535  42.790  0.00  0.00     0.001 A 
ATOM      4  C   UNL d   1      46.468 -17.889  42.832  0.00  0.00     0.011 A 
ATOM      5  C   UNL d   1      46.466 -19.112  42.095  0.00  0.00     0.006 A 
ATOM      6  C   UNL d   1      46.527 -18.292  42.110  0.00  0.00     0.035 A 
ATOM      7 BR   UNL d   1      46.647 -17.870  41.415  0.00  0.00    -0.049 Br
ATOM      8  C   UNL d   1      46.171 -19.719  44.078  0.00  0.00     0.000 C 
ATOM      9  C   UNL d   1      46.260 -20.330  42.986  0.00  0.00     0.000 C 
ATOM     10  C   UNL d   1      46.525 -19.514  41.373  0.00  0.00     0.001 C 
ENDROOT
BRANCH   1  11
ATOM     11  C   UNL d   1      46.289 -17.905  44.250  0.00  0.00     0.265 C 
ATOM     12  N   UNL d   1      45.985 -17.138  44.268  0.00  0.00    -0.272 N 
ATOM     13  C   UNL d   1      45.720 -16.707  43.621  0.00  0.00     0.083 A 
ATOM     14  C   UNL d   1      45.894 -16.669  44.942  0.00  0.00     0.083 A 
ATOM     15  C   UNL d   1      45.464 -15.971  43.889  0.00  0.00     0.021 A 
ATOM     16  C   UNL d   1      45.572 -15.948  44.707  0.00  0.00     0.021 A 
ATOM     17  O   UNL d   1      46.534 -18.268  44.948  0.00  0.00    -0.267 OA
ENDBRANCH   1  11
TORSDOF 1
ENDMDL
