MODEL 1
REMARK VINA RESULT:      -3.1      0.000      0.000
REMARK  2 active torsions:
REMARK  status: ('A' for Active; 'I' for Inactive)
REMARK    1  A    between atoms: C_2  and  N_1 
REMARK    2  A    between atoms: C_4  and  C_7 
ROOT
ATOM      1  C   UNL d   1      32.076  17.468 -24.171  0.00  0.00     0.146 A 
ATOM      2  C   UNL d   1      31.289  17.333 -23.963  0.00  0.00     0.027 A 
ATOM      3  C   UNL d   1      30.870  16.686 -24.297  0.00  0.00     0.021 A 
ATOM      4  C   UNL d   1      32.451  16.966 -24.708  0.00  0.00     0.125 A 
ATOM      5  C   UNL d   1      31.249  16.191 -24.831  0.00  0.00     0.003 A 
ATOM      6  C   UNL d   1      32.032  16.319 -25.042  0.00  0.00     0.023 A 
ATOM      7  N   UNL d   1      33.241  17.100 -24.918  0.00  0.00    -0.146 N 
ENDROOT
BRANCH   3   8
ATOM      8  C   UNL d   1      30.087  16.558 -24.086  0.00  0.00     0.103 A 
ATOM      9  N   UNL d   1      29.479  17.030 -24.391  0.00  0.00    -0.145 NA
ATOM     10  N   UNL d   1      28.696  16.901 -24.180  0.00  0.00    -0.106 NA
ATOM     11  C   UNL d   1      28.510  16.291 -23.654  0.00  0.00     0.297 A 
ATOM     12  C   UNL d   1      29.117  15.813 -23.344  0.00  0.00     0.066 A 
ATOM     13  O   UNL d   1      27.726  16.157 -23.437  0.00  0.00    -0.264 OA
ATOM     14  C   UNL d   1      29.902  15.948 -23.561  0.00  0.00     0.024 A 
ATOM     15  C   UNL d   1      30.504  15.471 -23.251  0.00  0.00     0.002 C 
ENDBRANCH   3   8
BRANCH   1  16
ATOM     16  N   UNL d   1      32.488  18.105 -23.842  0.00  0.00    -0.112 N 
ATOM     17  O   UNL d   1      32.524  18.825 -24.243  0.00  0.00    -0.532 OA
ATOM     18  O   UNL d   1      32.863  18.021 -23.112  0.00  0.00    -0.532 OA
ENDBRANCH   1  16
TORSDOF 2
ENDMDL
MODEL 2
REMARK VINA RESULT:      -2.7      1.016      3.480
REMARK  2 active torsions:
REMARK  status: ('A' for Active; 'I' for Inactive)
REMARK    1  A    between atoms: C_2  and  N_1 
REMARK    2  A    between atoms: C_4  and  C_7 
ROOT
ATOM      1  C   UNL d   1      29.143  16.481 -24.022  0.00  0.00     0.146 A 
ATOM      2  C   UNL d   1      29.827  16.928 -23.909  0.00  0.00     0.027 A 
ATOM      3  C   UNL d   1      30.501  16.795 -24.393  0.00  0.00     0.021 A 
ATOM      4  C   UNL d   1      29.122  15.904 -24.611  0.00  0.00     0.125 A 
ATOM      5  C   UNL d   1      30.473  16.219 -24.977  0.00  0.00     0.003 A 
ATOM      6  C   UNL d   1      29.796  15.771 -25.094  0.00  0.00     0.023 A 
ATOM      7  N   UNL d   1      28.436  15.454 -24.726  0.00  0.00    -0.146 N 
ENDROOT
BRANCH   3   8
ATOM      8  C   UNL d   1      31.178  17.244 -24.275  0.00  0.00     0.103 A 
ATOM      9  N   UNL d   1      31.262  17.992 -24.619  0.00  0.00    -0.145 NA
ATOM     10  N   UNL d   1      31.939  18.440 -24.501  0.00  0.00    -0.106 NA
ATOM     11  C   UNL d   1      32.550  18.141 -24.032  0.00  0.00     0.297 A 
ATOM     12  C   UNL d   1      32.473  17.389 -23.683  0.00  0.00     0.066 A 
ATOM     13  O   UNL d   1      33.234  18.586 -23.909  0.00  0.00    -0.264 OA
ATOM     14  C   UNL d   1      31.789  16.944 -23.806  0.00  0.00     0.024 A 
ATOM     15  C   UNL d   1      31.714  16.196 -23.458  0.00  0.00     0.002 C 
ENDBRANCH   3   8
BRANCH   1  16
ATOM     16  N   UNL d   1      28.480  16.612 -23.546  0.00  0.00    -0.112 N 
ATOM     17  O   UNL d   1      28.007  17.276 -23.669  0.00  0.00    -0.532 OA
ATOM     18  O   UNL d   1      28.290  16.078 -22.947  0.00  0.00    -0.532 OA
ENDBRANCH   1  16
TORSDOF 2
ENDMDL
MODEL 3
REMARK VINA RESULT:      -2.5      1.920      3.784
REMARK  2 active torsions:
REMARK  status: ('A' for Active; 'I' for Inactive)
REMARK    1  A    between atoms: C_2  and  N_1 
REMARK    2  A    between atoms: C_4  and  C_7 
ROOT
ATOM      1  C   UNL d   1      31.645  16.686 -24.151  0.00  0.00     0.146 A 
ATOM      2  C   UNL d   1      31.810  17.421 -23.814  0.00  0.00     0.027 A 
ATOM      3  C   UNL d   1      32.604  17.687 -23.753  0.00  0.00     0.021 A 
ATOM      4  C   UNL d   1      32.261  16.213 -24.428  0.00  0.00     0.125 A 
ATOM      5  C   UNL d   1      33.213  17.211 -24.030  0.00  0.00     0.003 A 
ATOM      6  C   UNL d   1      33.056  16.479 -24.367  0.00  0.00     0.023 A 
ATOM      7  N   UNL d   1      32.098  15.475 -24.767  0.00  0.00    -0.146 N 
ENDROOT
BRANCH   3   8
ATOM      8  C   UNL d   1      32.761  18.419 -23.417  0.00  0.00     0.103 A 
ATOM      9  N   UNL d   1      32.765  18.521 -22.595  0.00  0.00    -0.145 NA
ATOM     10  N   UNL d   1      32.922  19.253 -22.259  0.00  0.00    -0.106 NA
ATOM     11  C   UNL d   1      33.079  19.900 -22.747  0.00  0.00     0.297 A 
ATOM     12  C   UNL d   1      33.078  19.806 -23.574  0.00  0.00     0.066 A 
ATOM     13  O   UNL d   1      33.238  20.640 -22.416  0.00  0.00    -0.264 OA
ATOM     14  C   UNL d   1      32.919  19.066 -23.905  0.00  0.00     0.024 A 
ATOM     15  C   UNL d   1      32.917  18.974 -24.728  0.00  0.00     0.002 C 
ENDBRANCH   3   8
BRANCH   1  16
ATOM     16  N   UNL d   1      30.863  16.424 -24.211  0.00  0.00    -0.112 N 
ATOM     17  O   UNL d   1      30.488  16.089 -23.558  0.00  0.00    -0.532 OA
ATOM     18  O   UNL d   1      30.456  16.499 -24.925  0.00  0.00    -0.532 OA
ENDBRANCH   1  16
TORSDOF 2
ENDMDL
MODEL 4
REMARK VINA RESULT:      -2.1      2.798      4.013
REMARK  2 active torsions:
REMARK  status: ('A' for Active; 'I' for Inactive)
REMARK    1  A    between atoms: C_2  and  N_1 
REMARK    2  A    between atoms: C_4  and  C_7 
ROOT
ATOM      1  C   UNL d   1      32.814  20.331 -22.111  0.00  0.00     0.146 A 
ATOM      2  C   UNL d   1      32.742  19.518 -22.228  0.00  0.00     0.027 A 
ATOM      3  C   UNL d   1      32.920  19.183 -22.977  0.00  0.00     0.021 A 
ATOM      4  C   UNL d   1      33.062  20.815 -22.731  0.00  0.00     0.125 A 
ATOM      5  C   UNL d   1      33.167  19.670 -23.590  0.00  0.00     0.003 A 
ATOM      6  C   UNL d   1      33.241  20.480 -23.480  0.00  0.00     0.023 A 
ATOM      7  N   UNL d   1      33.135  21.632 -22.616  0.00  0.00    -0.146 N 
ENDROOT
BRANCH   3   8
ATOM      8  C   UNL d   1      32.846  18.373 -23.087  0.00  0.00     0.103 A 
ATOM      9  N   UNL d   1      33.241  17.836 -22.595  0.00  0.00    -0.145 NA
ATOM     10  N   UNL d   1      33.167  17.026 -22.704  0.00  0.00    -0.106 NA
ATOM     11  C   UNL d   1      32.691  16.739 -23.315  0.00  0.00     0.297 A 
ATOM     12  C   UNL d   1      32.291  17.273 -23.814  0.00  0.00     0.066 A 
ATOM     13  O   UNL d   1      32.612  15.926 -23.432  0.00  0.00    -0.264 OA
ATOM     14  C   UNL d   1      32.370  18.086 -23.698  0.00  0.00     0.024 A 
ATOM     15  C   UNL d   1      31.972  18.616 -24.195  0.00  0.00     0.002 C 
ENDBRANCH   3   8
BRANCH   1  16
ATOM     16  N   UNL d   1      32.638  20.661 -21.373  0.00  0.00    -0.112 N 
ATOM     17  O   UNL d   1      33.241  20.795 -20.826  0.00  0.00    -0.532 OA
ATOM     18  O   UNL d   1      31.859  20.856 -21.183  0.00  0.00    -0.532 OA
ENDBRANCH   1  16
TORSDOF 2
ENDMDL
MODEL 5
REMARK VINA RESULT:      -1.6      1.339      1.941
REMARK  2 active torsions:
REMARK  status: ('A' for Active; 'I' for Inactive)
REMARK    1  A    between atoms: C_2  and  N_1 
REMARK    2  A    between atoms: C_4  and  C_7 
ROOT
ATOM      1  C   UNL d   1      32.494  18.966 -23.657  0.00  0.00     0.146 A 
ATOM      2  C   UNL d   1      31.975  18.325 -23.664  0.00  0.00     0.027 A 
ATOM      3  C   UNL d   1      31.677  18.034 -24.394  0.00  0.00     0.021 A 
ATOM      4  C   UNL d   1      32.720  19.321 -24.367  0.00  0.00     0.125 A 
ATOM      5  C   UNL d   1      31.905  18.391 -25.096  0.00  0.00     0.003 A 
ATOM      6  C   UNL d   1      32.422  19.029 -25.096  0.00  0.00     0.023 A 
ATOM      7  N   UNL d   1      33.241  19.965 -24.362  0.00  0.00    -0.146 N 
ENDROOT
BRANCH   3   8
ATOM      8  C   UNL d   1      31.161  17.395 -24.394  0.00  0.00     0.103 A 
ATOM      9  N   UNL d   1      30.346  17.504 -24.297  0.00  0.00    -0.145 NA
ATOM     10  N   UNL d   1      29.830  16.865 -24.297  0.00  0.00    -0.106 NA
ATOM     11  C   UNL d   1      30.127  16.101 -24.396  0.00  0.00     0.297 A 
ATOM     12  C   UNL d   1      30.945  15.984 -24.494  0.00  0.00     0.066 A 
ATOM     13  O   UNL d   1      29.614  15.454 -24.397  0.00  0.00    -0.264 OA
ATOM     14  C   UNL d   1      31.458  16.631 -24.493  0.00  0.00     0.024 A 
ATOM     15  C   UNL d   1      32.273  16.513 -24.591  0.00  0.00     0.002 C 
ENDBRANCH   3   8
BRANCH   1  16
ATOM     16  N   UNL d   1      32.788  19.253 -22.939  0.00  0.00    -0.112 N 
ATOM     17  O   UNL d   1      32.651  20.037 -22.721  0.00  0.00    -0.532 OA
ATOM     18  O   UNL d   1      33.219  18.756 -22.441  0.00  0.00    -0.532 OA
ENDBRANCH   1  16
TORSDOF 2
ENDMDL
MODEL 6
REMARK VINA RESULT:      -1.4      4.303      5.730
REMARK  2 active torsions:
REMARK  status: ('A' for Active; 'I' for Inactive)
REMARK    1  A    between atoms: C_2  and  N_1 
REMARK    2  A    between atoms: C_4  and  C_7 
ROOT
ATOM      1  C   UNL d   1      32.755  22.204 -21.291  0.00  0.00     0.146 A 
ATOM      2  C   UNL d   1      32.804  21.748 -21.976  0.00  0.00     0.027 A 
ATOM      3  C   UNL d   1      33.050  20.946 -21.932  0.00  0.00     0.021 A 
ATOM      4  C   UNL d   1      32.948  21.870 -20.561  0.00  0.00     0.125 A 
ATOM      5  C   UNL d   1      33.240  20.621 -21.203  0.00  0.00     0.003 A 
ATOM      6  C   UNL d   1      33.194  21.068 -20.517  0.00  0.00     0.023 A 
ATOM      7  N   UNL d   1      32.900  22.326 -19.871  0.00  0.00    -0.146 N 
ENDROOT
BRANCH   3   8
ATOM      8  C   UNL d   1      33.096  20.498 -22.619  0.00  0.00     0.103 A 
ATOM      9  N   UNL d   1      33.194  20.857 -23.358  0.00  0.00    -0.145 NA
ATOM     10  N   UNL d   1      33.241  20.409 -24.045  0.00  0.00    -0.106 NA
ATOM     11  C   UNL d   1      33.189  19.586 -23.998  0.00  0.00     0.297 A 
ATOM     12  C   UNL d   1      33.090  19.218 -23.258  0.00  0.00     0.066 A 
ATOM     13  O   UNL d   1      33.234  19.129 -24.684  0.00  0.00    -0.264 OA
ATOM     14  C   UNL d   1      33.044  19.675 -22.573  0.00  0.00     0.024 A 
ATOM     15  C   UNL d   1      32.945  19.307 -21.836  0.00  0.00     0.002 C 
ENDBRANCH   3   8
BRANCH   1  16
ATOM     16  N   UNL d   1      32.513  22.993 -21.334  0.00  0.00    -0.112 N 
ATOM     17  O   UNL d   1      33.071  23.591 -21.438  0.00  0.00    -0.532 OA
ATOM     18  O   UNL d   1      31.712  23.183 -21.273  0.00  0.00    -0.532 OA
ENDBRANCH   1  16
TORSDOF 2
ENDMDL
MODEL 7
REMARK VINA RESULT:      -0.9      6.272      7.483
REMARK  2 active torsions:
REMARK  status: ('A' for Active; 'I' for Inactive)
REMARK    1  A    between atoms: C_2  and  N_1 
REMARK    2  A    between atoms: C_4  and  C_7 
ROOT
ATOM      1  C   UNL d   1      32.657  21.761 -21.687  0.00  0.00     0.146 A 
ATOM      2  C   UNL d   1      32.566  21.994 -20.901  0.00  0.00     0.027 A 
ATOM      3  C   UNL d   1      32.791  22.768 -20.664  0.00  0.00     0.021 A 
ATOM      4  C   UNL d   1      32.968  22.288 -22.240  0.00  0.00     0.125 A 
ATOM      5  C   UNL d   1      33.100  23.288 -21.218  0.00  0.00     0.003 A 
ATOM      6  C   UNL d   1      33.193  23.062 -22.002  0.00  0.00     0.023 A 
ATOM      7  N   UNL d   1      33.060  22.056 -23.029  0.00  0.00    -0.146 N 
ENDROOT
BRANCH   3   8
ATOM      8  C   UNL d   1      32.699  22.994 -19.880  0.00  0.00     0.103 A 
ATOM      9  N   UNL d   1      33.241  22.759 -19.300  0.00  0.00    -0.145 NA
ATOM     10  N   UNL d   1      33.148  22.985 -18.516  0.00  0.00    -0.106 NA
ATOM     11  C   UNL d   1      32.503  23.454 -18.301  0.00  0.00     0.297 A 
ATOM     12  C   UNL d   1      31.954  23.694 -18.878  0.00  0.00     0.066 A 
ATOM     13  O   UNL d   1      32.404  23.685 -17.515  0.00  0.00    -0.264 OA
ATOM     14  C   UNL d   1      32.054  23.463 -19.664  0.00  0.00     0.024 A 
ATOM     15  C   UNL d   1      31.506  23.702 -20.238  0.00  0.00     0.002 C 
ENDBRANCH   3   8
BRANCH   1  16
ATOM     16  N   UNL d   1      32.436  20.999 -21.921  0.00  0.00    -0.112 N 
ATOM     17  O   UNL d   1      31.651  20.755 -21.845  0.00  0.00    -0.532 OA
ATOM     18  O   UNL d   1      32.999  20.482 -22.231  0.00  0.00    -0.532 OA
ENDBRANCH   1  16
TORSDOF 2
ENDMDL
