MODEL 1
REMARK VINA RESULT:      71.4      0.000      0.000
REMARK  3 active torsions:
REMARK  status: ('A' for Active; 'I' for Inactive)
REMARK    1  A    between atoms: C_8  and  S_1 
REMARK    2  A    between atoms: N_10  and  S_1 
REMARK    3  A    between atoms: C_17  and  N_10 
ROOT
ATOM      1  C   UNL d   1     -54.757-101.304 -40.682  0.00  0.00     0.043 A 
ATOM      2  C   UNL d   1     -54.776-102.040 -40.313  0.00  0.00     0.196 A 
ATOM      3  C   UNL d   1     -54.734-100.662 -39.406  0.00  0.00     0.196 A 
ATOM      4  C   UNL d   1     -54.737-100.615 -40.229  0.00  0.00     0.042 A 
ATOM      5  C   UNL d   1     -54.774-102.089 -39.489  0.00  0.00     0.042 A 
ATOM      6  C   UNL d   1     -54.753-101.401 -39.035  0.00  0.00     0.042 A 
ATOM      7  C   UNL d   1     -54.741-100.520 -41.872  0.00  0.00     0.105 A 
ATOM      8  C   UNL d   1     -54.759-101.256 -41.504  0.00  0.00     0.016 A 
ATOM      9  C   UNL d   1     -54.718 -99.879 -40.596  0.00  0.00     0.004 A 
ATOM     10  O   UNL d   1     -54.797-102.729 -40.767  0.00  0.00    -0.287 OA
ATOM     11  O   UNL d   1     -54.714 -99.973 -38.952  0.00  0.00    -0.287 OA
ATOM     12  C   UNL d   1     -54.720 -99.832 -41.419  0.00  0.00     0.013 A 
ATOM     13  C   UNL d   1     -54.793-102.825 -39.120  0.00  0.00     0.003 A 
ATOM     14  C   UNL d   1     -54.751-101.448 -38.212  0.00  0.00     0.003 A 
ATOM     15  C   UNL d   1     -54.770-102.189 -37.837  0.00  0.00     0.000 A 
ATOM     16  C   UNL d   1     -54.791-102.878 -38.291  0.00  0.00     0.000 A 
ENDROOT
BRANCH   7  17
ATOM     17  S   UNL d   1     -54.743-100.473 -42.710  0.00  0.00     0.285 S 
ATOM     18  O   UNL d   1     -54.714 -99.640 -42.665  0.00  0.00    -0.198 OA
ATOM     19  O   UNL d   1     -54.772-101.304 -42.748  0.00  0.00    -0.198 OA
BRANCH  17  20
ATOM     20  N   UNL d   1     -54.745-100.425 -43.540  0.00  0.00    -0.158 NA
BRANCH  20  21
ATOM     21  C   UNL d   1     -55.372-100.055 -43.932  0.00  0.00     0.094 A 
ATOM     22  C   UNL d   1     -55.394 -99.229 -43.978  0.00  0.00     0.020 A 
ATOM     23  C   UNL d   1     -56.023 -98.851 -44.372  0.00  0.00     0.002 A 
ATOM     24  C   UNL d   1     -56.627 -99.302 -44.717  0.00  0.00     0.000 A 
ATOM     25  C   UNL d   1     -56.599-100.138 -44.667  0.00  0.00     0.002 A 
ATOM     26  C   UNL d   1     -55.973-100.504 -44.276  0.00  0.00     0.020 A 
ENDBRANCH  20  21
ENDBRANCH  17  20
ENDBRANCH   7  17
TORSDOF 3
ENDMDL
