MODEL 1
REMARK VINA RESULT:      26.9      0.000      0.000
REMARK  4 active torsions:
REMARK  status: ('A' for Active; 'I' for Inactive)
REMARK    1  A    between atoms: C_6  and  N_1 
REMARK    2  A    between atoms: C_12  and  C_6 
REMARK    3  A    between atoms: O_18  and  C_7 
REMARK    4  A    between atoms: O_19  and  C_10 
ROOT
ATOM      1  N   UNL d   1      14.348  13.171  -1.649  0.00  0.00    -0.251 N 
ATOM      2  C   UNL d   1      14.730  12.428  -1.654  0.00  0.00     0.378 A 
ATOM      3  C   UNL d   1      14.751  13.661  -1.117  0.00  0.00     0.092 A 
ATOM      4  O   UNL d   1      15.367  12.463  -1.126  0.00  0.00    -0.258 OA
ATOM      5  C   UNL d   1      15.380  13.224  -0.794  0.00  0.00     0.121 A 
ATOM      6  O   UNL d   1      14.506  11.779  -2.108  0.00  0.00    -0.237 OA
ATOM      7  C   UNL d   1      14.624  14.440  -0.891  0.00  0.00     0.020 A 
ATOM      8  C   UNL d   1      15.880  13.583  -0.240  0.00  0.00     0.026 A 
ATOM      9  C   UNL d   1      15.128  14.788  -0.338  0.00  0.00     0.002 A 
ATOM     10  C   UNL d   1      15.753  14.362  -0.015  0.00  0.00     0.002 A 
ATOM     11  C   UNL d   1      14.995  15.575  -0.114  0.00  0.00     0.000 C 
ENDROOT
BRANCH   1  12
ATOM     12  C   UNL d   1      13.686  13.416  -2.078  0.00  0.00     0.085 C 
BRANCH  12  13
ATOM     13  C   UNL d   1      13.466  13.006  -2.760  0.00  0.00     0.020 A 
ATOM     14  C   UNL d   1      13.286  13.420  -3.440  0.00  0.00     0.028 A 
ATOM     15  C   UNL d   1      13.066  13.022  -4.122  0.00  0.00     0.116 A 
ATOM     16  C   UNL d   1      13.028  12.195  -4.115  0.00  0.00     0.116 A 
ATOM     17  C   UNL d   1      13.210  11.779  -3.430  0.00  0.00     0.026 A 
ATOM     18  C   UNL d   1      13.430  12.189  -2.748  0.00  0.00     0.004 A 
BRANCH  15  19
ATOM     19  O   UNL d   1      12.885  13.434  -4.804  0.00  0.00    -0.326 OA
ATOM     20  C   UNL d   1      12.789  14.216  -4.562  0.00  0.00     0.181 C 
ENDBRANCH  15  19
BRANCH  16  21
ATOM     21  O   UNL d   1      12.808  11.790  -4.797  0.00  0.00    -0.326 OA
ATOM     22  C   UNL d   1      13.281  11.830  -5.463  0.00  0.00     0.181 C 
ENDBRANCH  16  21
ENDBRANCH  12  13
ENDBRANCH   1  12
TORSDOF 4
ENDMDL
