MODEL 1
REMARK VINA RESULT:      -9.0      0.000      0.000
REMARK  3 active torsions:
REMARK  status: ('A' for Active; 'I' for Inactive)
REMARK    1  A    between atoms: C_2  and  S_1 
REMARK    2  A    between atoms: N_6  and  S_1 
REMARK    3  A    between atoms: N_3  and  C_5 
ROOT
ATOM      1  C   UNL d   1      52.980  33.100  53.643  0.00  0.00     0.106 A 
ATOM      2  C   UNL d   1      53.338  33.659  54.133  0.00  0.00     0.036 A 
ATOM      3  C   UNL d   1      54.010  33.455  54.567  0.00  0.00     0.127 A 
ATOM      4  C   UNL d   1      53.294  32.338  53.586  0.00  0.00     0.012 A 
ATOM      5  C   UNL d   1      54.323  32.692  54.510  0.00  0.00     0.024 A 
ATOM      6  C   UNL d   1      53.965  32.133  54.020  0.00  0.00     0.002 A 
ATOM      7  C   UNL d   1      52.932  31.773  53.091  0.00  0.00     0.001 C 
ENDROOT
BRANCH   1   8
ATOM      8  S   UNL d   1      52.300  33.301  53.201  0.00  0.00     0.272 S 
ATOM      9  O   UNL d   1      52.257  33.100  52.401  0.00  0.00    -0.200 OA
ATOM     10  O   UNL d   1      51.674  33.700  53.562  0.00  0.00    -0.200 OA
BRANCH   8  11
ATOM     11  N   UNL d   1      51.565  33.582  52.950  0.00  0.00    -0.226 N 
ATOM     12  C   UNL d   1      50.867  33.258  53.261  0.00  0.00     0.111 C 
ATOM     13  C   UNL d   1      51.529  34.187  52.388  0.00  0.00     0.111 C 
ENDBRANCH   8  11
ENDBRANCH   1   8
BRANCH   3  14
ATOM     14  N   UNL d   1      54.367  34.014  55.057  0.00  0.00    -0.114 N 
ATOM     15  O   UNL d   1      55.176  33.965  55.213  0.00  0.00    -0.532 OA
ATOM     16  O   UNL d   1      53.917  34.621  55.390  0.00  0.00    -0.532 OA
ENDBRANCH   3  14
TORSDOF 3
ENDMDL
MODEL 2
REMARK VINA RESULT:      -8.7      2.031      3.096
REMARK  3 active torsions:
REMARK  status: ('A' for Active; 'I' for Inactive)
REMARK    1  A    between atoms: C_2  and  S_1 
REMARK    2  A    between atoms: N_6  and  S_1 
REMARK    3  A    between atoms: N_3  and  C_5 
ROOT
ATOM      1  C   UNL d   1      53.409  32.176  53.701  0.00  0.00     0.106 A 
ATOM      2  C   UNL d   1      53.624  31.399  53.877  0.00  0.00     0.036 A 
ATOM      3  C   UNL d   1      53.255  30.773  53.485  0.00  0.00     0.127 A 
ATOM      4  C   UNL d   1      52.827  32.327  53.134  0.00  0.00     0.012 A 
ATOM      5  C   UNL d   1      52.674  30.924  52.918  0.00  0.00     0.024 A 
ATOM      6  C   UNL d   1      52.459  31.701  52.742  0.00  0.00     0.002 A 
ATOM      7  C   UNL d   1      52.610  33.113  52.957  0.00  0.00     0.001 C 
ENDROOT
BRANCH   1   8
ATOM      8  S   UNL d   1      53.779  32.814  54.095  0.00  0.00     0.272 S 
ATOM      9  O   UNL d   1      54.177  33.390  53.657  0.00  0.00    -0.200 OA
ATOM     10  O   UNL d   1      53.747  32.868  54.918  0.00  0.00    -0.200 OA
BRANCH   8  11
ATOM     11  N   UNL d   1      54.069  33.346  54.656  0.00  0.00    -0.226 N 
ATOM     12  C   UNL d   1      53.560  33.900  55.006  0.00  0.00     0.111 C 
ATOM     13  C   UNL d   1      54.868  33.323  54.866  0.00  0.00     0.111 C 
ENDBRANCH   8  11
ENDBRANCH   1   8
BRANCH   3  14
ATOM     14  N   UNL d   1      53.470  29.996  53.661  0.00  0.00    -0.114 N 
ATOM     15  O   UNL d   1      54.243  29.742  53.519  0.00  0.00    -0.532 OA
ATOM     16  O   UNL d   1      52.914  29.474  53.977  0.00  0.00    -0.532 OA
ENDBRANCH   3  14
TORSDOF 3
ENDMDL
MODEL 3
REMARK VINA RESULT:      -8.7      1.456      2.537
REMARK  3 active torsions:
REMARK  status: ('A' for Active; 'I' for Inactive)
REMARK    1  A    between atoms: C_2  and  S_1 
REMARK    2  A    between atoms: N_6  and  S_1 
REMARK    3  A    between atoms: N_3  and  C_5 
ROOT
ATOM      1  C   UNL d   1      52.763  32.629  53.409  0.00  0.00     0.106 A 
ATOM      2  C   UNL d   1      52.572  31.884  53.109  0.00  0.00     0.036 A 
ATOM      3  C   UNL d   1      53.093  31.253  53.217  0.00  0.00     0.127 A 
ATOM      4  C   UNL d   1      53.473  32.742  53.816  0.00  0.00     0.012 A 
ATOM      5  C   UNL d   1      53.803  31.366  53.624  0.00  0.00     0.024 A 
ATOM      6  C   UNL d   1      53.993  32.111  53.924  0.00  0.00     0.002 A 
ATOM      7  C   UNL d   1      53.665  33.495  54.119  0.00  0.00     0.001 C 
ENDROOT
BRANCH   1   8
ATOM      8  S   UNL d   1      52.239  33.272  53.303  0.00  0.00     0.272 S 
ATOM      9  O   UNL d   1      52.031  33.741  53.950  0.00  0.00    -0.200 OA
ATOM     10  O   UNL d   1      51.931  33.437  52.555  0.00  0.00    -0.200 OA
BRANCH   8  11
ATOM     11  N   UNL d   1      51.725  33.840  52.996  0.00  0.00    -0.226 N 
ATOM     12  C   UNL d   1      52.024  34.487  52.572  0.00  0.00     0.111 C 
ATOM     13  C   UNL d   1      50.910  33.761  53.115  0.00  0.00     0.111 C 
ENDBRANCH   8  11
ENDBRANCH   1   8
BRANCH   3  14
ATOM     14  N   UNL d   1      52.902  30.508  52.916  0.00  0.00    -0.114 N 
ATOM     15  O   UNL d   1      52.970  30.363  52.107  0.00  0.00    -0.532 OA
ATOM     16  O   UNL d   1      52.645  29.910  53.425  0.00  0.00    -0.532 OA
ENDBRANCH   3  14
TORSDOF 3
ENDMDL
MODEL 4
REMARK VINA RESULT:      -8.5      1.095      2.918
REMARK  3 active torsions:
REMARK  status: ('A' for Active; 'I' for Inactive)
REMARK    1  A    between atoms: C_2  and  S_1 
REMARK    2  A    between atoms: N_6  and  S_1 
REMARK    3  A    between atoms: N_3  and  C_5 
ROOT
ATOM      1  C   UNL d   1      53.338  32.809  53.757  0.00  0.00     0.106 A 
ATOM      2  C   UNL d   1      52.773  33.385  53.585  0.00  0.00     0.036 A 
ATOM      3  C   UNL d   1      52.136  33.200  53.093  0.00  0.00     0.127 A 
ATOM      4  C   UNL d   1      53.267  32.050  53.438  0.00  0.00     0.012 A 
ATOM      5  C   UNL d   1      52.065  32.441  52.774  0.00  0.00     0.024 A 
ATOM      6  C   UNL d   1      52.631  31.865  52.946  0.00  0.00     0.002 A 
ATOM      7  C   UNL d   1      53.839  31.468  53.613  0.00  0.00     0.001 C 
ENDROOT
BRANCH   1   8
ATOM      8  S   UNL d   1      53.985  32.990  54.255  0.00  0.00     0.272 S 
ATOM      9  O   UNL d   1      54.754  32.823  54.003  0.00  0.00    -0.200 OA
ATOM     10  O   UNL d   1      53.856  33.335  54.993  0.00  0.00    -0.200 OA
BRANCH   8  11
ATOM     11  N   UNL d   1      54.470  33.239  54.875  0.00  0.00    -0.226 N 
ATOM     12  C   UNL d   1      54.357  32.935  55.639  0.00  0.00     0.111 C 
ATOM     13  C   UNL d   1      55.068  33.791  54.730  0.00  0.00     0.111 C 
ENDBRANCH   8  11
ENDBRANCH   1   8
BRANCH   3  14
ATOM     14  N   UNL d   1      51.571  33.776  52.920  0.00  0.00    -0.114 N 
ATOM     15  O   UNL d   1      50.829  33.743  53.281  0.00  0.00    -0.532 OA
ATOM     16  O   UNL d   1      51.746  34.383  52.389  0.00  0.00    -0.532 OA
ENDBRANCH   3  14
TORSDOF 3
ENDMDL
MODEL 5
REMARK VINA RESULT:      -8.4      1.336      2.016
REMARK  3 active torsions:
REMARK  status: ('A' for Active; 'I' for Inactive)
REMARK    1  A    between atoms: C_2  and  S_1 
REMARK    2  A    between atoms: N_6  and  S_1 
REMARK    3  A    between atoms: N_3  and  C_5 
ROOT
ATOM      1  C   UNL d   1      53.323  32.636  53.742  0.00  0.00     0.106 A 
ATOM      2  C   UNL d   1      53.941  32.716  54.283  0.00  0.00     0.036 A 
ATOM      3  C   UNL d   1      54.069  33.441  54.656  0.00  0.00     0.127 A 
ATOM      4  C   UNL d   1      52.834  33.280  53.574  0.00  0.00     0.012 A 
ATOM      5  C   UNL d   1      53.580  34.085  54.488  0.00  0.00     0.024 A 
ATOM      6  C   UNL d   1      52.962  34.006  53.947  0.00  0.00     0.002 A 
ATOM      7  C   UNL d   1      52.210  33.199  53.026  0.00  0.00     0.001 C 
ENDROOT
BRANCH   1   8
ATOM      8  S   UNL d   1      53.190  31.905  53.361  0.00  0.00     0.272 S 
ATOM      9  O   UNL d   1      53.017  31.889  52.553  0.00  0.00    -0.200 OA
ATOM     10  O   UNL d   1      53.230  31.200  53.789  0.00  0.00    -0.200 OA
BRANCH   8  11
ATOM     11  N   UNL d   1      53.093  31.105  53.179  0.00  0.00    -0.226 N 
ATOM     12  C   UNL d   1      52.334  30.770  53.163  0.00  0.00     0.111 C 
ATOM     13  C   UNL d   1      53.757  30.640  53.014  0.00  0.00     0.111 C 
ENDBRANCH   8  11
ENDBRANCH   1   8
BRANCH   3  14
ATOM     14  N   UNL d   1      54.687  33.521  55.197  0.00  0.00    -0.114 N 
ATOM     15  O   UNL d   1      54.656  33.116  55.916  0.00  0.00    -0.532 OA
ATOM     16  O   UNL d   1      55.333  34.003  55.020  0.00  0.00    -0.532 OA
ENDBRANCH   3  14
TORSDOF 3
ENDMDL
MODEL 6
REMARK VINA RESULT:      -8.2      1.772      2.960
REMARK  3 active torsions:
REMARK  status: ('A' for Active; 'I' for Inactive)
REMARK    1  A    between atoms: C_2  and  S_1 
REMARK    2  A    between atoms: N_6  and  S_1 
REMARK    3  A    between atoms: N_3  and  C_5 
ROOT
ATOM      1  C   UNL d   1      52.834  32.689  53.288  0.00  0.00     0.106 A 
ATOM      2  C   UNL d   1      52.149  32.974  52.927  0.00  0.00     0.036 A 
ATOM      3  C   UNL d   1      52.002  33.786  52.908  0.00  0.00     0.127 A 
ATOM      4  C   UNL d   1      53.372  33.215  53.629  0.00  0.00     0.012 A 
ATOM      5  C   UNL d   1      52.540  34.312  53.250  0.00  0.00     0.024 A 
ATOM      6  C   UNL d   1      53.225  34.027  53.610  0.00  0.00     0.002 A 
ATOM      7  C   UNL d   1      54.065  32.927  53.994  0.00  0.00     0.001 C 
ENDROOT
BRANCH   1   8
ATOM      8  S   UNL d   1      52.988  31.868  53.310  0.00  0.00     0.272 S 
ATOM      9  O   UNL d   1      53.278  31.524  54.003  0.00  0.00    -0.200 OA
ATOM     10  O   UNL d   1      52.850  31.402  52.643  0.00  0.00    -0.200 OA
BRANCH   8  11
ATOM     11  N   UNL d   1      53.072  31.066  53.131  0.00  0.00    -0.226 N 
ATOM     12  C   UNL d   1      53.807  30.769  52.886  0.00  0.00     0.111 C 
ATOM     13  C   UNL d   1      52.420  30.562  53.197  0.00  0.00     0.111 C 
ENDBRANCH   8  11
ENDBRANCH   1   8
BRANCH   3  14
ATOM     14  N   UNL d   1      51.317  34.071  52.548  0.00  0.00    -0.114 N 
ATOM     15  O   UNL d   1      51.327  34.269  51.747  0.00  0.00    -0.532 OA
ATOM     16  O   UNL d   1      50.622  34.156  52.987  0.00  0.00    -0.532 OA
ENDBRANCH   3  14
TORSDOF 3
ENDMDL
