MODEL 1
REMARK VINA RESULT:      -4.8      0.000      0.000
REMARK  4 active torsions:
REMARK  status: ('A' for Active; 'I' for Inactive)
REMARK       I    between atoms: C_2  and  N_1 
REMARK       I    between atoms: C_3  and  N_1 
REMARK    1  A    between atoms: C_4  and  C_2 
REMARK       I    between atoms: N_7  and  C_3 
REMARK    2  A    between atoms: C_15  and  N_7 
REMARK    3  A    between atoms: N_11  and  C_16 
REMARK    4  A    between atoms: C_16  and  C_15 
ROOT
ATOM      1  N   UNL d   1      57.053  -0.199  31.617  0.00  0.00    -0.152 NA
ATOM      2  C   UNL d   1      56.644  -0.675  32.157  0.00  0.00     0.283 C 
ATOM      3  C   UNL d   1      57.436  -0.540  30.968  0.00  0.00     0.371 C 
ATOM      4  O   UNL d   1      56.618  -1.497  32.048  0.00  0.00    -0.265 OA
ATOM      5  O   UNL d   1      57.416  -1.353  30.851  0.00  0.00    -0.242 OA
ATOM      6  N   UNL d   1      57.847  -0.061  30.425  0.00  0.00    -0.188 NA
ENDROOT
BRANCH   2   7
ATOM      7  C   UNL d   1      56.261  -0.337  32.804  0.00  0.00     0.058 A 
ATOM      8  C   UNL d   1      55.489  -0.572  32.994  0.00  0.00     0.006 A 
ATOM      9  C   UNL d   1      55.101  -0.240  33.638  0.00  0.00     0.012 A 
ATOM     10  C   UNL d   1      55.483   0.336  34.102  0.00  0.00     0.058 A 
ATOM     11  C   UNL d   1      56.262   0.569  33.905  0.00  0.00     0.012 A 
ATOM     12 CL   UNL d   1      55.109   0.682  34.753  0.00  0.00    -0.082 Cl
ATOM     13  C   UNL d   1      56.646   0.230  33.256  0.00  0.00     0.006 A 
ENDBRANCH   2   7
BRANCH   6  14
ATOM     14  C   UNL d   1      58.155  -0.566  29.862  0.00  0.00     0.123 C 
BRANCH  14  15
ATOM     15  C   UNL d   1      58.593  -0.265  29.235  0.00  0.00     0.101 C 
BRANCH  15  16
ATOM     16  N   UNL d   1      59.121  -0.746  28.834  0.00  0.00    -0.299 N 
ATOM     17  C   UNL d   1      59.897  -0.507  28.743  0.00  0.00     0.100 C 
ATOM     18  C   UNL d   1      59.070  -1.478  28.464  0.00  0.00     0.100 C 
ENDBRANCH  15  16
ENDBRANCH  14  15
ENDBRANCH   6  14
TORSDOF 4
ENDMDL
MODEL 2
REMARK VINA RESULT:      -4.2      1.171      1.608
REMARK  4 active torsions:
REMARK  status: ('A' for Active; 'I' for Inactive)
REMARK       I    between atoms: C_2  and  N_1 
REMARK       I    between atoms: C_3  and  N_1 
REMARK    1  A    between atoms: C_4  and  C_2 
REMARK       I    between atoms: N_7  and  C_3 
REMARK    2  A    between atoms: C_15  and  N_7 
REMARK    3  A    between atoms: N_11  and  C_16 
REMARK    4  A    between atoms: C_16  and  C_15 
ROOT
ATOM      1  N   UNL d   1      57.875  -0.218  30.812  0.00  0.00    -0.152 NA
ATOM      2  C   UNL d   1      57.155   0.166  30.958  0.00  0.00     0.283 C 
ATOM      3  C   UNL d   1      58.280  -0.089  30.103  0.00  0.00     0.371 C 
ATOM      4  O   UNL d   1      56.840   0.682  30.390  0.00  0.00    -0.265 OA
ATOM      5  O   UNL d   1      57.975   0.419  29.535  0.00  0.00    -0.242 OA
ATOM      6  N   UNL d   1      59.003  -0.476  29.957  0.00  0.00    -0.188 NA
ENDROOT
BRANCH   2   7
ATOM      7  C   UNL d   1      56.751   0.039  31.664  0.00  0.00     0.058 A 
ATOM      8  C   UNL d   1      56.598  -0.736  31.917  0.00  0.00     0.006 A 
ATOM      9  C   UNL d   1      56.196  -0.872  32.620  0.00  0.00     0.012 A 
ATOM     10  C   UNL d   1      55.938  -0.228  33.083  0.00  0.00     0.058 A 
ATOM     11  C   UNL d   1      56.094   0.550  32.823  0.00  0.00     0.012 A 
ATOM     12 CL   UNL d   1      55.531  -0.344  33.793  0.00  0.00    -0.082 Cl
ATOM     13  C   UNL d   1      56.501   0.679  32.113  0.00  0.00     0.006 A 
ENDBRANCH   2   7
BRANCH   6  14
ATOM     14  C   UNL d   1      59.249  -0.229  29.220  0.00  0.00     0.123 C 
BRANCH  14  15
ATOM     15  C   UNL d   1      59.741  -0.709  28.768  0.00  0.00     0.101 C 
BRANCH  15  16
ATOM     16  N   UNL d   1      60.517  -0.485  28.628  0.00  0.00    -0.299 N 
ATOM     17  C   UNL d   1      61.110  -1.048  28.649  0.00  0.00     0.100 C 
ATOM     18  C   UNL d   1      60.892   0.225  28.455  0.00  0.00     0.100 C 
ENDBRANCH  15  16
ENDBRANCH  14  15
ENDBRANCH   6  14
TORSDOF 4
ENDMDL
MODEL 3
REMARK VINA RESULT:      -2.3      9.481      9.637
REMARK  4 active torsions:
REMARK  status: ('A' for Active; 'I' for Inactive)
REMARK       I    between atoms: C_2  and  N_1 
REMARK       I    between atoms: C_3  and  N_1 
REMARK    1  A    between atoms: C_4  and  C_2 
REMARK       I    between atoms: N_7  and  C_3 
REMARK    2  A    between atoms: C_15  and  N_7 
REMARK    3  A    between atoms: N_11  and  C_16 
REMARK    4  A    between atoms: C_16  and  C_15 
ROOT
ATOM      1  N   UNL d   1      59.006  -9.529  32.561  0.00  0.00    -0.152 NA
ATOM      2  C   UNL d   1      59.752  -9.528  32.920  0.00  0.00     0.283 C 
ATOM      3  C   UNL d   1      58.934  -9.667  31.748  0.00  0.00     0.371 C 
ATOM      4  O   UNL d   1      60.431  -9.666  32.463  0.00  0.00    -0.265 OA
ATOM      5  O   UNL d   1      59.600  -9.804  31.288  0.00  0.00    -0.242 OA
ATOM      6  N   UNL d   1      58.183  -9.667  31.389  0.00  0.00    -0.188 NA
ENDROOT
BRANCH   2   7
ATOM      7  C   UNL d   1      59.825  -9.392  33.729  0.00  0.00     0.058 A 
ATOM      8  C   UNL d   1      59.332  -9.794  34.260  0.00  0.00     0.006 A 
ATOM      9  C   UNL d   1      59.398  -9.664  35.069  0.00  0.00     0.012 A 
ATOM     10  C   UNL d   1      59.964  -9.125  35.358  0.00  0.00     0.058 A 
ATOM     11  C   UNL d   1      60.459  -8.722  34.818  0.00  0.00     0.012 A 
ATOM     12 CL   UNL d   1      60.046  -8.980  36.168  0.00  0.00    -0.082 Cl
ATOM     13  C   UNL d   1      60.386  -8.859  34.005  0.00  0.00     0.006 A 
ENDBRANCH   2   7
BRANCH   6  14
ATOM     14  C   UNL d   1      58.310  -9.818  30.597  0.00  0.00     0.123 C 
BRANCH  14  15
ATOM     15  C   UNL d   1      57.682  -9.786  30.066  0.00  0.00     0.101 C 
BRANCH  15  16
ATOM     16  N   UNL d   1      57.824  -9.668  29.268  0.00  0.00    -0.299 N 
ATOM     17  C   UNL d   1      57.236  -9.356  28.794  0.00  0.00     0.100 C 
ATOM     18  C   UNL d   1      58.466  -9.794  28.770  0.00  0.00     0.100 C 
ENDBRANCH  15  16
ENDBRANCH  14  15
ENDBRANCH   6  14
TORSDOF 4
ENDMDL
MODEL 4
REMARK VINA RESULT:      -2.2      2.277      5.008
REMARK  4 active torsions:
REMARK  status: ('A' for Active; 'I' for Inactive)
REMARK       I    between atoms: C_2  and  N_1 
REMARK       I    between atoms: C_3  and  N_1 
REMARK    1  A    between atoms: C_4  and  C_2 
REMARK       I    between atoms: N_7  and  C_3 
REMARK    2  A    between atoms: C_15  and  N_7 
REMARK    3  A    between atoms: N_11  and  C_16 
REMARK    4  A    between atoms: C_16  and  C_15 
ROOT
ATOM      1  N   UNL d   1      57.743  -0.341  30.976  0.00  0.00    -0.152 NA
ATOM      2  C   UNL d   1      57.948   0.017  30.257  0.00  0.00     0.283 C 
ATOM      3  C   UNL d   1      57.115  -0.045  31.425  0.00  0.00     0.371 C 
ATOM      4  O   UNL d   1      57.520   0.675  29.987  0.00  0.00    -0.265 OA
ATOM      5  O   UNL d   1      56.686   0.605  31.166  0.00  0.00    -0.242 OA
ATOM      6  N   UNL d   1      56.911  -0.406  32.147  0.00  0.00    -0.188 NA
ENDROOT
BRANCH   2   7
ATOM      7  C   UNL d   1      58.573  -0.276  29.808  0.00  0.00     0.058 A 
ATOM      8  C   UNL d   1      59.277   0.159  29.752  0.00  0.00     0.006 A 
ATOM      9  C   UNL d   1      59.906  -0.126  29.306  0.00  0.00     0.012 A 
ATOM     10  C   UNL d   1      59.837  -0.856  28.908  0.00  0.00     0.058 A 
ATOM     11  C   UNL d   1      59.125  -1.289  28.969  0.00  0.00     0.012 A 
ATOM     12 CL   UNL d   1      60.459  -1.159  28.455  0.00  0.00    -0.082 Cl
ATOM     13  C   UNL d   1      58.496  -0.995  29.420  0.00  0.00     0.006 A 
ENDBRANCH   2   7
BRANCH   6  14
ATOM     14  C   UNL d   1      56.278   0.016  32.442  0.00  0.00     0.123 C 
BRANCH  14  15
ATOM     15  C   UNL d   1      55.835  -0.288  33.065  0.00  0.00     0.101 C 
BRANCH  15  16
ATOM     16  N   UNL d   1      55.558   0.211  33.653  0.00  0.00    -0.299 N 
ATOM     17  C   UNL d   1      54.752   0.311  33.751  0.00  0.00     0.100 C 
ATOM     18  C   UNL d   1      55.911   0.682  34.226  0.00  0.00     0.100 C 
ENDBRANCH  15  16
ENDBRANCH  14  15
ENDBRANCH   6  14
TORSDOF 4
ENDMDL
