MODEL 1
REMARK VINA RESULT:      -8.0      0.000      0.000
REMARK  3 active torsions:
REMARK  status: ('A' for Active; 'I' for Inactive)
REMARK    1  A    between atoms: C_15  and  N_5 
REMARK    2  A    between atoms: C_21  and  C_15 
REMARK    3  A    between atoms: O_20  and  C_21 
ROOT
ATOM      1  C   UNL d   1     -47.913  13.587  23.062  0.00  0.00     0.137 A 
ATOM      2  C   UNL d   1     -48.222  12.853  23.279  0.00  0.00     0.192 A 
ATOM      3  C   UNL d   1     -47.109  13.686  22.966  0.00  0.00     0.272 A 
ATOM      4  N   UNL d   1     -47.718  12.212  23.399  0.00  0.00    -0.204 NA
ATOM      5  N   UNL d   1     -46.593  13.037  23.088  0.00  0.00    -0.256 N 
ATOM      6  C   UNL d   1     -48.417  14.229  22.941  0.00  0.00     0.205 A 
ATOM      7  C   UNL d   1     -46.905  12.312  23.302  0.00  0.00     0.152 A 
ATOM      8  C   UNL d   1     -49.231  14.137  23.037  0.00  0.00     0.062 A 
ATOM      9  O   UNL d   1     -49.037  12.769  23.372  0.00  0.00    -0.289 OA
ATOM     10  C   UNL d   1     -49.540  13.403  23.253  0.00  0.00     0.105 A 
ATOM     11  O   UNL d   1     -46.799  14.420  22.750  0.00  0.00    -0.266 OA
ATOM     12  O   UNL d   1     -48.117  14.962  22.726  0.00  0.00    -0.286 OA
ATOM     13  C   UNL d   1     -49.730  14.779  22.915  0.00  0.00     0.012 A 
ATOM     14  C   UNL d   1     -50.350  13.311  23.348  0.00  0.00     0.025 A 
ATOM     15  C   UNL d   1     -50.550  14.687  23.011  0.00  0.00     0.035 A 
ATOM     16  C   UNL d   1     -46.400  11.675  23.421  0.00  0.00     0.041 C 
ATOM     17  C   UNL d   1     -50.855  13.953  23.227  0.00  0.00     0.009 A 
ATOM     18 BR   UNL d   1     -51.064  15.336  22.889  0.00  0.00    -0.049 Br
ENDROOT
BRANCH   5  19
ATOM     19  C   UNL d   1     -45.775  13.129  22.992  0.00  0.00     0.111 C 
BRANCH  19  20
ATOM     20  C   UNL d   1     -45.433  13.027  22.248  0.00  0.00     0.135 C 
BRANCH  20  21
ATOM     21  O   UNL d   1     -44.659  13.278  22.112  0.00  0.00    -0.325 OA
ATOM     22  C   UNL d   1     -44.208  12.921  21.520  0.00  0.00     0.182 C 
ENDBRANCH  20  21
ENDBRANCH  19  20
ENDBRANCH   5  19
TORSDOF 3
ENDMDL
MODEL 2
REMARK VINA RESULT:      -7.6      1.250      1.849
REMARK  3 active torsions:
REMARK  status: ('A' for Active; 'I' for Inactive)
REMARK    1  A    between atoms: C_15  and  N_5 
REMARK    2  A    between atoms: C_21  and  C_15 
REMARK    3  A    between atoms: O_20  and  C_21 
ROOT
ATOM      1  C   UNL d   1     -47.784  13.075  23.106  0.00  0.00     0.137 A 
ATOM      2  C   UNL d   1     -48.033  13.844  22.943  0.00  0.00     0.192 A 
ATOM      3  C   UNL d   1     -46.991  12.883  23.088  0.00  0.00     0.272 A 
ATOM      4  N   UNL d   1     -47.480  14.428  22.760  0.00  0.00    -0.204 NA
ATOM      5  N   UNL d   1     -46.426  13.473  22.902  0.00  0.00    -0.256 N 
ATOM      6  C   UNL d   1     -48.337  12.490  23.289  0.00  0.00     0.205 A 
ATOM      7  C   UNL d   1     -46.679  14.234  22.742  0.00  0.00     0.152 A 
ATOM      8  C   UNL d   1     -49.140  12.676  23.309  0.00  0.00     0.062 A 
ATOM      9  O   UNL d   1     -48.839  14.021  22.966  0.00  0.00    -0.289 OA
ATOM     10  C   UNL d   1     -49.390  13.445  23.147  0.00  0.00     0.105 A 
ATOM     11  O   UNL d   1     -46.741  12.113  23.250  0.00  0.00    -0.266 OA
ATOM     12  O   UNL d   1     -48.096  11.723  23.451  0.00  0.00    -0.286 OA
ATOM     13  C   UNL d   1     -49.689  12.090  23.492  0.00  0.00     0.012 A 
ATOM     14  C   UNL d   1     -50.189  13.629  23.167  0.00  0.00     0.025 A 
ATOM     15  C   UNL d   1     -50.497  12.277  23.513  0.00  0.00     0.035 A 
ATOM     16  C   UNL d   1     -46.125  14.813  22.560  0.00  0.00     0.041 C 
ATOM     17  C   UNL d   1     -50.743  13.045  23.350  0.00  0.00     0.009 A 
ATOM     18 BR   UNL d   1     -51.061  11.686  23.698  0.00  0.00    -0.049 Br
ENDROOT
BRANCH   5  19
ATOM     19  C   UNL d   1     -45.618  13.287  22.882  0.00  0.00     0.111 C 
BRANCH  19  20
ATOM     20  C   UNL d   1     -45.246  13.148  22.158  0.00  0.00     0.135 C 
BRANCH  20  21
ATOM     21  O   UNL d   1     -44.497  12.802  22.140  0.00  0.00    -0.325 OA
ATOM     22  C   UNL d   1     -44.024  12.878  21.469  0.00  0.00     0.182 C 
ENDBRANCH  20  21
ENDBRANCH  19  20
ENDBRANCH   5  19
TORSDOF 3
ENDMDL
MODEL 3
REMARK VINA RESULT:      -6.8      1.839      4.063
REMARK  3 active torsions:
REMARK  status: ('A' for Active; 'I' for Inactive)
REMARK    1  A    between atoms: C_15  and  N_5 
REMARK    2  A    between atoms: C_21  and  C_15 
REMARK    3  A    between atoms: O_20  and  C_21 
ROOT
ATOM      1  C   UNL d   1     -48.215  13.288  22.877  0.00  0.00     0.137 A 
ATOM      2  C   UNL d   1     -48.307  12.570  23.274  0.00  0.00     0.192 A 
ATOM      3  C   UNL d   1     -48.855  13.778  22.752  0.00  0.00     0.272 A 
ATOM      4  N   UNL d   1     -49.050  12.342  23.549  0.00  0.00    -0.204 NA
ATOM      5  N   UNL d   1     -49.612  13.550  23.031  0.00  0.00    -0.256 N 
ATOM      6  C   UNL d   1     -47.471  13.516  22.601  0.00  0.00     0.205 A 
ATOM      7  C   UNL d   1     -49.697  12.838  23.423  0.00  0.00     0.152 A 
ATOM      8  C   UNL d   1     -46.819  13.026  22.723  0.00  0.00     0.062 A 
ATOM      9  O   UNL d   1     -47.649  12.086  23.391  0.00  0.00    -0.289 OA
ATOM     10  C   UNL d   1     -46.911  12.308  23.120  0.00  0.00     0.105 A 
ATOM     11  O   UNL d   1     -48.763  14.496  22.355  0.00  0.00    -0.266 OA
ATOM     12  O   UNL d   1     -47.372  14.228  22.206  0.00  0.00    -0.286 OA
ATOM     13  C   UNL d   1     -46.079  13.257  22.447  0.00  0.00     0.012 A 
ATOM     14  C   UNL d   1     -46.262  11.821  23.241  0.00  0.00     0.025 A 
ATOM     15  C   UNL d   1     -45.423  12.764  22.569  0.00  0.00     0.035 A 
ATOM     16  C   UNL d   1     -50.439  12.614  23.696  0.00  0.00     0.041 C 
ATOM     17  C   UNL d   1     -45.518  12.049  22.965  0.00  0.00     0.009 A 
ATOM     18 BR   UNL d   1     -44.667  12.993  22.290  0.00  0.00    -0.049 Br
ENDROOT
BRANCH   5  19
ATOM     19  C   UNL d   1     -50.268  14.042  22.908  0.00  0.00     0.111 C 
BRANCH  19  20
ATOM     20  C   UNL d   1     -50.400  14.684  23.410  0.00  0.00     0.135 C 
BRANCH  20  21
ATOM     21  O   UNL d   1     -50.916  15.286  23.182  0.00  0.00    -0.325 OA
ATOM     22  C   UNL d   1     -51.060  15.920  23.690  0.00  0.00     0.182 C 
ENDBRANCH  20  21
ENDBRANCH  19  20
ENDBRANCH   5  19
TORSDOF 3
ENDMDL
MODEL 4
REMARK VINA RESULT:      -6.5      1.061      1.294
REMARK  3 active torsions:
REMARK  status: ('A' for Active; 'I' for Inactive)
REMARK    1  A    between atoms: C_15  and  N_5 
REMARK    2  A    between atoms: C_21  and  C_15 
REMARK    3  A    between atoms: O_20  and  C_21 
ROOT
ATOM      1  C   UNL d   1     -47.245  12.883  23.226  0.00  0.00     0.137 A 
ATOM      2  C   UNL d   1     -47.799  12.274  23.282  0.00  0.00     0.192 A 
ATOM      3  C   UNL d   1     -46.450  12.731  23.327  0.00  0.00     0.272 A 
ATOM      4  N   UNL d   1     -47.552  11.504  23.439  0.00  0.00    -0.204 NA
ATOM      5  N   UNL d   1     -46.195  11.949  23.487  0.00  0.00    -0.256 N 
ATOM      6  C   UNL d   1     -47.492  13.655  23.068  0.00  0.00     0.205 A 
ATOM      7  C   UNL d   1     -46.748  11.350  23.541  0.00  0.00     0.152 A 
ATOM      8  C   UNL d   1     -48.294  13.817  22.966  0.00  0.00     0.062 A 
ATOM      9  O   UNL d   1     -48.600  12.446  23.177  0.00  0.00    -0.289 OA
ATOM     10  C   UNL d   1     -48.849  13.209  23.021  0.00  0.00     0.105 A 
ATOM     11  O   UNL d   1     -45.896  13.340  23.271  0.00  0.00    -0.266 OA
ATOM     12  O   UNL d   1     -46.947  14.265  23.012  0.00  0.00    -0.286 OA
ATOM     13  C   UNL d   1     -48.537  14.588  22.808  0.00  0.00     0.012 A 
ATOM     14  C   UNL d   1     -49.646  13.370  22.919  0.00  0.00     0.025 A 
ATOM     15  C   UNL d   1     -49.344  14.751  22.705  0.00  0.00     0.035 A 
ATOM     16  C   UNL d   1     -46.499  10.583  23.698  0.00  0.00     0.041 C 
ATOM     17  C   UNL d   1     -49.894  14.142  22.761  0.00  0.00     0.009 A 
ATOM     18 BR   UNL d   1     -49.598  15.533  22.545  0.00  0.00    -0.049 Br
ENDROOT
BRANCH   5  19
ATOM     19  C   UNL d   1     -45.389  11.786  23.590  0.00  0.00     0.111 C 
BRANCH  19  20
ATOM     20  C   UNL d   1     -44.952  11.459  22.971  0.00  0.00     0.135 C 
BRANCH  20  21
ATOM     21  O   UNL d   1     -44.191  11.172  23.110  0.00  0.00    -0.325 OA
ATOM     22  C   UNL d   1     -43.569  11.399  22.618  0.00  0.00     0.182 C 
ENDBRANCH  20  21
ENDBRANCH  19  20
ENDBRANCH   5  19
TORSDOF 3
ENDMDL
MODEL 5
REMARK VINA RESULT:      -6.3      2.143      4.477
REMARK  3 active torsions:
REMARK  status: ('A' for Active; 'I' for Inactive)
REMARK    1  A    between atoms: C_15  and  N_5 
REMARK    2  A    between atoms: C_21  and  C_15 
REMARK    3  A    between atoms: O_20  and  C_21 
ROOT
ATOM      1  C   UNL d   1     -47.152  12.549  23.171  0.00  0.00     0.137 A 
ATOM      2  C   UNL d   1     -46.625  13.107  22.868  0.00  0.00     0.192 A 
ATOM      3  C   UNL d   1     -47.945  12.726  23.250  0.00  0.00     0.272 A 
ATOM      4  N   UNL d   1     -46.898  13.852  22.643  0.00  0.00    -0.204 NA
ATOM      5  N   UNL d   1     -48.225  13.482  23.022  0.00  0.00    -0.256 N 
ATOM      6  C   UNL d   1     -46.880  11.803  23.396  0.00  0.00     0.205 A 
ATOM      7  C   UNL d   1     -47.699  14.031  22.723  0.00  0.00     0.152 A 
ATOM      8  C   UNL d   1     -46.080  11.616  23.319  0.00  0.00     0.062 A 
ATOM      9  O   UNL d   1     -45.827  12.912  22.794  0.00  0.00    -0.289 OA
ATOM     10  C   UNL d   1     -45.554  12.174  23.016  0.00  0.00     0.105 A 
ATOM     11  O   UNL d   1     -48.471  12.167  23.553  0.00  0.00    -0.266 OA
ATOM     12  O   UNL d   1     -47.398  11.243  23.698  0.00  0.00    -0.286 OA
ATOM     13  C   UNL d   1     -45.813  10.871  23.545  0.00  0.00     0.012 A 
ATOM     14  C   UNL d   1     -44.759  11.988  22.940  0.00  0.00     0.025 A 
ATOM     15  C   UNL d   1     -45.008  10.683  23.467  0.00  0.00     0.035 A 
ATOM     16  C   UNL d   1     -47.973  14.773  22.499  0.00  0.00     0.041 C 
ATOM     17  C   UNL d   1     -44.486  11.242  23.165  0.00  0.00     0.009 A 
ATOM     18 BR   UNL d   1     -44.729   9.927  23.696  0.00  0.00    -0.049 Br
ENDROOT
BRANCH   5  19
ATOM     19  C   UNL d   1     -49.029  13.670  23.100  0.00  0.00     0.111 C 
BRANCH  19  20
ATOM     20  C   UNL d   1     -49.527  13.629  22.443  0.00  0.00     0.135 C 
BRANCH  20  21
ATOM     21  O   UNL d   1     -50.343  13.572  22.548  0.00  0.00    -0.325 OA
ATOM     22  C   UNL d   1     -50.848  13.644  21.899  0.00  0.00     0.182 C 
ENDBRANCH  20  21
ENDBRANCH  19  20
ENDBRANCH   5  19
TORSDOF 3
ENDMDL
MODEL 6
REMARK VINA RESULT:      -5.9      8.716      9.301
REMARK  3 active torsions:
REMARK  status: ('A' for Active; 'I' for Inactive)
REMARK    1  A    between atoms: C_15  and  N_5 
REMARK    2  A    between atoms: C_21  and  C_15 
REMARK    3  A    between atoms: O_20  and  C_21 
ROOT
ATOM      1  C   UNL d   1     -39.812  14.790  19.889  0.00  0.00     0.137 A 
ATOM      2  C   UNL d   1     -39.269  14.262  19.562  0.00  0.00     0.192 A 
ATOM      3  C   UNL d   1     -39.849  14.900  20.696  0.00  0.00     0.272 A 
ATOM      4  N   UNL d   1     -38.756  13.840  20.051  0.00  0.00    -0.204 NA
ATOM      5  N   UNL d   1     -39.330  14.474  21.197  0.00  0.00    -0.256 N 
ATOM      6  C   UNL d   1     -40.325  15.212  19.399  0.00  0.00     0.205 A 
ATOM      7  C   UNL d   1     -38.794  13.952  20.868  0.00  0.00     0.152 A 
ATOM      8  C   UNL d   1     -40.294  15.106  18.581  0.00  0.00     0.062 A 
ATOM      9  O   UNL d   1     -39.245  14.162  18.743  0.00  0.00    -0.289 OA
ATOM     10  C   UNL d   1     -39.751  14.578  18.254  0.00  0.00     0.105 A 
ATOM     11  O   UNL d   1     -40.392  15.428  21.023  0.00  0.00    -0.266 OA
ATOM     12  O   UNL d   1     -40.868  15.738  19.717  0.00  0.00    -0.286 OA
ATOM     13  C   UNL d   1     -40.808  15.529  18.097  0.00  0.00     0.012 A 
ATOM     14  C   UNL d   1     -39.721  14.473  17.442  0.00  0.00     0.025 A 
ATOM     15  C   UNL d   1     -40.777  15.422  17.274  0.00  0.00     0.035 A 
ATOM     16  C   UNL d   1     -38.284  13.533  21.358  0.00  0.00     0.041 C 
ATOM     17  C   UNL d   1     -40.234  14.895  16.951  0.00  0.00     0.009 A 
ATOM     18 BR   UNL d   1     -41.296  15.849  16.775  0.00  0.00    -0.049 Br
ENDROOT
BRANCH   5  19
ATOM     19  C   UNL d   1     -39.360  14.580  22.018  0.00  0.00     0.111 C 
BRANCH  19  20
ATOM     20  C   UNL d   1     -38.904  15.168  22.375  0.00  0.00     0.135 C 
BRANCH  20  21
ATOM     21  O   UNL d   1     -38.935  15.274  23.192  0.00  0.00    -0.325 OA
ATOM     22  C   UNL d   1     -38.558  15.922  23.538  0.00  0.00     0.182 C 
ENDBRANCH  20  21
ENDBRANCH  19  20
ENDBRANCH   5  19
TORSDOF 3
ENDMDL
MODEL 7
REMARK VINA RESULT:      -5.8      8.326      9.943
REMARK  3 active torsions:
REMARK  status: ('A' for Active; 'I' for Inactive)
REMARK    1  A    between atoms: C_15  and  N_5 
REMARK    2  A    between atoms: C_21  and  C_15 
REMARK    3  A    between atoms: O_20  and  C_21 
ROOT
ATOM      1  C   UNL d   1     -39.571  15.771  18.675  0.00  0.00     0.137 A 
ATOM      2  C   UNL d   1     -40.392  15.817  18.608  0.00  0.00     0.192 A 
ATOM      3  C   UNL d   1     -39.102  15.723  18.008  0.00  0.00     0.272 A 
ATOM      4  N   UNL d   1     -40.747  15.815  17.864  0.00  0.00    -0.204 NA
ATOM      5  N   UNL d   1     -39.460  15.720  17.250  0.00  0.00    -0.256 N 
ATOM      6  C   UNL d   1     -39.216  15.774  19.419  0.00  0.00     0.205 A 
ATOM      7  C   UNL d   1     -40.273  15.766  17.190  0.00  0.00     0.152 A 
ATOM      8  C   UNL d   1     -39.682  15.822  20.098  0.00  0.00     0.062 A 
ATOM      9  O   UNL d   1     -40.851  15.866  19.292  0.00  0.00    -0.289 OA
ATOM     10  C   UNL d   1     -40.503  15.869  20.032  0.00  0.00     0.105 A 
ATOM     11  O   UNL d   1     -38.281  15.677  18.075  0.00  0.00    -0.266 OA
ATOM     12  O   UNL d   1     -38.399  15.728  19.494  0.00  0.00    -0.286 OA
ATOM     13  C   UNL d   1     -39.324  15.825  20.839  0.00  0.00     0.012 A 
ATOM     14  C   UNL d   1     -40.967  15.917  20.706  0.00  0.00     0.025 A 
ATOM     15  C   UNL d   1     -39.793  15.874  21.522  0.00  0.00     0.035 A 
ATOM     16  C   UNL d   1     -40.624  15.763  16.447  0.00  0.00     0.041 C 
ATOM     17  C   UNL d   1     -40.612  15.920  21.452  0.00  0.00     0.009 A 
ATOM     18 BR   UNL d   1     -39.435  15.876  22.279  0.00  0.00    -0.049 Br
ENDROOT
BRANCH   5  19
ATOM     19  C   UNL d   1     -38.991  15.671  16.568  0.00  0.00     0.111 C 
BRANCH  19  20
ATOM     20  C   UNL d   1     -38.736  14.935  16.296  0.00  0.00     0.135 C 
BRANCH  20  21
ATOM     21  O   UNL d   1     -38.115  14.889  15.754  0.00  0.00    -0.325 OA
ATOM     22  C   UNL d   1     -38.070  14.251  15.233  0.00  0.00     0.182 C 
ENDBRANCH  20  21
ENDBRANCH  19  20
ENDBRANCH   5  19
TORSDOF 3
ENDMDL
MODEL 8
REMARK VINA RESULT:      -5.7      8.382      9.893
REMARK  3 active torsions:
REMARK  status: ('A' for Active; 'I' for Inactive)
REMARK    1  A    between atoms: C_15  and  N_5 
REMARK    2  A    between atoms: C_21  and  C_15 
REMARK    3  A    between atoms: O_20  and  C_21 
ROOT
ATOM      1  C   UNL d   1     -39.613  14.744  19.311  0.00  0.00     0.137 A 
ATOM      2  C   UNL d   1     -40.232  15.191  18.998  0.00  0.00     0.192 A 
ATOM      3  C   UNL d   1     -39.509  14.686  20.118  0.00  0.00     0.272 A 
ATOM      4  N   UNL d   1     -40.752  15.585  19.502  0.00  0.00    -0.204 NA
ATOM      5  N   UNL d   1     -40.036  15.085  20.633  0.00  0.00    -0.256 N 
ATOM      6  C   UNL d   1     -39.091  14.350  18.807  0.00  0.00     0.205 A 
ATOM      7  C   UNL d   1     -40.648  15.526  20.318  0.00  0.00     0.152 A 
ATOM      8  C   UNL d   1     -39.189  14.403  17.990  0.00  0.00     0.062 A 
ATOM      9  O   UNL d   1     -40.322  15.239  18.179  0.00  0.00    -0.289 OA
ATOM     10  C   UNL d   1     -39.808  14.850  17.677  0.00  0.00     0.105 A 
ATOM     11  O   UNL d   1     -38.890  14.239  20.431  0.00  0.00    -0.266 OA
ATOM     12  O   UNL d   1     -38.473  13.904  19.111  0.00  0.00    -0.286 OA
ATOM     13  C   UNL d   1     -38.666  14.009  17.491  0.00  0.00     0.012 A 
ATOM     14  C   UNL d   1     -39.905  14.903  16.864  0.00  0.00     0.025 A 
ATOM     15  C   UNL d   1     -38.765  14.062  16.669  0.00  0.00     0.035 A 
ATOM     16  C   UNL d   1     -41.165  15.917  20.822  0.00  0.00     0.041 C 
ATOM     17  C   UNL d   1     -39.383  14.509  16.360  0.00  0.00     0.009 A 
ATOM     18 BR   UNL d   1     -38.237  13.663  16.155  0.00  0.00    -0.049 Br
ENDROOT
BRANCH   5  19
ATOM     19  C   UNL d   1     -39.938  15.032  21.455  0.00  0.00     0.111 C 
BRANCH  19  20
ATOM     20  C   UNL d   1     -39.454  15.572  21.848  0.00  0.00     0.135 C 
BRANCH  20  21
ATOM     21  O   UNL d   1     -39.462  15.609  22.672  0.00  0.00    -0.325 OA
ATOM     22  C   UNL d   1     -38.815  15.922  23.077  0.00  0.00     0.182 C 
ENDBRANCH  20  21
ENDBRANCH  19  20
ENDBRANCH   5  19
TORSDOF 3
ENDMDL
MODEL 9
REMARK VINA RESULT:      -5.6      8.876      9.921
REMARK  3 active torsions:
REMARK  status: ('A' for Active; 'I' for Inactive)
REMARK    1  A    between atoms: C_15  and  N_5 
REMARK    2  A    between atoms: C_21  and  C_15 
REMARK    3  A    between atoms: O_20  and  C_21 
ROOT
ATOM      1  C   UNL d   1     -39.727  14.600  18.888  0.00  0.00     0.137 A 
ATOM      2  C   UNL d   1     -38.967  14.880  18.732  0.00  0.00     0.192 A 
ATOM      3  C   UNL d   1     -40.292  14.582  18.299  0.00  0.00     0.272 A 
ATOM      4  N   UNL d   1     -38.772  15.146  17.976  0.00  0.00    -0.204 NA
ATOM      5  N   UNL d   1     -40.097  14.852  17.530  0.00  0.00    -0.256 N 
ATOM      6  C   UNL d   1     -39.923  14.333  19.644  0.00  0.00     0.205 A 
ATOM      7  C   UNL d   1     -39.343  15.129  17.381  0.00  0.00     0.152 A 
ATOM      8  C   UNL d   1     -39.358  14.348  20.245  0.00  0.00     0.062 A 
ATOM      9  O   UNL d   1     -38.408  14.891  19.338  0.00  0.00    -0.289 OA
ATOM     10  C   UNL d   1     -38.598  14.628  20.089  0.00  0.00     0.105 A 
ATOM     11  O   UNL d   1     -41.052  14.302  18.455  0.00  0.00    -0.266 OA
ATOM     12  O   UNL d   1     -40.677  14.053  19.806  0.00  0.00    -0.286 OA
ATOM     13  C   UNL d   1     -39.557  14.081  20.997  0.00  0.00     0.012 A 
ATOM     14  C   UNL d   1     -38.036  14.642  20.686  0.00  0.00     0.025 A 
ATOM     15  C   UNL d   1     -38.988  14.095  21.602  0.00  0.00     0.035 A 
ATOM     16  C   UNL d   1     -39.151  15.393  16.627  0.00  0.00     0.041 C 
ATOM     17  C   UNL d   1     -38.231  14.376  21.443  0.00  0.00     0.009 A 
ATOM     18 BR   UNL d   1     -39.184  13.826  22.370  0.00  0.00    -0.049 Br
ENDROOT
BRANCH   5  19
ATOM     19  C   UNL d   1     -40.665  14.838  16.926  0.00  0.00     0.111 C 
BRANCH  19  20
ATOM     20  C   UNL d   1     -41.128  15.505  16.780  0.00  0.00     0.135 C 
BRANCH  20  21
ATOM     21  O   UNL d   1     -41.584  15.548  16.094  0.00  0.00    -0.325 OA
ATOM     22  C   UNL d   1     -42.319  15.922  16.111  0.00  0.00     0.182 C 
ENDBRANCH  20  21
ENDBRANCH  19  20
ENDBRANCH   5  19
TORSDOF 3
ENDMDL
