MODEL 1
REMARK VINA RESULT:      43.1      0.000      0.000
REMARK  3 active torsions:
REMARK  status: ('A' for Active; 'I' for Inactive)
REMARK    1  A    between atoms: C_5  and  C_1 
REMARK    2  A    between atoms: C_8  and  N_2 
REMARK    3  A    between atoms: C_10  and  C_8 
ROOT
ATOM      1  C   UNL d   1     -57.596 -99.429 -44.767  0.00  0.00     0.166 A 
ATOM      2  N   UNL d   1     -56.025 -99.879 -44.531  0.00  0.00    -0.302 N 
ATOM      3  C   UNL d   1     -57.416-100.053 -44.257  0.00  0.00     0.058 A 
ATOM      4  C   UNL d   1     -56.990 -99.031 -45.159  0.00  0.00     0.058 A 
ATOM      5  C   UNL d   1     -56.204 -99.255 -45.041  0.00  0.00     0.083 A 
ATOM      6  C   UNL d   1     -56.631-100.278 -44.139  0.00  0.00     0.083 A 
ATOM      7  O   UNL d   1     -57.739 -98.759 -45.319  0.00  0.00    -0.290 OA
ENDROOT
BRANCH   1   8
ATOM      8  C   UNL d   1     -58.380 -99.205 -44.885  0.00  0.00     0.036 A 
ATOM      9  C   UNL d   1     -58.889 -99.107 -44.227  0.00  0.00     0.003 A 
ATOM     10  C   UNL d   1     -59.668 -98.884 -44.357  0.00  0.00     0.000 A 
ATOM     11  C   UNL d   1     -59.952 -98.755 -45.126  0.00  0.00     0.000 A 
ATOM     12  C   UNL d   1     -59.457 -98.850 -45.769  0.00  0.00     0.000 A 
ATOM     13  C   UNL d   1     -58.664 -99.076 -45.654  0.00  0.00     0.003 A 
ENDBRANCH   1   8
BRANCH   2  14
ATOM     14  C   UNL d   1     -55.240-100.103 -44.413  0.00  0.00     0.080 C 
BRANCH  14  15
ATOM     15  C   UNL d   1     -55.064-100.866 -44.150  0.00  0.00     0.018 A 
ATOM     16  C   UNL d   1     -55.019-101.487 -44.690  0.00  0.00     0.002 A 
ATOM     17  C   UNL d   1     -54.843-102.249 -44.426  0.00  0.00     0.000 A 
ATOM     18  C   UNL d   1     -54.712-102.393 -43.628  0.00  0.00     0.000 A 
ATOM     19  C   UNL d   1     -54.757-101.771 -43.088  0.00  0.00     0.000 A 
ATOM     20  C   UNL d   1     -54.933-101.006 -43.347  0.00  0.00     0.002 A 
ENDBRANCH  14  15
ENDBRANCH   2  14
TORSDOF 3
ENDMDL
MODEL 2
REMARK VINA RESULT:      45.0      2.984      4.545
REMARK  3 active torsions:
REMARK  status: ('A' for Active; 'I' for Inactive)
REMARK    1  A    between atoms: C_5  and  C_1 
REMARK    2  A    between atoms: C_8  and  N_2 
REMARK    3  A    between atoms: C_10  and  C_8 
ROOT
ATOM      1  C   UNL d   1     -54.881-101.466 -42.816  0.00  0.00     0.166 A 
ATOM      2  N   UNL d   1     -54.768-102.347 -41.424  0.00  0.00    -0.302 N 
ATOM      3  C   UNL d   1     -54.862-101.084 -42.084  0.00  0.00     0.058 A 
ATOM      4  C   UNL d   1     -54.843-102.289 -42.851  0.00  0.00     0.058 A 
ATOM      5  C   UNL d   1     -54.787-102.730 -42.155  0.00  0.00     0.083 A 
ATOM      6  C   UNL d   1     -54.806-101.524 -41.389  0.00  0.00     0.083 A 
ATOM      7  O   UNL d   1     -54.897-101.916 -43.572  0.00  0.00    -0.290 OA
ENDROOT
BRANCH   1   8
ATOM      8  C   UNL d   1     -54.937-101.026 -43.510  0.00  0.00     0.036 A 
ATOM      9  C   UNL d   1     -55.068-101.415 -44.240  0.00  0.00     0.003 A 
ATOM     10  C   UNL d   1     -55.122-100.966 -44.926  0.00  0.00     0.000 A 
ATOM     11  C   UNL d   1     -55.049-100.140 -44.901  0.00  0.00     0.000 A 
ATOM     12  C   UNL d   1     -54.921 -99.759 -44.189  0.00  0.00     0.000 A 
ATOM     13  C   UNL d   1     -54.864-100.200 -43.485  0.00  0.00     0.003 A 
ENDBRANCH   1   8
BRANCH   2  14
ATOM     14  C   UNL d   1     -54.712-102.788 -40.729  0.00  0.00     0.080 C 
BRANCH  14  15
ATOM     15  C   UNL d   1     -54.878-102.434 -40.002  0.00  0.00     0.018 A 
ATOM     16  C   UNL d   1     -55.207-102.880 -39.392  0.00  0.00     0.002 A 
ATOM     17  C   UNL d   1     -55.372-102.525 -38.666  0.00  0.00     0.000 A 
ATOM     18  C   UNL d   1     -55.210-101.729 -38.545  0.00  0.00     0.000 A 
ATOM     19  C   UNL d   1     -54.880-101.282 -39.156  0.00  0.00     0.000 A 
ATOM     20  C   UNL d   1     -54.713-101.633 -39.886  0.00  0.00     0.002 A 
ENDBRANCH  14  15
ENDBRANCH   2  14
TORSDOF 3
ENDMDL
