MODEL 1
REMARK VINA RESULT:      19.9      0.000      0.000
REMARK  7 active torsions:
REMARK  status: ('A' for Active; 'I' for Inactive)
REMARK    1  A    between atoms: C_5  and  N_1 
REMARK    2  A    between atoms: C_2  and  N_6 
REMARK    3  A    between atoms: N_16  and  C_2 
REMARK    4  A    between atoms: C_3  and  C_9 
REMARK       I    between atoms: N_4  and  C_3 
REMARK    5  A    between atoms: N_6  and  N_4 
REMARK    6  A    between atoms: C_19  and  N_16 
REMARK    7  A    between atoms: C_17  and  C_19 
ROOT
ATOM      1  C   UNL d   1      14.887  13.159  -1.020  0.00  0.00     0.297 C 
ATOM      2  N   UNL d   1      14.501  12.920  -1.709  0.00  0.00    -0.103 NA
ATOM      3  O   UNL d   1      15.116  12.597  -0.458  0.00  0.00    -0.264 OA
ENDROOT
BRANCH   1   4
ATOM      4  C   UNL d   1      15.041  13.980  -0.899  0.00  0.00     0.059 A 
ATOM      5  C   UNL d   1      14.730  14.548  -1.409  0.00  0.00     0.006 A 
ATOM      6  C   UNL d   1      14.889  15.345  -1.280  0.00  0.00     0.024 A 
ATOM      7  C   UNL d   1      15.357  15.578  -0.644  0.00  0.00     0.127 A 
ATOM      8  C   UNL d   1      15.668  15.010  -0.134  0.00  0.00     0.024 A 
ATOM      9  C   UNL d   1      15.512  14.208  -0.259  0.00  0.00     0.006 A 
BRANCH   7  10
ATOM     10  N   UNL d   1      15.505  16.383  -0.531  0.00  0.00    -0.114 N 
ATOM     11  O   UNL d   1      16.283  16.634  -0.387  0.00  0.00    -0.532 OA
ATOM     12  O   UNL d   1      14.898  16.937  -0.560  0.00  0.00    -0.532 OA
ENDBRANCH   7  10
ENDBRANCH   1   4
BRANCH   2  13
ATOM     13  N   UNL d   1      14.345  12.120  -1.836  0.00  0.00    -0.114 NA
BRANCH  13  14
ATOM     14  C   UNL d   1      13.647  11.896  -2.209  0.00  0.00     0.241 C 
ATOM     15  S   UNL d   1      12.943  11.785  -1.760  0.00  0.00    -0.035 SA
BRANCH  14  16
ATOM     16  N   UNL d   1      13.640  11.780  -3.026  0.00  0.00    -0.215 NA
BRANCH  16  17
ATOM     17  C   UNL d   1      13.178  12.264  -3.498  0.00  0.00     0.102 C 
BRANCH  17  18
ATOM     18  C   UNL d   1      13.343  12.322  -4.304  0.00  0.00     0.021 C 
ATOM     19  C   UNL d   1      13.012  12.936  -4.747  0.00  0.00     0.002 C 
ENDBRANCH  17  18
ENDBRANCH  16  17
ENDBRANCH  14  16
ENDBRANCH  13  14
ENDBRANCH   2  13
TORSDOF 7
ENDMDL
MODEL 2
REMARK VINA RESULT:      20.4      1.164      1.677
REMARK  7 active torsions:
REMARK  status: ('A' for Active; 'I' for Inactive)
REMARK    1  A    between atoms: C_5  and  N_1 
REMARK    2  A    between atoms: C_2  and  N_6 
REMARK    3  A    between atoms: N_16  and  C_2 
REMARK    4  A    between atoms: C_3  and  C_9 
REMARK       I    between atoms: N_4  and  C_3 
REMARK    5  A    between atoms: N_6  and  N_4 
REMARK    6  A    between atoms: C_19  and  N_16 
REMARK    7  A    between atoms: C_17  and  C_19 
ROOT
ATOM      1  C   UNL d   1      15.454  14.011  -0.302  0.00  0.00     0.297 C 
ATOM      2  N   UNL d   1      14.790  13.523  -0.347  0.00  0.00    -0.103 NA
ATOM      3  O   UNL d   1      16.169  13.712  -0.015  0.00  0.00    -0.264 OA
ENDROOT
BRANCH   1   4
ATOM      4  C   UNL d   1      15.390  14.815  -0.551  0.00  0.00     0.059 A 
ATOM      5  C   UNL d   1      15.627  15.431  -0.058  0.00  0.00     0.006 A 
ATOM      6  C   UNL d   1      15.558  16.210  -0.314  0.00  0.00     0.024 A 
ATOM      7  C   UNL d   1      15.255  16.378  -1.061  0.00  0.00     0.127 A 
ATOM      8  C   UNL d   1      15.019  15.762  -1.554  0.00  0.00     0.024 A 
ATOM      9  C   UNL d   1      15.085  14.977  -1.303  0.00  0.00     0.006 A 
BRANCH   7  10
ATOM     10  N   UNL d   1      15.195  17.166  -1.300  0.00  0.00    -0.114 N 
ATOM     11  O   UNL d   1      14.452  17.467  -1.516  0.00  0.00    -0.532 OA
ATOM     12  O   UNL d   1      15.856  17.656  -1.326  0.00  0.00    -0.532 OA
ENDBRANCH   7  10
ENDBRANCH   1   4
BRANCH   2  13
ATOM     13  N   UNL d   1      14.842  12.736  -0.106  0.00  0.00    -0.114 NA
BRANCH  13  14
ATOM     14  C   UNL d   1      14.368  12.168  -0.465  0.00  0.00     0.241 C 
ATOM     15  S   UNL d   1      13.764  11.779  -0.024  0.00  0.00    -0.035 SA
BRANCH  14  16
ATOM     16  N   UNL d   1      14.487  11.980  -1.259  0.00  0.00    -0.215 NA
BRANCH  16  17
ATOM     17  C   UNL d   1      13.845  11.785  -1.728  0.00  0.00     0.102 C 
BRANCH  17  18
ATOM     18  C   UNL d   1      13.925  11.789  -2.549  0.00  0.00     0.021 C 
ATOM     19  C   UNL d   1      13.294  12.036  -3.021  0.00  0.00     0.002 C 
ENDBRANCH  17  18
ENDBRANCH  16  17
ENDBRANCH  14  16
ENDBRANCH  13  14
ENDBRANCH   2  13
TORSDOF 7
ENDMDL
