MODEL 1
REMARK VINA RESULT:      73.8      0.000      0.000
REMARK  4 active torsions:
REMARK  status: ('A' for Active; 'I' for Inactive)
REMARK    1  A    between atoms: C_6  and  C_1 
REMARK    2  A    between atoms: C_4  and  C_11 
REMARK    3  A    between atoms: N_8  and  C_6 
REMARK    4  A    between atoms: C_13  and  C_6 
ROOT
ATOM      1  C   UNL d   1      44.186 -15.901  37.762  0.00  0.00     0.067 C 
ENDROOT
BRANCH   1   2
ATOM      2  C   UNL d   1      44.807 -15.419  37.476  0.00  0.00     0.057 A 
ATOM      3  C   UNL d   1      44.805 -14.622  37.622  0.00  0.00     0.214 A 
ATOM      4  C   UNL d   1      45.416 -14.129  37.345  0.00  0.00     0.121 A 
ATOM      5  O   UNL d   1      44.163 -14.297  38.067  0.00  0.00    -0.285 OA
ATOM      6  N   UNL d   1      45.414 -13.332  37.491  0.00  0.00    -0.241 NA
ATOM      7  C   UNL d   1      46.034 -14.465  36.913  0.00  0.00     0.032 A 
ATOM      8  C   UNL d   1      46.014 -12.862  37.217  0.00  0.00     0.099 A 
ATOM      9  C   UNL d   1      46.631 -13.198  36.785  0.00  0.00     0.021 A 
ATOM     10  C   UNL d   1      46.646 -14.001  36.630  0.00  0.00     0.004 A 
ATOM     11  C   UNL d   1      46.038 -15.291  36.761  0.00  0.00     0.059 A 
ATOM     12  C   UNL d   1      45.425 -15.754  37.045  0.00  0.00     0.016 A 
ATOM     13 CL   UNL d   1      46.647 -15.645  36.331  0.00  0.00    -0.082 Cl
ENDBRANCH   1   2
BRANCH   1  14
ATOM     14  N   UNL d   1      43.436 -15.889  37.409  0.00  0.00    -0.301 N 
ATOM     15  C   UNL d   1      42.799 -15.497  37.749  0.00  0.00     0.100 A 
ATOM     16  C   UNL d   1      42.062 -15.494  37.387  0.00  0.00     0.100 A 
ATOM     17  N   UNL d   1      41.958 -15.883  36.684  0.00  0.00    -0.299 N 
ATOM     18  C   UNL d   1      42.597 -16.284  36.330  0.00  0.00     0.100 A 
ATOM     19  C   UNL d   1      41.210 -15.869  36.336  0.00  0.00     0.100 C 
ATOM     20  C   UNL d   1      43.319 -16.286  36.684  0.00  0.00     0.100 A 
ENDBRANCH   1  14
BRANCH   1  21
ATOM     21  C   UNL d   1      44.318 -16.404  38.413  0.00  0.00     0.016 A 
ATOM     22  C   UNL d   1      44.884 -17.003  38.366  0.00  0.00     0.001 A 
ATOM     23  C   UNL d   1      45.020 -17.502  39.001  0.00  0.00     0.004 A 
ATOM     24  C   UNL d   1      44.588 -17.411  39.703  0.00  0.00     0.071 A 
ATOM     25  C   UNL d   1      44.025 -16.815  39.749  0.00  0.00     0.004 A 
ATOM     26  C   UNL d   1      43.887 -16.313  39.114  0.00  0.00     0.001 A 
BRANCH  24  27
ATOM     27  C   UNL d   1      44.713 -17.897  40.339  0.00  0.00     0.419 C 
ATOM     28  F   UNL d   1      44.903 -18.386  40.960  0.00  0.00    -0.166 F 
ATOM     29  F   UNL d   1      44.072 -18.152  40.867  0.00  0.00    -0.166 F 
ATOM     30  F   UNL d   1      45.441 -18.134  40.463  0.00  0.00    -0.166 F 
ENDBRANCH  24  27
ENDBRANCH   1  21
TORSDOF 4
ENDMDL
