MODEL 1
REMARK VINA RESULT:      13.5      0.000      0.000
REMARK  3 active torsions:
REMARK  status: ('A' for Active; 'I' for Inactive)
REMARK    1  A    between atoms: C_3  and  C_5 
REMARK    2  A    between atoms: O_13  and  C_6 
REMARK    3  A    between atoms: O_15  and  C_8 
ROOT
ATOM      1  C   UNL d   1     -51.641  25.339  33.343  0.00  0.00     0.021 A 
ATOM      2  C   UNL d   1     -51.235  24.627  33.328  0.00  0.00     0.028 A 
ATOM      3  C   UNL d   1     -51.638  23.914  33.334  0.00  0.00     0.116 A 
ATOM      4  C   UNL d   1     -52.462  23.912  33.354  0.00  0.00     0.116 A 
ATOM      5  C   UNL d   1     -52.474  25.337  33.363  0.00  0.00     0.004 A 
ATOM      6  C   UNL d   1     -52.885  24.623  33.369  0.00  0.00     0.026 A 
ENDROOT
BRANCH   1   7
ATOM      7  C   UNL d   1     -51.230  26.052  33.337  0.00  0.00     0.103 A 
ATOM      8  N   UNL d   1     -50.405  26.054  33.345  0.00  0.00    -0.145 NA
ATOM      9  N   UNL d   1     -49.994  26.767  33.339  0.00  0.00    -0.106 NA
ATOM     10  C   UNL d   1     -50.408  27.478  33.325  0.00  0.00     0.297 A 
ATOM     11  O   UNL d   1     -49.997  28.200  33.319  0.00  0.00    -0.264 OA
ATOM     12  C   UNL d   1     -51.241  27.476  33.317  0.00  0.00     0.066 A 
ATOM     13  C   UNL d   1     -51.653  26.763  33.323  0.00  0.00     0.026 A 
ENDBRANCH   1   7
BRANCH   3  14
ATOM     14  O   UNL d   1     -51.220  23.202  33.319  0.00  0.00    -0.326 OA
ATOM     15  C   UNL d   1     -50.397  23.206  33.392  0.00  0.00     0.181 C 
ENDBRANCH   3  14
BRANCH   4  16
ATOM     16  O   UNL d   1     -52.874  23.194  33.360  0.00  0.00    -0.326 OA
ATOM     17  C   UNL d   1     -53.695  23.191  33.306  0.00  0.00     0.181 C 
ENDBRANCH   4  16
TORSDOF 3
ENDMDL
MODEL 2
REMARK VINA RESULT:      16.1      1.482      3.797
REMARK  3 active torsions:
REMARK  status: ('A' for Active; 'I' for Inactive)
REMARK    1  A    between atoms: C_3  and  C_5 
REMARK    2  A    between atoms: O_13  and  C_6 
REMARK    3  A    between atoms: O_15  and  C_8 
ROOT
ATOM      1  C   UNL d   1     -51.356  24.991  33.343  0.00  0.00     0.021 A 
ATOM      2  C   UNL d   1     -51.393  25.809  33.358  0.00  0.00     0.028 A 
ATOM      3  C   UNL d   1     -50.711  26.261  33.348  0.00  0.00     0.116 A 
ATOM      4  C   UNL d   1     -49.975  25.888  33.322  0.00  0.00     0.116 A 
ATOM      5  C   UNL d   1     -50.613  24.613  33.317  0.00  0.00     0.004 A 
ATOM      6  C   UNL d   1     -49.922  25.063  33.306  0.00  0.00     0.026 A 
ENDROOT
BRANCH   1   7
ATOM      7  C   UNL d   1     -52.045  24.542  33.354  0.00  0.00     0.103 A 
ATOM      8  N   UNL d   1     -52.781  24.914  33.307  0.00  0.00    -0.145 NA
ATOM      9  N   UNL d   1     -53.471  24.465  33.317  0.00  0.00    -0.106 NA
ATOM     10  C   UNL d   1     -53.426  23.645  33.375  0.00  0.00     0.297 A 
ATOM     11  O   UNL d   1     -54.120  23.189  33.385  0.00  0.00    -0.264 OA
ATOM     12  C   UNL d   1     -52.684  23.270  33.422  0.00  0.00     0.066 A 
ATOM     13  C   UNL d   1     -51.993  23.718  33.412  0.00  0.00     0.026 A 
ENDBRANCH   1   7
BRANCH   3  14
ATOM     14  O   UNL d   1     -50.758  27.085  33.364  0.00  0.00    -0.326 OA
ATOM     15  C   UNL d   1     -51.494  27.453  33.447  0.00  0.00     0.181 C 
ENDBRANCH   3  14
BRANCH   4  16
ATOM     16  O   UNL d   1     -49.283  26.340  33.311  0.00  0.00    -0.326 OA
ATOM     17  C   UNL d   1     -48.654  26.140  33.803  0.00  0.00     0.181 C 
ENDBRANCH   4  16
TORSDOF 3
ENDMDL
