MODEL 1
REMARK VINA RESULT:      -8.5      0.000      0.000
REMARK  4 active torsions:
REMARK  status: ('A' for Active; 'I' for Inactive)
REMARK    1  A    between atoms: C_5  and  C_1 
REMARK    2  A    between atoms: C_2  and  C_5 
REMARK    3  A    between atoms: C_12  and  N_3 
REMARK    4  A    between atoms: C_13  and  N_4 
ROOT
ATOM      1  C   UNL d   1     -48.666  12.825  22.499  0.00  0.00     0.133 C 
ATOM      2 CL   UNL d   1     -48.281  13.563  22.567  0.00  0.00    -0.076 Cl
ENDROOT
BRANCH   1   3
ATOM      3  C   UNL d   1     -48.437  12.183  22.962  0.00  0.00     0.202 A 
ATOM      4  N   UNL d   1     -47.662  12.100  23.177  0.00  0.00    -0.191 N 
ATOM      5  N   UNL d   1     -47.592  11.419  23.632  0.00  0.00    -0.039 NA
ATOM      6  N   UNL d   1     -48.327  11.081  23.696  0.00  0.00    -0.022 NA
ATOM      7  N   UNL d   1     -48.854  11.553  23.281  0.00  0.00    -0.107 NA
BRANCH   4   8
ATOM      8  C   UNL d   1     -47.052  12.605  22.979  0.00  0.00     0.086 A 
ATOM      9  C   UNL d   1     -46.891  13.265  23.446  0.00  0.00     0.019 A 
ATOM     10  C   UNL d   1     -46.274  13.774  23.245  0.00  0.00     0.002 A 
ATOM     11  C   UNL d   1     -45.820  13.620  22.576  0.00  0.00     0.000 A 
ATOM     12  C   UNL d   1     -45.976  12.959  22.103  0.00  0.00     0.002 A 
ATOM     13  C   UNL d   1     -45.189  14.136  22.365  0.00  0.00     0.000 C 
ATOM     14  C   UNL d   1     -46.593  12.454  22.308  0.00  0.00     0.019 A 
ENDBRANCH   4   8
ENDBRANCH   1   3
BRANCH   1  15
ATOM     15  C   UNL d   1     -49.289  12.737  21.957  0.00  0.00     0.202 A 
ATOM     16  N   UNL d   1     -49.946  13.220  21.895  0.00  0.00    -0.191 N 
ATOM     17  N   UNL d   1     -50.416  12.930  21.289  0.00  0.00    -0.039 NA
ATOM     18  N   UNL d   1     -50.044  12.267  20.981  0.00  0.00    -0.022 NA
ATOM     19  N   UNL d   1     -49.357  12.146  21.386  0.00  0.00    -0.107 NA
BRANCH  16  20
ATOM     20  C   UNL d   1     -50.137  13.888  22.342  0.00  0.00     0.086 A 
ATOM     21  C   UNL d   1     -49.837  14.633  22.133  0.00  0.00     0.019 A 
ATOM     22  C   UNL d   1     -50.028  15.301  22.580  0.00  0.00     0.002 A 
ATOM     23  C   UNL d   1     -50.520  15.224  23.236  0.00  0.00     0.000 A 
ATOM     24  C   UNL d   1     -50.819  14.494  23.447  0.00  0.00     0.002 A 
ATOM     25  C   UNL d   1     -50.720  15.898  23.697  0.00  0.00     0.000 C 
ATOM     26  C   UNL d   1     -50.628  13.826  23.000  0.00  0.00     0.019 A 
ENDBRANCH  16  20
ENDBRANCH   1  15
TORSDOF 4
ENDMDL
