MODEL 1
REMARK VINA RESULT:       6.0      0.000      0.000
REMARK  3 active torsions:
REMARK  status: ('A' for Active; 'I' for Inactive)
REMARK    1  A    between atoms: S_11  and  C_2 
REMARK    2  A    between atoms: C_7  and  C_12 
REMARK    3  A    between atoms: C_12  and  S_11 
ROOT
ATOM      1  S   UNL d   1      13.162  12.149  -2.690  0.00  0.00    -0.058 SA
ENDROOT
BRANCH   1   2
ATOM      2  C   UNL d   1      13.147  12.319  -3.503  0.00  0.00     0.164 A 
ATOM      3  S   UNL d   1      13.008  11.779  -4.114  0.00  0.00    -0.039 SA
ATOM      4  C   UNL d   1      13.045  12.187  -4.830  0.00  0.00     0.134 A 
ATOM      5  N   UNL d   1      13.208  12.984  -4.665  0.00  0.00    -0.140 NA
ATOM      6  C   UNL d   1      12.938  11.865  -5.590  0.00  0.00     0.030 C 
ATOM      7  N   UNL d   1      13.272  13.071  -3.839  0.00  0.00    -0.134 NA
ENDBRANCH   1   2
BRANCH   1   8
ATOM      8  C   UNL d   1      13.850  11.856  -2.343  0.00  0.00     0.057 C 
BRANCH   8   9
ATOM      9  C   UNL d   1      14.043  12.055  -1.563  0.00  0.00     0.095 A 
ATOM     10  N   UNL d   1      14.637  12.551  -1.323  0.00  0.00    -0.238 NA
ATOM     11  C   UNL d   1      14.629  12.588  -0.511  0.00  0.00     0.111 A 
ATOM     12  C   UNL d   1      15.131  13.023  -0.022  0.00  0.00     0.028 C 
ATOM     13  S   UNL d   1      14.026  12.112  -0.247  0.00  0.00    -0.066 SA
ATOM     14  C   UNL d   1      13.666  11.785  -0.891  0.00  0.00     0.057 A 
ENDBRANCH   8   9
ENDBRANCH   1   8
TORSDOF 3
ENDMDL
