MODEL 1
REMARK VINA RESULT:      -8.3      0.000      0.000
REMARK  5 active torsions:
REMARK  status: ('A' for Active; 'I' for Inactive)
REMARK    1  A    between atoms: C_2  and  C_1 
REMARK    2  A    between atoms: N_5  and  C_2 
REMARK    3  A    between atoms: C_12  and  C_4 
REMARK    4  A    between atoms: C_24  and  N_9 
REMARK    5  A    between atoms: C_19  and  C_24 
ROOT
ATOM      1  N   UNL d   1      47.718  34.924  50.964  0.00  0.00    -0.191 NA
ATOM      2  C   UNL d   1      48.419  34.891  51.398  0.00  0.00     0.103 C 
ATOM      3  C   UNL d   1      49.117  34.862  51.833  0.00  0.00     0.097 C 
ENDROOT
BRANCH   3   4
ATOM      4  C   UNL d   1      49.648  34.249  51.709  0.00  0.00     0.091 C 
BRANCH   4   5
ATOM      5  N   UNL d   1      50.356  34.220  52.137  0.00  0.00    -0.299 N 
ATOM      6  C   UNL d   1      51.073  34.329  51.745  0.00  0.00     0.100 A 
ATOM      7  C   UNL d   1      51.780  34.301  52.168  0.00  0.00     0.100 A 
ATOM      8  N   UNL d   1      51.770  34.164  52.982  0.00  0.00    -0.291 N 
ATOM      9  C   UNL d   1      51.054  34.054  53.378  0.00  0.00     0.100 A 
ATOM     10  C   UNL d   1      50.345  34.083  52.949  0.00  0.00     0.100 A 
BRANCH   8  11
ATOM     11  C   UNL d   1      52.474  34.136  53.398  0.00  0.00     0.143 C 
ATOM     12  S   UNL d   1      52.732  34.796  53.819  0.00  0.00    -0.057 SA
BRANCH  11  13
ATOM     13  C   UNL d   1      52.930  33.448  53.399  0.00  0.00     0.126 A 
ATOM     14  O   UNL d   1      52.660  32.683  53.538  0.00  0.00    -0.305 OA
ATOM     15  C   UNL d   1      53.302  32.163  53.486  0.00  0.00     0.100 A 
ATOM     16  C   UNL d   1      53.973  32.616  53.313  0.00  0.00     0.027 A 
ATOM     17  C   UNL d   1      53.742  33.407  53.259  0.00  0.00     0.029 A 
BRANCH  15  18
ATOM     18  C   UNL d   1      53.281  31.346  53.587  0.00  0.00     0.023 A 
ATOM     19  C   UNL d   1      52.986  30.868  52.990  0.00  0.00     0.003 A 
ATOM     20  C   UNL d   1      52.964  30.052  53.088  0.00  0.00     0.011 A 
ATOM     21  C   UNL d   1      53.243  29.711  53.795  0.00  0.00     0.058 A 
ATOM     22  C   UNL d   1      53.541  30.201  54.396  0.00  0.00     0.011 A 
ATOM     23 CL   UNL d   1      53.223  28.894  53.899  0.00  0.00    -0.082 Cl
ATOM     24  C   UNL d   1      53.559  31.019  54.288  0.00  0.00     0.003 A 
ENDBRANCH  15  18
ENDBRANCH  11  13
ENDBRANCH   8  11
ENDBRANCH   4   5
ENDBRANCH   3   4
TORSDOF 5
ENDMDL
MODEL 2
REMARK VINA RESULT:      -7.4      2.480      4.797
REMARK  5 active torsions:
REMARK  status: ('A' for Active; 'I' for Inactive)
REMARK    1  A    between atoms: C_2  and  C_1 
REMARK    2  A    between atoms: N_5  and  C_2 
REMARK    3  A    between atoms: C_12  and  C_4 
REMARK    4  A    between atoms: C_24  and  N_9 
REMARK    5  A    between atoms: C_19  and  C_24 
ROOT
ATOM      1  N   UNL d   1      53.278  28.421  54.474  0.00  0.00    -0.191 NA
ATOM      2  C   UNL d   1      53.261  29.186  54.164  0.00  0.00     0.103 C 
ATOM      3  C   UNL d   1      53.241  29.948  53.854  0.00  0.00     0.097 C 
ENDROOT
BRANCH   3   4
ATOM      4  C   UNL d   1      53.931  30.389  53.812  0.00  0.00     0.091 C 
BRANCH   4   5
ATOM      5  N   UNL d   1      53.911  31.206  53.940  0.00  0.00    -0.299 N 
ATOM      6  C   UNL d   1      54.200  31.716  53.361  0.00  0.00     0.100 A 
ATOM      7  C   UNL d   1      54.181  32.531  53.486  0.00  0.00     0.100 A 
ATOM      8  N   UNL d   1      53.873  32.835  54.189  0.00  0.00    -0.291 N 
ATOM      9  C   UNL d   1      53.583  32.326  54.771  0.00  0.00     0.100 A 
ATOM     10  C   UNL d   1      53.603  31.508  54.642  0.00  0.00     0.100 A 
BRANCH   8  11
ATOM     11  C   UNL d   1      53.856  33.644  54.309  0.00  0.00     0.143 C 
ATOM     12  S   UNL d   1      54.439  34.007  54.765  0.00  0.00    -0.057 SA
BRANCH  11  13
ATOM     13  C   UNL d   1      53.256  34.102  53.974  0.00  0.00     0.126 A 
ATOM     14  O   UNL d   1      52.597  33.821  53.567  0.00  0.00    -0.305 OA
ATOM     15  C   UNL d   1      52.141  34.468  53.327  0.00  0.00     0.100 A 
ATOM     16  C   UNL d   1      52.525  35.153  53.590  0.00  0.00     0.027 A 
ATOM     17  C   UNL d   1      53.212  34.924  53.988  0.00  0.00     0.029 A 
BRANCH  15  18
ATOM     18  C   UNL d   1      51.434  34.441  52.905  0.00  0.00     0.023 A 
ATOM     19  C   UNL d   1      50.721  34.540  53.296  0.00  0.00     0.003 A 
ATOM     20  C   UNL d   1      50.014  34.514  52.877  0.00  0.00     0.011 A 
ATOM     21  C   UNL d   1      50.023  34.386  52.054  0.00  0.00     0.058 A 
ATOM     22  C   UNL d   1      50.750  34.287  51.663  0.00  0.00     0.011 A 
ATOM     23 CL   UNL d   1      49.318  34.359  51.629  0.00  0.00    -0.082 Cl
ATOM     24  C   UNL d   1      51.454  34.315  52.092  0.00  0.00     0.003 A 
ENDBRANCH  15  18
ENDBRANCH  11  13
ENDBRANCH   8  11
ENDBRANCH   4   5
ENDBRANCH   3   4
TORSDOF 5
ENDMDL
MODEL 3
REMARK VINA RESULT:      -5.4      1.928      2.707
REMARK  5 active torsions:
REMARK  status: ('A' for Active; 'I' for Inactive)
REMARK    1  A    between atoms: C_2  and  C_1 
REMARK    2  A    between atoms: N_5  and  C_2 
REMARK    3  A    between atoms: C_12  and  C_4 
REMARK    4  A    between atoms: C_24  and  N_9 
REMARK    5  A    between atoms: C_19  and  C_24 
ROOT
ATOM      1  N   UNL d   1      46.107  36.695  52.914  0.00  0.00    -0.191 NA
ATOM      2  C   UNL d   1      46.824  36.347  52.701  0.00  0.00     0.103 C 
ATOM      3  C   UNL d   1      47.538  36.000  52.486  0.00  0.00     0.097 C 
ENDROOT
BRANCH   3   4
ATOM      4  C   UNL d   1      47.986  35.607  53.049  0.00  0.00     0.091 C 
BRANCH   4   5
ATOM      5  N   UNL d   1      48.710  35.264  52.840  0.00  0.00    -0.299 N 
ATOM      6  C   UNL d   1      49.360  35.349  53.339  0.00  0.00     0.100 A 
ATOM      7  C   UNL d   1      50.083  35.009  53.133  0.00  0.00     0.100 A 
ATOM      8  N   UNL d   1      50.154  34.585  52.429  0.00  0.00    -0.291 N 
ATOM      9  C   UNL d   1      49.504  34.498  51.926  0.00  0.00     0.100 A 
ATOM     10  C   UNL d   1      48.780  34.840  52.136  0.00  0.00     0.100 A 
BRANCH   8  11
ATOM     11  C   UNL d   1      50.873  34.249  52.228  0.00  0.00     0.143 C 
ATOM     12  S   UNL d   1      51.163  34.320  51.460  0.00  0.00    -0.057 SA
BRANCH  11  13
ATOM     13  C   UNL d   1      51.311  33.837  52.793  0.00  0.00     0.126 A 
ATOM     14  O   UNL d   1      52.053  34.046  53.083  0.00  0.00    -0.305 OA
ATOM     15  C   UNL d   1      52.287  33.480  53.639  0.00  0.00     0.100 A 
ATOM     16  C   UNL d   1      51.681  32.918  53.690  0.00  0.00     0.027 A 
ATOM     17  C   UNL d   1      51.081  33.140  53.168  0.00  0.00     0.029 A 
BRANCH  15  18
ATOM     18  C   UNL d   1      52.992  33.473  54.066  0.00  0.00     0.023 A 
ATOM     19  C   UNL d   1      53.524  32.858  53.965  0.00  0.00     0.003 A 
ATOM     20  C   UNL d   1      54.228  32.848  54.389  0.00  0.00     0.011 A 
ATOM     21  C   UNL d   1      54.400  33.464  54.923  0.00  0.00     0.058 A 
ATOM     22  C   UNL d   1      53.857  34.085  55.021  0.00  0.00     0.011 A 
ATOM     23 CL   UNL d   1      55.104  33.460  55.351  0.00  0.00    -0.082 Cl
ATOM     24  C   UNL d   1      53.153  34.086  54.591  0.00  0.00     0.003 A 
ENDBRANCH  15  18
ENDBRANCH  11  13
ENDBRANCH   8  11
ENDBRANCH   4   5
ENDBRANCH   3   4
TORSDOF 5
ENDMDL
