MODEL 1
REMARK VINA RESULT:      -3.5      0.000      0.000
REMARK  4 active torsions:
REMARK  status: ('A' for Active; 'I' for Inactive)
REMARK    1  A    between atoms: C_6  and  C_1 
REMARK    2  A    between atoms: C_16  and  C_6 
REMARK    3  A    between atoms: C_9  and  O_12 
REMARK    4  A    between atoms: O_12  and  C_10 
ROOT
ATOM      1  C   UNL d   1      32.867  18.444 -23.703  0.00  0.00     0.139 A 
ATOM      2  C   UNL d   1      33.079  19.699 -23.297  0.00  0.00     0.064 A 
ATOM      3  C   UNL d   1      33.054  19.207 -23.963  0.00  0.00     0.220 A 
ATOM      4  C   UNL d   1      32.909  19.245 -22.632  0.00  0.00     0.105 A 
ATOM      5  O   UNL d   1      32.776  18.466 -22.877  0.00  0.00    -0.304 OA
ATOM      6  C   UNL d   1      32.895  19.597 -21.886  0.00  0.00     0.050 A 
ATOM      7  C   UNL d   1      33.236  20.505 -23.217  0.00  0.00     0.007 A 
ATOM      8  C   UNL d   1      33.052  20.399 -21.813  0.00  0.00     0.105 A 
ATOM      9  O   UNL d   1      33.192  19.438 -24.742  0.00  0.00    -0.284 OA
ATOM     10  C   UNL d   1      33.223  20.860 -22.468  0.00  0.00     0.025 A 
ENDROOT
BRANCH   1  11
ATOM     11  C   UNL d   1      32.784  17.778 -24.179  0.00  0.00     0.028 C 
BRANCH  11  12
ATOM     12  C   UNL d   1      32.179  17.226 -24.035  0.00  0.00     0.005 A 
ATOM     13  C   UNL d   1      32.362  16.531 -23.640  0.00  0.00     0.021 A 
ATOM     14  C   UNL d   1      31.769  15.977 -23.492  0.00  0.00     0.099 A 
ATOM     15  N   UNL d   1      30.995  16.126 -23.741  0.00  0.00    -0.242 NA
ATOM     16  C   UNL d   1      30.817  16.827 -24.138  0.00  0.00     0.099 A 
ATOM     17  C   UNL d   1      31.410  17.377 -24.285  0.00  0.00     0.021 A 
ENDBRANCH  11  12
ENDBRANCH   1  11
BRANCH   8  18
ATOM     18  O   UNL d   1      33.038  20.749 -21.064  0.00  0.00    -0.273 OA
BRANCH  18  19
ATOM     19  C   UNL d   1      32.508  21.369 -20.901  0.00  0.00     0.300 C 
ATOM     20  O   UNL d   1      31.716  21.200 -20.759  0.00  0.00    -0.259 OA
ATOM     21  C   UNL d   1      32.781  22.148 -20.884  0.00  0.00     0.074 C 
ENDBRANCH  18  19
ENDBRANCH   8  18
TORSDOF 4
ENDMDL
MODEL 2
REMARK VINA RESULT:      -3.4      2.180      4.641
REMARK  4 active torsions:
REMARK  status: ('A' for Active; 'I' for Inactive)
REMARK    1  A    between atoms: C_6  and  C_1 
REMARK    2  A    between atoms: C_16  and  C_6 
REMARK    3  A    between atoms: C_9  and  O_12 
REMARK    4  A    between atoms: O_12  and  C_10 
ROOT
ATOM      1  C   UNL d   1      32.375  17.149 -23.692  0.00  0.00     0.139 A 
ATOM      2  C   UNL d   1      31.416  16.221 -23.650  0.00  0.00     0.064 A 
ATOM      3  C   UNL d   1      32.209  16.372 -23.463  0.00  0.00     0.220 A 
ATOM      4  C   UNL d   1      31.095  16.898 -23.991  0.00  0.00     0.105 A 
ATOM      5  O   UNL d   1      31.685  17.477 -24.020  0.00  0.00    -0.304 OA
ATOM      6  C   UNL d   1      30.306  16.902 -24.232  0.00  0.00     0.050 A 
ATOM      7  C   UNL d   1      30.948  15.549 -23.550  0.00  0.00     0.007 A 
ATOM      8  C   UNL d   1      29.847  16.231 -24.130  0.00  0.00     0.105 A 
ATOM      9  O   UNL d   1      32.734  15.842 -23.112  0.00  0.00    -0.284 OA
ATOM     10  C   UNL d   1      30.155  15.552 -23.792  0.00  0.00     0.025 A 
ENDROOT
BRANCH   1  11
ATOM     11  C   UNL d   1      33.098  17.533 -23.610  0.00  0.00     0.028 C 
BRANCH  11  12
ATOM     12  C   UNL d   1      33.131  18.331 -23.380  0.00  0.00     0.005 A 
ATOM     13  C   UNL d   1      33.208  18.908 -23.958  0.00  0.00     0.021 A 
ATOM     14  C   UNL d   1      33.241  19.703 -23.741  0.00  0.00     0.099 A 
ATOM     15  N   UNL d   1      33.197  19.913 -22.942  0.00  0.00    -0.242 NA
ATOM     16  C   UNL d   1      33.120  19.329 -22.365  0.00  0.00     0.099 A 
ATOM     17  C   UNL d   1      33.087  18.537 -22.585  0.00  0.00     0.021 A 
ENDBRANCH  11  12
ENDBRANCH   1  11
BRANCH   8  18
ATOM     18  O   UNL d   1      29.057  16.239 -24.373  0.00  0.00    -0.273 OA
BRANCH  18  19
ATOM     19  C   UNL d   1      28.446  16.283 -23.811  0.00  0.00     0.300 C 
ATOM     20  O   UNL d   1      28.254  17.009 -23.475  0.00  0.00    -0.259 OA
ATOM     21  C   UNL d   1      28.037  15.599 -23.594  0.00  0.00     0.074 C 
ENDBRANCH  18  19
ENDBRANCH   8  18
TORSDOF 4
ENDMDL
MODEL 3
REMARK VINA RESULT:      -2.7      1.755      3.210
REMARK  4 active torsions:
REMARK  status: ('A' for Active; 'I' for Inactive)
REMARK    1  A    between atoms: C_6  and  C_1 
REMARK    2  A    between atoms: C_16  and  C_6 
REMARK    3  A    between atoms: C_9  and  O_12 
REMARK    4  A    between atoms: O_12  and  C_10 
ROOT
ATOM      1  C   UNL d   1      30.605  16.643 -24.643  0.00  0.00     0.139 A 
ATOM      2  C   UNL d   1      31.911  16.863 -24.470  0.00  0.00     0.064 A 
ATOM      3  C   UNL d   1      31.357  16.315 -24.752  0.00  0.00     0.220 A 
ATOM      4  C   UNL d   1      31.506  17.523 -24.190  0.00  0.00     0.105 A 
ATOM      5  O   UNL d   1      30.696  17.392 -24.295  0.00  0.00    -0.304 OA
ATOM      6  C   UNL d   1      31.925  18.159 -23.876  0.00  0.00     0.050 A 
ATOM      7  C   UNL d   1      32.735  16.840 -24.435  0.00  0.00     0.007 A 
ATOM      8  C   UNL d   1      32.744  18.130 -23.844  0.00  0.00     0.105 A 
ATOM      9  O   UNL d   1      31.527  15.578 -25.080  0.00  0.00    -0.284 OA
ATOM     10  C   UNL d   1      33.157  17.479 -24.119  0.00  0.00     0.025 A 
ENDROOT
BRANCH   1  11
ATOM     11  C   UNL d   1      29.890  16.289 -24.845  0.00  0.00     0.028 C 
BRANCH  11  12
ATOM     12  C   UNL d   1      29.264  16.256 -24.298  0.00  0.00     0.005 A 
ATOM     13  C   UNL d   1      29.183  15.589 -23.828  0.00  0.00     0.021 A 
ATOM     14  C   UNL d   1      28.566  15.546 -23.283  0.00  0.00     0.099 A 
ATOM     15  N   UNL d   1      28.033  16.175 -23.213  0.00  0.00    -0.242 NA
ATOM     16  C   UNL d   1      28.120  16.844 -23.689  0.00  0.00     0.099 A 
ATOM     17  C   UNL d   1      28.736  16.884 -24.231  0.00  0.00     0.021 A 
ENDBRANCH  11  12
ENDBRANCH   1  11
BRANCH   8  18
ATOM     18  O   UNL d   1      33.161  18.770 -23.528  0.00  0.00    -0.273 OA
BRANCH  18  19
ATOM     19  C   UNL d   1      33.095  18.956 -22.720  0.00  0.00     0.300 C 
ATOM     20  O   UNL d   1      33.239  18.375 -22.156  0.00  0.00    -0.259 OA
ATOM     21  C   UNL d   1      32.884  19.721 -22.490  0.00  0.00     0.074 C 
ENDBRANCH  18  19
ENDBRANCH   8  18
TORSDOF 4
ENDMDL
MODEL 4
REMARK VINA RESULT:      -2.6      2.038      4.736
REMARK  4 active torsions:
REMARK  status: ('A' for Active; 'I' for Inactive)
REMARK    1  A    between atoms: C_6  and  C_1 
REMARK    2  A    between atoms: C_16  and  C_6 
REMARK    3  A    between atoms: C_9  and  O_12 
REMARK    4  A    between atoms: O_12  and  C_10 
ROOT
ATOM      1  C   UNL d   1      33.241  20.993 -21.582  0.00  0.00     0.139 A 
ATOM      2  C   UNL d   1      33.241  19.724 -21.997  0.00  0.00     0.064 A 
ATOM      3  C   UNL d   1      33.241  20.207 -21.324  0.00  0.00     0.220 A 
ATOM      4  C   UNL d   1      33.241  20.206 -22.664  0.00  0.00     0.105 A 
ATOM      5  O   UNL d   1      33.241  20.994 -22.412  0.00  0.00    -0.304 OA
ATOM      6  C   UNL d   1      33.241  19.868 -23.416  0.00  0.00     0.050 A 
ATOM      7  C   UNL d   1      33.241  18.903 -22.082  0.00  0.00     0.007 A 
ATOM      8  C   UNL d   1      33.241  19.052 -23.494  0.00  0.00     0.105 A 
ATOM      9  O   UNL d   1      33.241  19.948 -20.542  0.00  0.00    -0.284 OA
ATOM     10  C   UNL d   1      33.241  18.562 -22.838  0.00  0.00     0.025 A 
ENDROOT
BRANCH   1  11
ATOM     11  C   UNL d   1      33.241  21.660 -21.099  0.00  0.00     0.028 C 
BRANCH  11  12
ATOM     12  C   UNL d   1      32.826  22.345 -21.323  0.00  0.00     0.005 A 
ATOM     13  C   UNL d   1      33.119  22.802 -21.937  0.00  0.00     0.021 A 
ATOM     14  C   UNL d   1      32.715  23.484 -22.166  0.00  0.00     0.099 A 
ATOM     15  N   UNL d   1      32.019  23.702 -21.777  0.00  0.00    -0.242 NA
ATOM     16  C   UNL d   1      31.730  23.237 -21.160  0.00  0.00     0.099 A 
ATOM     17  C   UNL d   1      32.134  22.558 -20.933  0.00  0.00     0.021 A 
ENDBRANCH  11  12
ENDBRANCH   1  11
BRANCH   8  18
ATOM     18  O   UNL d   1      33.241  18.715 -24.250  0.00  0.00    -0.273 OA
BRANCH  18  19
ATOM     19  C   UNL d   1      32.640  18.186 -24.472  0.00  0.00     0.300 C 
ATOM     20  O   UNL d   1      31.878  18.468 -24.607  0.00  0.00    -0.259 OA
ATOM     21  C   UNL d   1      32.811  17.382 -24.556  0.00  0.00     0.074 C 
ENDBRANCH  18  19
ENDBRANCH   8  18
TORSDOF 4
ENDMDL
MODEL 5
REMARK VINA RESULT:      -2.2      1.883      4.243
REMARK  4 active torsions:
REMARK  status: ('A' for Active; 'I' for Inactive)
REMARK    1  A    between atoms: C_6  and  C_1 
REMARK    2  A    between atoms: C_16  and  C_6 
REMARK    3  A    between atoms: C_9  and  O_12 
REMARK    4  A    between atoms: O_12  and  C_10 
ROOT
ATOM      1  C   UNL d   1      32.602  18.301 -23.715  0.00  0.00     0.139 A 
ATOM      2  C   UNL d   1      31.651  17.764 -24.484  0.00  0.00     0.064 A 
ATOM      3  C   UNL d   1      32.256  18.330 -24.466  0.00  0.00     0.220 A 
ATOM      4  C   UNL d   1      31.624  17.389 -23.752  0.00  0.00     0.105 A 
ATOM      5  O   UNL d   1      32.211  17.718 -23.271  0.00  0.00    -0.304 OA
ATOM      6  C   UNL d   1      31.068  16.795 -23.615  0.00  0.00     0.050 A 
ATOM      7  C   UNL d   1      31.123  17.545 -25.079  0.00  0.00     0.007 A 
ATOM      8  C   UNL d   1      30.546  16.582 -24.210  0.00  0.00     0.105 A 
ATOM      9  O   UNL d   1      32.471  18.830 -25.085  0.00  0.00    -0.284 OA
ATOM     10  C   UNL d   1      30.564  16.948 -24.943  0.00  0.00     0.025 A 
ENDROOT
BRANCH   1  11
ATOM     11  C   UNL d   1      33.226  18.769 -23.452  0.00  0.00     0.028 C 
BRANCH  11  12
ATOM     12  C   UNL d   1      33.129  19.278 -22.801  0.00  0.00     0.005 A 
ATOM     13  C   UNL d   1      33.236  18.979 -22.046  0.00  0.00     0.021 A 
ATOM     14  C   UNL d   1      33.143  19.474 -21.393  0.00  0.00     0.099 A 
ATOM     15  N   UNL d   1      32.942  20.269 -21.505  0.00  0.00    -0.242 NA
ATOM     16  C   UNL d   1      32.836  20.564 -22.268  0.00  0.00     0.099 A 
ATOM     17  C   UNL d   1      32.930  20.068 -22.916  0.00  0.00     0.021 A 
ENDBRANCH  11  12
ENDBRANCH   1  11
BRANCH   8  18
ATOM     18  O   UNL d   1      29.990  15.986 -24.070  0.00  0.00    -0.273 OA
BRANCH  18  19
ATOM     19  C   UNL d   1      29.393  16.096 -23.502  0.00  0.00     0.300 C 
ATOM     20  O   UNL d   1      29.478  15.767 -22.753  0.00  0.00    -0.259 OA
ATOM     21  C   UNL d   1      28.720  16.534 -23.694  0.00  0.00     0.074 C 
ENDBRANCH  18  19
ENDBRANCH   8  18
TORSDOF 4
ENDMDL
MODEL 6
REMARK VINA RESULT:      -0.9      2.377      5.053
REMARK  4 active torsions:
REMARK  status: ('A' for Active; 'I' for Inactive)
REMARK    1  A    between atoms: C_6  and  C_1 
REMARK    2  A    between atoms: C_16  and  C_6 
REMARK    3  A    between atoms: C_9  and  O_12 
REMARK    4  A    between atoms: O_12  and  C_10 
ROOT
ATOM      1  C   UNL d   1      33.220  22.731 -21.967  0.00  0.00     0.139 A 
ATOM      2  C   UNL d   1      33.214  21.948 -23.048  0.00  0.00     0.064 A 
ATOM      3  C   UNL d   1      33.208  22.736 -22.793  0.00  0.00     0.220 A 
ATOM      4  C   UNL d   1      33.229  21.460 -22.385  0.00  0.00     0.105 A 
ATOM      5  O   UNL d   1      33.233  21.941 -21.712  0.00  0.00    -0.304 OA
ATOM      6  C   UNL d   1      33.238  20.641 -22.477  0.00  0.00     0.050 A 
ATOM      7  C   UNL d   1      33.207  21.615 -23.803  0.00  0.00     0.007 A 
ATOM      8  C   UNL d   1      33.231  20.317 -23.231  0.00  0.00     0.105 A 
ATOM      9  O   UNL d   1      33.192  23.402 -23.279  0.00  0.00    -0.284 OA
ATOM     10  C   UNL d   1      33.216  20.792 -23.897  0.00  0.00     0.025 A 
ENDROOT
BRANCH   1  11
ATOM     11  C   UNL d   1      33.218  23.394 -21.479  0.00  0.00     0.028 C 
BRANCH  11  12
ATOM     12  C   UNL d   1      32.814  23.386 -20.753  0.00  0.00     0.005 A 
ATOM     13  C   UNL d   1      33.241  23.276 -20.062  0.00  0.00     0.021 A 
ATOM     14  C   UNL d   1      32.849  23.266 -19.337  0.00  0.00     0.099 A 
ATOM     15  N   UNL d   1      32.029  23.367 -19.310  0.00  0.00    -0.242 NA
ATOM     16  C   UNL d   1      31.604  23.478 -20.009  0.00  0.00     0.099 A 
ATOM     17  C   UNL d   1      31.997  23.487 -20.731  0.00  0.00     0.021 A 
ENDBRANCH  11  12
ENDBRANCH   1  11
BRANCH   8  18
ATOM     18  O   UNL d   1      33.240  19.495 -23.320  0.00  0.00    -0.273 OA
BRANCH  18  19
ATOM     19  C   UNL d   1      32.530  19.063 -23.294  0.00  0.00     0.300 C 
ATOM     20  O   UNL d   1      32.246  18.789 -22.572  0.00  0.00    -0.259 OA
ATOM     21  C   UNL d   1      32.116  18.912 -23.993  0.00  0.00     0.074 C 
ENDBRANCH  18  19
ENDBRANCH   8  18
TORSDOF 4
ENDMDL
