MODEL 1
REMARK VINA RESULT:      43.2      0.000      0.000
REMARK  3 active torsions:
REMARK  status: ('A' for Active; 'I' for Inactive)
REMARK    1  A    between atoms: C_9  and  C_1 
REMARK    2  A    between atoms: C_11  and  C_2 
REMARK    3  A    between atoms: C_3  and  C_9 
ROOT
ATOM      1  C   UNL d   1     -50.819  26.069  33.306  0.00  0.00     0.003 A 
ATOM      2  C   UNL d   1     -51.613  24.637  33.306  0.00  0.00    -0.023 A 
ATOM      3  C   UNL d   1     -51.642  26.047  33.306  0.00  0.00    -0.000 A 
ATOM      4  C   UNL d   1     -50.402  25.372  33.306  0.00  0.00    -0.000 A 
ATOM      5  C   UNL d   1     -50.793  24.655  33.306  0.00  0.00    -0.004 A 
ATOM      6  C   UNL d   1     -52.031  25.334  33.306  0.00  0.00    -0.004 A 
ATOM      7  C   UNL d   1     -49.572  25.389  33.306  0.00  0.00    -0.000 C 
ATOM      8  C   UNL d   1     -52.074  26.752  33.305  0.00  0.00    -0.000 C 
ENDROOT
BRANCH   1   9
ATOM      9  C   UNL d   1     -50.425  26.793  33.305  0.00  0.00     0.039 C 
BRANCH   9  10
ATOM     10  C   UNL d   1     -49.843  27.140  33.780  0.00  0.00     0.163 A 
ATOM     11  N   UNL d   1     -49.865  27.213  34.603  0.00  0.00    -0.224 NA
ATOM     12  C   UNL d   1     -49.173  27.591  34.837  0.00  0.00     0.121 A 
ATOM     13  C   UNL d   1     -48.717  27.757  34.171  0.00  0.00     0.121 A 
ATOM     14  N   UNL d   1     -49.128  27.479  33.512  0.00  0.00    -0.224 NA
ENDBRANCH   9  10
ENDBRANCH   1   9
BRANCH   2  15
ATOM     15  C   UNL d   1     -52.008  23.912  33.306  0.00  0.00     0.019 C 
ATOM     16  C   UNL d   1     -52.403  23.188  33.306  0.00  0.00     0.004 C 
ATOM     17  C   UNL d   1     -52.732  24.307  33.306  0.00  0.00     0.004 C 
ATOM     18  C   UNL d   1     -51.284  23.518  33.306  0.00  0.00     0.004 C 
ENDBRANCH   2  15
TORSDOF 3
ENDMDL
MODEL 2
REMARK VINA RESULT:      44.5      1.364      3.628
REMARK  3 active torsions:
REMARK  status: ('A' for Active; 'I' for Inactive)
REMARK    1  A    between atoms: C_9  and  C_1 
REMARK    2  A    between atoms: C_11  and  C_2 
REMARK    3  A    between atoms: C_3  and  C_9 
ROOT
ATOM      1  C   UNL d   1     -50.960  26.161  33.490  0.00  0.00     0.003 A 
ATOM      2  C   UNL d   1     -49.926  27.376  33.854  0.00  0.00    -0.023 A 
ATOM      3  C   UNL d   1     -51.245  26.911  33.672  0.00  0.00    -0.000 A 
ATOM      4  C   UNL d   1     -50.159  26.027  33.491  0.00  0.00    -0.000 A 
ATOM      5  C   UNL d   1     -49.638  26.630  33.672  0.00  0.00    -0.004 A 
ATOM      6  C   UNL d   1     -50.727  27.511  33.852  0.00  0.00    -0.004 A 
ATOM      7  C   UNL d   1     -49.867  25.271  33.307  0.00  0.00    -0.000 C 
ATOM      8  C   UNL d   1     -52.059  27.056  33.673  0.00  0.00    -0.000 C 
ENDROOT
BRANCH   1   9
ATOM      9  C   UNL d   1     -51.486  25.552  33.307  0.00  0.00     0.039 C 
BRANCH   9  10
ATOM     10  C   UNL d   1     -51.481  24.730  33.398  0.00  0.00     0.163 A 
ATOM     11  N   UNL d   1     -50.811  24.255  33.489  0.00  0.00    -0.224 NA
ATOM     12  C   UNL d   1     -51.068  23.477  33.560  0.00  0.00     0.121 A 
ATOM     13  C   UNL d   1     -51.891  23.458  33.516  0.00  0.00     0.121 A 
ATOM     14  N   UNL d   1     -52.152  24.233  33.415  0.00  0.00    -0.224 NA
ENDBRANCH   9  10
ENDBRANCH   1   9
BRANCH   2  15
ATOM     15  C   UNL d   1     -49.399  27.985  34.036  0.00  0.00     0.019 C 
ATOM     16  C   UNL d   1     -48.873  28.594  34.219  0.00  0.00     0.004 C 
ATOM     17  C   UNL d   1     -48.926  27.451  34.451  0.00  0.00     0.004 C 
ATOM     18  C   UNL d   1     -49.873  28.519  33.622  0.00  0.00     0.004 C 
ENDBRANCH   2  15
TORSDOF 3
ENDMDL
