MODEL 1
REMARK VINA RESULT:      27.6      0.000      0.000
REMARK  0 active torsions:
REMARK  status: ('A' for Active; 'I' for Inactive)
ROOT
ATOM      1  C   UNL d   1     -57.002 -98.769 -44.023  0.00  0.00     0.106 A 
ATOM      2  O   UNL d   1     -57.398 -98.764 -43.307  0.00  0.00    -0.273 OA
ATOM      3  C   UNL d   1     -58.227 -98.760 -43.296  0.00  0.00     0.300 A 
ATOM      4  C   UNL d   1     -58.244 -98.767 -44.723  0.00  0.00     0.007 A 
ATOM      5  C   UNL d   1     -57.427 -98.770 -44.736  0.00  0.00     0.023 A 
ATOM      6  C   UNL d   1     -58.651 -98.762 -44.005  0.00  0.00     0.064 A 
ATOM      7  C   UNL d   1     -56.178 -98.773 -44.035  0.00  0.00     0.062 A 
ATOM      8  C   UNL d   1     -57.024 -98.775 -45.452  0.00  0.00     0.005 A 
ATOM      9  C   UNL d   1     -55.776 -98.778 -44.760  0.00  0.00     0.198 A 
ATOM     10  O   UNL d   1     -58.636 -98.755 -42.567  0.00  0.00    -0.259 OA
ATOM     11  C   UNL d   1     -56.199 -98.779 -45.469  0.00  0.00     0.042 A 
ATOM     12  C   UNL d   1     -58.669 -98.768 -45.435  0.00  0.00     0.000 A 
ATOM     13  C   UNL d   1     -59.471 -98.758 -43.991  0.00  0.00     0.005 A 
ATOM     14  O   UNL d   1     -54.944 -98.782 -44.772  0.00  0.00    -0.286 OA
ATOM     15  C   UNL d   1     -55.764 -98.772 -43.341  0.00  0.00     0.005 C 
ATOM     16  C   UNL d   1     -59.493 -98.764 -45.424  0.00  0.00     0.000 A 
ATOM     17  C   UNL d   1     -59.907 -98.759 -44.696  0.00  0.00     0.000 A 
ENDROOT
TORSDOF 0
ENDMDL
