MODEL 1
REMARK VINA RESULT:      -4.0      0.000      0.000
REMARK  4 active torsions:
REMARK  status: ('A' for Active; 'I' for Inactive)
REMARK    1  A    between atoms: C_14  and  N_3 
REMARK    2  A    between atoms: C_13  and  N_7 
REMARK       I    between atoms: N_9  and  C_10 
REMARK    3  A    between atoms: C_10  and  C_13 
REMARK    4  A    between atoms: C_19  and  C_14 
ROOT
ATOM      1  C   UNL d   1     -41.587-122.662 -52.074  0.00  0.00     0.191 A 
ATOM      2  C   UNL d   1     -41.698-122.072 -51.509  0.00  0.00     0.196 A 
ATOM      3  N   UNL d   1     -41.416-122.301 -52.788  0.00  0.00    -0.191 N 
ATOM      4  N   UNL d   1     -41.658-123.465 -51.859  0.00  0.00    -0.204 NA
ATOM      5  N   UNL d   1     -41.591-121.344 -51.889  0.00  0.00    -0.122 NA
ATOM      6  N   UNL d   1     -41.418-121.494 -52.679  0.00  0.00    -0.058 NA
ATOM      7  N   UNL d   1     -41.951-123.061 -50.510  0.00  0.00    -0.249 N 
ATOM      8  C   UNL d   1     -41.878-122.260 -50.734  0.00  0.00     0.289 A 
ATOM      9  C   UNL d   1     -41.841-123.667 -51.071  0.00  0.00     0.187 A 
ATOM     10  O   UNL d   1     -41.989-121.670 -50.168  0.00  0.00    -0.265 OA
ENDROOT
BRANCH   7  11
ATOM     11  C   UNL d   1     -42.130-123.268 -49.739  0.00  0.00     0.146 C 
BRANCH  11  12
ATOM     12  C   UNL d   1     -42.893-123.443 -49.501  0.00  0.00     0.283 C 
ATOM     13  N   UNL d   1     -43.088-123.543 -48.697  0.00  0.00    -0.272 N 
ATOM     14  C   UNL d   1     -42.492-123.463 -48.122  0.00  0.00     0.067 A 
ATOM     15  C   UNL d   1     -43.848-123.717 -48.479  0.00  0.00     0.083 A 
ATOM     16  C   UNL d   1     -42.686-123.563 -47.318  0.00  0.00     0.016 A 
ATOM     17  C   UNL d   1     -41.722-123.288 -48.334  0.00  0.00     0.018 A 
ATOM     18  C   UNL d   1     -42.090-123.483 -46.741  0.00  0.00     0.001 A 
ATOM     19  C   UNL d   1     -43.451-123.736 -47.114  0.00  0.00     0.003 A 
ATOM     20  C   UNL d   1     -41.322-123.308 -46.962  0.00  0.00     0.000 A 
ATOM     21  C   UNL d   1     -41.128-123.208 -47.766  0.00  0.00     0.002 A 
ATOM     22  C   UNL d   1     -44.044-123.817 -47.675  0.00  0.00     0.019 A 
ATOM     23  O   UNL d   1     -43.489-123.523 -50.078  0.00  0.00    -0.265 OA
ENDBRANCH  11  12
ENDBRANCH   7  11
BRANCH   3  24
ATOM     24  C   UNL d   1     -41.266-122.694 -53.502  0.00  0.00     0.104 C 
BRANCH  24  25
ATOM     25  C   UNL d   1     -41.609-122.441 -54.191  0.00  0.00     0.019 A 
ATOM     26  C   UNL d   1     -41.148-122.100 -54.783  0.00  0.00     0.002 A 
ATOM     27  C   UNL d   1     -41.499-121.848 -55.472  0.00  0.00     0.000 A 
ATOM     28  C   UNL d   1     -42.307-121.927 -55.590  0.00  0.00     0.000 A 
ATOM     29  C   UNL d   1     -42.768-122.268 -54.997  0.00  0.00     0.000 A 
ATOM     30  C   UNL d   1     -42.425-122.521 -54.308  0.00  0.00     0.002 A 
ENDBRANCH  24  25
ENDBRANCH   3  24
TORSDOF 4
ENDMDL
MODEL 2
REMARK VINA RESULT:      -2.7      1.164      5.828
REMARK  4 active torsions:
REMARK  status: ('A' for Active; 'I' for Inactive)
REMARK    1  A    between atoms: C_14  and  N_3 
REMARK    2  A    between atoms: C_13  and  N_7 
REMARK       I    between atoms: N_9  and  C_10 
REMARK    3  A    between atoms: C_10  and  C_13 
REMARK    4  A    between atoms: C_19  and  C_14 
ROOT
ATOM      1  C   UNL d   1     -41.903-122.466 -50.164  0.00  0.00     0.191 A 
ATOM      2  C   UNL d   1     -42.596-122.473 -50.612  0.00  0.00     0.196 A 
ATOM      3  N   UNL d   1     -42.112-122.457 -49.373  0.00  0.00    -0.191 N 
ATOM      4  N   UNL d   1     -41.160-122.468 -50.545  0.00  0.00    -0.204 NA
ATOM      5  N   UNL d   1     -43.231-122.469 -50.081  0.00  0.00    -0.122 NA
ATOM      6  N   UNL d   1     -42.924-122.459 -49.318  0.00  0.00    -0.058 NA
ATOM      7  N   UNL d   1     -41.830-122.485 -51.817  0.00  0.00    -0.249 N 
ATOM      8  C   UNL d   1     -42.569-122.482 -51.428  0.00  0.00     0.289 A 
ATOM      9  C   UNL d   1     -41.123-122.477 -51.377  0.00  0.00     0.187 A 
ATOM     10  O   UNL d   1     -43.261-122.490 -51.876  0.00  0.00    -0.265 OA
ENDROOT
BRANCH   7  11
ATOM     11  C   UNL d   1     -41.784-122.494 -52.635  0.00  0.00     0.146 C 
BRANCH  11  12
ATOM     12  C   UNL d   1     -41.467-123.126 -53.046  0.00  0.00     0.283 C 
ATOM     13  N   UNL d   1     -41.455-123.142 -53.879  0.00  0.00    -0.272 N 
ATOM     14  C   UNL d   1     -41.774-122.501 -54.303  0.00  0.00     0.067 A 
ATOM     15  C   UNL d   1     -41.137-123.775 -54.271  0.00  0.00     0.083 A 
ATOM     16  C   UNL d   1     -41.763-122.518 -55.136  0.00  0.00     0.016 A 
ATOM     17  C   UNL d   1     -42.097-121.858 -53.914  0.00  0.00     0.018 A 
ATOM     18  C   UNL d   1     -42.082-121.876 -55.561  0.00  0.00     0.001 A 
ATOM     19  C   UNL d   1     -41.441-123.158 -55.514  0.00  0.00     0.003 A 
ATOM     20  C   UNL d   1     -42.403-121.236 -55.164  0.00  0.00     0.000 A 
ATOM     21  C   UNL d   1     -42.414-121.220 -54.332  0.00  0.00     0.002 A 
ATOM     22  C   UNL d   1     -41.125-123.793 -55.104  0.00  0.00     0.019 A 
ATOM     23  O   UNL d   1     -41.148-123.767 -52.621  0.00  0.00    -0.265 OA
ENDBRANCH  11  12
ENDBRANCH   7  11
BRANCH   3  24
ATOM     24  C   UNL d   1     -41.581-122.449 -48.737  0.00  0.00     0.104 C 
BRANCH  24  25
ATOM     25  C   UNL d   1     -41.748-122.858 -48.057  0.00  0.00     0.019 A 
ATOM     26  C   UNL d   1     -42.460-122.732 -47.661  0.00  0.00     0.002 A 
ATOM     27  C   UNL d   1     -42.620-123.146 -46.979  0.00  0.00     0.000 A 
ATOM     28  C   UNL d   1     -42.084-123.690 -46.678  0.00  0.00     0.000 A 
ATOM     29  C   UNL d   1     -41.372-123.815 -47.074  0.00  0.00     0.000 A 
ATOM     30  C   UNL d   1     -41.206-123.406 -47.754  0.00  0.00     0.002 A 
ENDBRANCH  24  25
ENDBRANCH   3  24
TORSDOF 4
ENDMDL
