MODEL 1
REMARK VINA RESULT:      41.5      0.000      0.000
REMARK  6 active torsions:
REMARK  status: ('A' for Active; 'I' for Inactive)
REMARK    1  A    between atoms: C_7  and  C_3 
REMARK    2  A    between atoms: C_6  and  O_14 
REMARK    3  A    between atoms: S_8  and  C_7 
REMARK    4  A    between atoms: C_17  and  S_8 
REMARK    5  A    between atoms: O_14  and  C_18 
REMARK    6  A    between atoms: C_18  and  C_17 
ROOT
ATOM      1  S   UNL d   1     -49.564  27.246  33.951  0.00  0.00    -0.081 SA
ENDROOT
BRANCH   1   2
ATOM      2  C   UNL d   1     -49.992  26.961  33.309  0.00  0.00     0.074 C 
BRANCH   2   3
ATOM      3  C   UNL d   1     -50.260  26.183  33.309  0.00  0.00     0.169 A 
ATOM      4  N   UNL d   1     -50.179  25.350  33.308  0.00  0.00    -0.225 NA
ATOM      5  C   UNL d   1     -50.947  25.015  33.308  0.00  0.00     0.101 A 
ATOM      6  C   UNL d   1     -51.493  25.644  33.309  0.00  0.00     0.101 A 
ATOM      7  C   UNL d   1     -51.230  24.234  33.307  0.00  0.00     0.021 A 
ATOM      8  N   UNL d   1     -51.077  26.368  33.309  0.00  0.00    -0.225 NA
ATOM      9  C   UNL d   1     -52.311  25.481  33.309  0.00  0.00     0.021 A 
ATOM     10  C   UNL d   1     -52.573  24.709  33.308  0.00  0.00     0.002 A 
ATOM     11  C   UNL d   1     -52.033  24.085  33.307  0.00  0.00     0.002 A 
ENDBRANCH   2   3
ENDBRANCH   1   2
BRANCH   1  12
ATOM     12  C   UNL d   1     -49.367  28.044  33.991  0.00  0.00     0.062 C 
BRANCH  12  13
ATOM     13  C   UNL d   1     -48.914  28.325  34.619  0.00  0.00     0.130 C 
BRANCH  13  14
ATOM     14  O   UNL d   1     -48.197  27.959  34.797  0.00  0.00    -0.305 OA
BRANCH  14  15
ATOM     15  C   UNL d   1     -47.931  28.669  35.124  0.00  0.00     0.100 A 
ATOM     16  C   UNL d   1     -48.297  28.979  35.783  0.00  0.00     0.025 A 
ATOM     17  C   UNL d   1     -48.034  29.688  36.112  0.00  0.00     0.002 A 
ATOM     18  C   UNL d   1     -47.400  30.084  35.774  0.00  0.00     0.000 A 
ATOM     19  C   UNL d   1     -47.029  29.767  35.105  0.00  0.00     0.002 A 
ATOM     20  C   UNL d   1     -47.133  30.794  36.100  0.00  0.00     0.000 C 
ATOM     21  C   UNL d   1     -47.299  29.058  34.782  0.00  0.00     0.025 A 
ENDBRANCH  14  15
ENDBRANCH  13  14
ENDBRANCH  12  13
ENDBRANCH   1  12
TORSDOF 6
ENDMDL
MODEL 2
REMARK VINA RESULT:      43.6      1.486      5.680
REMARK  6 active torsions:
REMARK  status: ('A' for Active; 'I' for Inactive)
REMARK    1  A    between atoms: C_7  and  C_3 
REMARK    2  A    between atoms: C_6  and  O_14 
REMARK    3  A    between atoms: S_8  and  C_7 
REMARK    4  A    between atoms: C_17  and  S_8 
REMARK    5  A    between atoms: O_14  and  C_18 
REMARK    6  A    between atoms: C_18  and  C_17 
ROOT
ATOM      1  S   UNL d   1     -49.623  27.595  33.832  0.00  0.00    -0.081 SA
ENDROOT
BRANCH   1   2
ATOM      2  C   UNL d   1     -49.239  27.711  34.550  0.00  0.00     0.074 C 
BRANCH   2   3
ATOM      3  C   UNL d   1     -48.679  28.309  34.623  0.00  0.00     0.169 A 
ATOM      4  N   UNL d   1     -48.103  28.850  34.346  0.00  0.00    -0.225 NA
ATOM      5  C   UNL d   1     -47.819  29.285  35.005  0.00  0.00     0.101 A 
ATOM      6  C   UNL d   1     -48.223  29.007  35.678  0.00  0.00     0.101 A 
ATOM      7  C   UNL d   1     -47.256  29.889  35.091  0.00  0.00     0.021 A 
ATOM      8  N   UNL d   1     -48.755  28.405  35.451  0.00  0.00    -0.225 NA
ATOM      9  C   UNL d   1     -48.056  29.339  36.425  0.00  0.00     0.021 A 
ATOM     10  C   UNL d   1     -47.500  29.932  36.493  0.00  0.00     0.002 A 
ATOM     11  C   UNL d   1     -47.100  30.207  35.826  0.00  0.00     0.002 A 
ENDBRANCH   2   3
ENDBRANCH   1   2
BRANCH   1  12
ATOM     12  C   UNL d   1     -49.736  26.831  33.546  0.00  0.00     0.062 C 
BRANCH  12  13
ATOM     13  C   UNL d   1     -50.425  26.420  33.732  0.00  0.00     0.130 C 
BRANCH  13  14
ATOM     14  O   UNL d   1     -51.120  26.585  33.318  0.00  0.00    -0.305 OA
BRANCH  14  15
ATOM     15  C   UNL d   1     -51.295  25.778  33.317  0.00  0.00     0.100 A 
ATOM     16  C   UNL d   1     -50.691  25.228  33.311  0.00  0.00     0.025 A 
ATOM     17  C   UNL d   1     -50.862  24.421  33.310  0.00  0.00     0.002 A 
ATOM     18  C   UNL d   1     -51.644  24.170  33.314  0.00  0.00     0.000 A 
ATOM     19  C   UNL d   1     -52.254  24.729  33.319  0.00  0.00     0.002 A 
ATOM     20  C   UNL d   1     -51.819  23.364  33.313  0.00  0.00     0.000 C 
ATOM     21  C   UNL d   1     -52.074  25.535  33.321  0.00  0.00     0.025 A 
ENDBRANCH  14  15
ENDBRANCH  13  14
ENDBRANCH  12  13
ENDBRANCH   1  12
TORSDOF 6
ENDMDL
