MODEL 1
REMARK VINA RESULT:      -5.8      0.000      0.000
REMARK  8 active torsions:
REMARK  status: ('A' for Active; 'I' for Inactive)
REMARK    1  A    between atoms: C_2  and  S_1 
REMARK    2  A    between atoms: N_8  and  S_1 
REMARK    3  A    between atoms: C_13  and  N_8 
REMARK    4  A    between atoms: N_9  and  C_14 
REMARK    5  A    between atoms: O_15  and  C_10 
REMARK    6  A    between atoms: C_14  and  C_13 
REMARK    7  A    between atoms: C_22  and  O_15 
REMARK    8  A    between atoms: C_23  and  C_22 
ROOT
ATOM      1  C   UNL d   1     -46.581  12.763  22.798  0.00  0.00     0.105 A 
ATOM      2  C   UNL d   1     -46.152  12.095  23.019  0.00  0.00     0.014 A 
ATOM      3  C   UNL d   1     -45.365  12.009  22.783  0.00  0.00     0.024 A 
ATOM      4  C   UNL d   1     -46.227  13.344  22.342  0.00  0.00     0.015 A 
ATOM      5  C   UNL d   1     -45.011  12.600  22.322  0.00  0.00     0.100 A 
ATOM      6  C   UNL d   1     -45.441  13.262  22.103  0.00  0.00     0.025 A 
ATOM      7  C   UNL d   1     -46.506  11.515  23.475  0.00  0.00     0.001 A 
ATOM      8  C   UNL d   1     -44.939  11.344  23.004  0.00  0.00     0.002 A 
ATOM      9  C   UNL d   1     -46.083  10.848  23.698  0.00  0.00     0.000 A 
ATOM     10  C   UNL d   1     -45.294  10.758  23.463  0.00  0.00     0.000 A 
ENDROOT
BRANCH   1  11
ATOM     11  S   UNL d   1     -47.368  12.844  23.036  0.00  0.00     0.285 S 
ATOM     12  O   UNL d   1     -47.611  12.414  22.382  0.00  0.00    -0.198 OA
ATOM     13  O   UNL d   1     -47.122  13.279  23.697  0.00  0.00    -0.198 OA
BRANCH  11  14
ATOM     14  N   UNL d   1     -48.153  12.926  23.274  0.00  0.00    -0.155 NA
BRANCH  14  15
ATOM     15  C   UNL d   1     -48.574  13.606  23.063  0.00  0.00     0.131 C 
BRANCH  15  16
ATOM     16  C   UNL d   1     -49.373  13.668  23.263  0.00  0.00     0.102 C 
BRANCH  16  17
ATOM     17  N   UNL d   1     -49.839  14.249  22.917  0.00  0.00    -0.298 N 
ATOM     18  C   UNL d   1     -50.385  14.050  22.335  0.00  0.00     0.107 A 
ATOM     19  C   UNL d   1     -50.854  14.632  21.985  0.00  0.00     0.142 A 
ATOM     20  O   UNL d   1     -50.775  15.420  22.222  0.00  0.00    -0.300 OA
ATOM     21  C   UNL d   1     -50.226  15.622  22.808  0.00  0.00     0.142 A 
ATOM     22  C   UNL d   1     -49.759  15.037  23.154  0.00  0.00     0.107 A 
ENDBRANCH  16  17
ENDBRANCH  15  16
ENDBRANCH  14  15
ENDBRANCH  11  14
ENDBRANCH   1  11
BRANCH   5  23
ATOM     23  O   UNL d   1     -44.226  12.518  22.084  0.00  0.00    -0.305 OA
BRANCH  23  24
ATOM     24  C   UNL d   1     -43.889  13.069  21.580  0.00  0.00     0.123 C 
BRANCH  24  25
ATOM     25  C   UNL d   1     -43.181  12.901  21.196  0.00  0.00     0.027 C 
ATOM     26  C   UNL d   1     -42.600  13.484  21.124  0.00  0.00     0.002 C 
ENDBRANCH  24  25
ENDBRANCH  23  24
ENDBRANCH   5  23
TORSDOF 8
ENDMDL
MODEL 2
REMARK VINA RESULT:      -4.3      1.523      5.125
REMARK  8 active torsions:
REMARK  status: ('A' for Active; 'I' for Inactive)
REMARK    1  A    between atoms: C_2  and  S_1 
REMARK    2  A    between atoms: N_8  and  S_1 
REMARK    3  A    between atoms: C_13  and  N_8 
REMARK    4  A    between atoms: N_9  and  C_14 
REMARK    5  A    between atoms: O_15  and  C_10 
REMARK    6  A    between atoms: C_14  and  C_13 
REMARK    7  A    between atoms: C_22  and  O_15 
REMARK    8  A    between atoms: C_23  and  C_22 
ROOT
ATOM      1  C   UNL d   1     -47.241  13.126  23.006  0.00  0.00     0.105 A 
ATOM      2  C   UNL d   1     -47.915  12.706  23.231  0.00  0.00     0.014 A 
ATOM      3  C   UNL d   1     -48.646  13.088  23.280  0.00  0.00     0.024 A 
ATOM      4  C   UNL d   1     -47.296  13.924  22.832  0.00  0.00     0.015 A 
ATOM      5  C   UNL d   1     -48.696  13.897  23.103  0.00  0.00     0.100 A 
ATOM      6  C   UNL d   1     -48.025  14.310  22.880  0.00  0.00     0.025 A 
ATOM      7  C   UNL d   1     -47.859  11.909  23.405  0.00  0.00     0.001 A 
ATOM      8  C   UNL d   1     -49.314  12.669  23.503  0.00  0.00     0.002 A 
ATOM      9  C   UNL d   1     -48.526  11.487  23.628  0.00  0.00     0.000 A 
ATOM     10  C   UNL d   1     -49.260  11.866  23.679  0.00  0.00     0.000 A 
ENDROOT
BRANCH   1  11
ATOM     11  S   UNL d   1     -46.513  12.741  22.958  0.00  0.00     0.285 S 
ATOM     12  O   UNL d   1     -46.310  13.031  23.698  0.00  0.00    -0.198 OA
ATOM     13  O   UNL d   1     -46.717  12.447  22.210  0.00  0.00    -0.198 OA
BRANCH  11  14
ATOM     14  N   UNL d   1     -45.786  12.356  22.910  0.00  0.00    -0.155 NA
BRANCH  14  15
ATOM     15  C   UNL d   1     -45.207  12.641  22.391  0.00  0.00     0.131 C 
BRANCH  15  16
ATOM     16  C   UNL d   1     -44.513  12.207  22.277  0.00  0.00     0.102 C 
BRANCH  16  17
ATOM     17  N   UNL d   1     -43.875  12.548  21.889  0.00  0.00    -0.298 N 
ATOM     18  C   UNL d   1     -43.148  12.163  21.872  0.00  0.00     0.107 A 
ATOM     19  C   UNL d   1     -42.504  12.503  21.482  0.00  0.00     0.142 A 
ATOM     20  O   UNL d   1     -42.592  13.235  21.108  0.00  0.00    -0.300 OA
ATOM     21  C   UNL d   1     -43.323  13.623  21.124  0.00  0.00     0.142 A 
ATOM     22  C   UNL d   1     -43.963  13.279  21.515  0.00  0.00     0.107 A 
ENDBRANCH  16  17
ENDBRANCH  15  16
ENDBRANCH  14  15
ENDBRANCH  11  14
ENDBRANCH   1  11
BRANCH   5  23
ATOM     23  O   UNL d   1     -49.423  14.281  23.151  0.00  0.00    -0.305 OA
BRANCH  23  24
ATOM     24  C   UNL d   1     -49.454  15.095  23.237  0.00  0.00     0.123 C 
BRANCH  24  25
ATOM     25  C   UNL d   1     -50.141  15.506  23.045  0.00  0.00     0.027 C 
ATOM     26  C   UNL d   1     -50.622  15.809  23.644  0.00  0.00     0.002 C 
ENDBRANCH  24  25
ENDBRANCH  23  24
ENDBRANCH   5  23
TORSDOF 8
ENDMDL
MODEL 3
REMARK VINA RESULT:      -4.2      1.798      5.223
REMARK  8 active torsions:
REMARK  status: ('A' for Active; 'I' for Inactive)
REMARK    1  A    between atoms: C_2  and  S_1 
REMARK    2  A    between atoms: N_8  and  S_1 
REMARK    3  A    between atoms: C_13  and  N_8 
REMARK    4  A    between atoms: N_9  and  C_14 
REMARK    5  A    between atoms: O_15  and  C_10 
REMARK    6  A    between atoms: C_14  and  C_13 
REMARK    7  A    between atoms: C_22  and  O_15 
REMARK    8  A    between atoms: C_23  and  C_22 
ROOT
ATOM      1  C   UNL d   1     -46.226  13.228  22.621  0.00  0.00     0.105 A 
ATOM      2  C   UNL d   1     -46.774  12.727  22.980  0.00  0.00     0.014 A 
ATOM      3  C   UNL d   1     -47.518  13.012  23.198  0.00  0.00     0.024 A 
ATOM      4  C   UNL d   1     -46.419  14.011  22.480  0.00  0.00     0.015 A 
ATOM      5  C   UNL d   1     -47.709  13.806  23.053  0.00  0.00     0.100 A 
ATOM      6  C   UNL d   1     -47.162  14.301  22.696  0.00  0.00     0.025 A 
ATOM      7  C   UNL d   1     -46.581  11.945  23.121  0.00  0.00     0.001 A 
ATOM      8  C   UNL d   1     -48.062  12.513  23.555  0.00  0.00     0.002 A 
ATOM      9  C   UNL d   1     -47.123  11.442  23.478  0.00  0.00     0.000 A 
ATOM     10  C   UNL d   1     -47.869  11.725  23.698  0.00  0.00     0.000 A 
ENDROOT
BRANCH   1  11
ATOM     11  S   UNL d   1     -45.483  12.938  22.405  0.00  0.00     0.285 S 
ATOM     12  O   UNL d   1     -45.757  12.806  21.644  0.00  0.00    -0.198 OA
ATOM     13  O   UNL d   1     -45.207  13.072  23.175  0.00  0.00    -0.198 OA
BRANCH  11  14
ATOM     14  N   UNL d   1     -44.743  12.649  22.190  0.00  0.00    -0.155 NA
BRANCH  14  15
ATOM     15  C   UNL d   1     -44.217  13.140  21.779  0.00  0.00     0.131 C 
BRANCH  15  16
ATOM     16  C   UNL d   1     -43.583  12.804  21.369  0.00  0.00     0.102 C 
BRANCH  16  17
ATOM     17  N   UNL d   1     -42.885  13.226  21.277  0.00  0.00    -0.298 N 
ATOM     18  C   UNL d   1     -42.907  14.023  21.071  0.00  0.00     0.107 A 
ATOM     19  C   UNL d   1     -42.206  14.450  20.978  0.00  0.00     0.142 A 
ATOM     20  O   UNL d   1     -41.480  14.075  21.092  0.00  0.00    -0.300 OA
ATOM     21  C   UNL d   1     -41.455  13.273  21.300  0.00  0.00     0.142 A 
ATOM     22  C   UNL d   1     -42.158  12.851  21.392  0.00  0.00     0.107 A 
ENDBRANCH  16  17
ENDBRANCH  15  16
ENDBRANCH  14  15
ENDBRANCH  11  14
ENDBRANCH   1  11
BRANCH   5  23
ATOM     23  O   UNL d   1     -48.450  14.095  23.269  0.00  0.00    -0.305 OA
BRANCH  23  24
ATOM     24  C   UNL d   1     -48.745  14.775  22.919  0.00  0.00     0.123 C 
BRANCH  24  25
ATOM     25  C   UNL d   1     -49.433  15.123  23.207  0.00  0.00     0.027 C 
ATOM     26  C   UNL d   1     -49.902  15.586  22.708  0.00  0.00     0.002 C 
ENDBRANCH  24  25
ENDBRANCH  23  24
ENDBRANCH   5  23
TORSDOF 8
ENDMDL
MODEL 4
REMARK VINA RESULT:      -4.2      6.116      9.714
REMARK  8 active torsions:
REMARK  status: ('A' for Active; 'I' for Inactive)
REMARK    1  A    between atoms: C_2  and  S_1 
REMARK    2  A    between atoms: N_8  and  S_1 
REMARK    3  A    between atoms: C_13  and  N_8 
REMARK    4  A    between atoms: N_9  and  C_14 
REMARK    5  A    between atoms: O_15  and  C_10 
REMARK    6  A    between atoms: C_14  and  C_13 
REMARK    7  A    between atoms: C_22  and  O_15 
REMARK    8  A    between atoms: C_23  and  C_22 
ROOT
ATOM      1  C   UNL d   1     -39.745  14.976  19.429  0.00  0.00     0.105 A 
ATOM      2  C   UNL d   1     -39.703  15.201  20.221  0.00  0.00     0.014 A 
ATOM      3  C   UNL d   1     -40.266  14.930  20.761  0.00  0.00     0.024 A 
ATOM      4  C   UNL d   1     -40.346  14.482  19.175  0.00  0.00     0.015 A 
ATOM      5  C   UNL d   1     -40.874  14.429  20.499  0.00  0.00     0.100 A 
ATOM      6  C   UNL d   1     -40.911  14.208  19.711  0.00  0.00     0.025 A 
ATOM      7  C   UNL d   1     -39.102  15.695  20.474  0.00  0.00     0.001 A 
ATOM      8  C   UNL d   1     -40.224  15.154  21.548  0.00  0.00     0.002 A 
ATOM      9  C   UNL d   1     -39.056  15.922  21.261  0.00  0.00     0.000 A 
ATOM     10  C   UNL d   1     -39.619  15.652  21.805  0.00  0.00     0.000 A 
ENDROOT
BRANCH   1  11
ATOM     11  S   UNL d   1     -39.179  15.250  18.893  0.00  0.00     0.285 S 
ATOM     12  O   UNL d   1     -39.682  15.861  18.675  0.00  0.00    -0.198 OA
ATOM     13  O   UNL d   1     -38.671  14.633  19.113  0.00  0.00    -0.198 OA
BRANCH  11  14
ATOM     14  N   UNL d   1     -38.615  15.524  18.358  0.00  0.00    -0.155 NA
BRANCH  14  15
ATOM     15  C   UNL d   1     -38.569  15.185  17.605  0.00  0.00     0.131 C 
BRANCH  15  16
ATOM     16  C   UNL d   1     -37.952  15.398  17.099  0.00  0.00     0.102 C 
BRANCH  16  17
ATOM     17  N   UNL d   1     -37.961  15.156  16.315  0.00  0.00    -0.298 N 
ATOM     18  C   UNL d   1     -37.993  15.714  15.710  0.00  0.00     0.107 A 
ATOM     19  C   UNL d   1     -38.003  15.473  14.920  0.00  0.00     0.142 A 
ATOM     20  O   UNL d   1     -37.981  14.668  14.737  0.00  0.00    -0.300 OA
ATOM     21  C   UNL d   1     -37.950  14.105  15.344  0.00  0.00     0.142 A 
ATOM     22  C   UNL d   1     -37.940  14.351  16.132  0.00  0.00     0.107 A 
ENDBRANCH  16  17
ENDBRANCH  15  16
ENDBRANCH  14  15
ENDBRANCH  11  14
ENDBRANCH   1  11
BRANCH   5  23
ATOM     23  O   UNL d   1     -41.438  14.155  21.034  0.00  0.00    -0.305 OA
BRANCH  23  24
ATOM     24  C   UNL d   1     -41.959  13.563  20.815  0.00  0.00     0.123 C 
BRANCH  24  25
ATOM     25  C   UNL d   1     -42.543  13.311  21.339  0.00  0.00     0.027 C 
ATOM     26  C   UNL d   1     -43.216  12.927  21.054  0.00  0.00     0.002 C 
ENDBRANCH  24  25
ENDBRANCH  23  24
ENDBRANCH   5  23
TORSDOF 8
ENDMDL
MODEL 5
REMARK VINA RESULT:      -3.8      1.549      5.461
REMARK  8 active torsions:
REMARK  status: ('A' for Active; 'I' for Inactive)
REMARK    1  A    between atoms: C_2  and  S_1 
REMARK    2  A    between atoms: N_8  and  S_1 
REMARK    3  A    between atoms: C_13  and  N_8 
REMARK    4  A    between atoms: N_9  and  C_14 
REMARK    5  A    between atoms: O_15  and  C_10 
REMARK    6  A    between atoms: C_14  and  C_13 
REMARK    7  A    between atoms: C_22  and  O_15 
REMARK    8  A    between atoms: C_23  and  C_22 
ROOT
ATOM      1  C   UNL d   1     -47.745  13.639  22.807  0.00  0.00     0.105 A 
ATOM      2  C   UNL d   1     -48.295  14.233  22.654  0.00  0.00     0.014 A 
ATOM      3  C   UNL d   1     -49.102  14.091  22.761  0.00  0.00     0.024 A 
ATOM      4  C   UNL d   1     -47.998  12.904  23.066  0.00  0.00     0.015 A 
ATOM      5  C   UNL d   1     -49.353  13.346  23.023  0.00  0.00     0.100 A 
ATOM      6  C   UNL d   1     -48.803  12.758  23.174  0.00  0.00     0.025 A 
ATOM      7  C   UNL d   1     -48.042  14.967  22.395  0.00  0.00     0.001 A 
ATOM      8  C   UNL d   1     -49.647  14.683  22.608  0.00  0.00     0.002 A 
ATOM      9  C   UNL d   1     -48.585  15.562  22.242  0.00  0.00     0.000 A 
ATOM     10  C   UNL d   1     -49.395  15.423  22.348  0.00  0.00     0.000 A 
ENDROOT
BRANCH   1  11
ATOM     11  S   UNL d   1     -46.939  13.785  22.698  0.00  0.00     0.285 S 
ATOM     12  O   UNL d   1     -46.869  13.986  23.490  0.00  0.00    -0.198 OA
ATOM     13  O   UNL d   1     -47.010  13.582  21.898  0.00  0.00    -0.198 OA
BRANCH  11  14
ATOM     14  N   UNL d   1     -46.135  13.932  22.590  0.00  0.00    -0.155 NA
BRANCH  14  15
ATOM     15  C   UNL d   1     -45.632  13.309  22.381  0.00  0.00     0.131 C 
BRANCH  15  16
ATOM     16  C   UNL d   1     -44.872  13.476  22.104  0.00  0.00     0.102 C 
BRANCH  16  17
ATOM     17  N   UNL d   1     -44.312  12.877  22.056  0.00  0.00    -0.298 N 
ATOM     18  C   UNL d   1     -44.353  12.231  22.565  0.00  0.00     0.107 A 
ATOM     19  C   UNL d   1     -43.792  11.627  22.519  0.00  0.00     0.142 A 
ATOM     20  O   UNL d   1     -43.186  11.672  21.959  0.00  0.00    -0.300 OA
ATOM     21  C   UNL d   1     -43.143  12.320  21.447  0.00  0.00     0.142 A 
ATOM     22  C   UNL d   1     -43.707  12.922  21.496  0.00  0.00     0.107 A 
ENDBRANCH  16  17
ENDBRANCH  15  16
ENDBRANCH  14  15
ENDBRANCH  11  14
ENDBRANCH   1  11
BRANCH   5  23
ATOM     23  O   UNL d   1     -50.157  13.199  23.131  0.00  0.00    -0.305 OA
BRANCH  23  24
ATOM     24  C   UNL d   1     -50.405  12.659  23.695  0.00  0.00     0.123 C 
BRANCH  24  25
ATOM     25  C   UNL d   1     -51.062  12.185  23.552  0.00  0.00     0.027 C 
ATOM     26  C   UNL d   1     -51.025  11.372  23.698  0.00  0.00     0.002 C 
ENDBRANCH  24  25
ENDBRANCH  23  24
ENDBRANCH   5  23
TORSDOF 8
ENDMDL
MODEL 6
REMARK VINA RESULT:      -3.5      6.946      9.282
REMARK  8 active torsions:
REMARK  status: ('A' for Active; 'I' for Inactive)
REMARK    1  A    between atoms: C_2  and  S_1 
REMARK    2  A    between atoms: N_8  and  S_1 
REMARK    3  A    between atoms: C_13  and  N_8 
REMARK    4  A    between atoms: N_9  and  C_14 
REMARK    5  A    between atoms: O_15  and  C_10 
REMARK    6  A    between atoms: C_14  and  C_13 
REMARK    7  A    between atoms: C_22  and  O_15 
REMARK    8  A    between atoms: C_23  and  C_22 
ROOT
ATOM      1  C   UNL d   1     -39.776  14.785  19.853  0.00  0.00     0.105 A 
ATOM      2  C   UNL d   1     -40.411  14.507  20.299  0.00  0.00     0.014 A 
ATOM      3  C   UNL d   1     -40.290  14.233  21.069  0.00  0.00     0.024 A 
ATOM      4  C   UNL d   1     -39.022  14.791  20.173  0.00  0.00     0.015 A 
ATOM      5  C   UNL d   1     -39.525  14.241  21.389  0.00  0.00     0.100 A 
ATOM      6  C   UNL d   1     -38.896  14.518  20.943  0.00  0.00     0.025 A 
ATOM      7  C   UNL d   1     -41.163  14.502  19.979  0.00  0.00     0.001 A 
ATOM      8  C   UNL d   1     -40.922  13.957  21.511  0.00  0.00     0.002 A 
ATOM      9  C   UNL d   1     -41.799  14.226  20.419  0.00  0.00     0.000 A 
ATOM     10  C   UNL d   1     -41.682  13.951  21.191  0.00  0.00     0.000 A 
ENDROOT
BRANCH   1  11
ATOM     11  S   UNL d   1     -39.901  15.058  19.084  0.00  0.00     0.285 S 
ATOM     12  O   UNL d   1     -39.626  15.799  19.302  0.00  0.00    -0.198 OA
ATOM     13  O   UNL d   1     -40.179  14.309  18.863  0.00  0.00    -0.198 OA
BRANCH  11  14
ATOM     14  N   UNL d   1     -40.027  15.330  18.316  0.00  0.00    -0.155 NA
BRANCH  14  15
ATOM     15  C   UNL d   1     -39.426  15.253  17.752  0.00  0.00     0.131 C 
BRANCH  15  16
ATOM     16  C   UNL d   1     -39.557  15.512  16.979  0.00  0.00     0.102 C 
BRANCH  16  17
ATOM     17  N   UNL d   1     -39.020  15.324  16.387  0.00  0.00    -0.298 N 
ATOM     18  C   UNL d   1     -38.628  15.922  15.979  0.00  0.00     0.107 A 
ATOM     19  C   UNL d   1     -38.087  15.736  15.383  0.00  0.00     0.142 A 
ATOM     20  O   UNL d   1     -37.940  14.945  15.196  0.00  0.00    -0.300 OA
ATOM     21  C   UNL d   1     -38.333  14.342  15.605  0.00  0.00     0.142 A 
ATOM     22  C   UNL d   1     -38.872  14.533  16.200  0.00  0.00     0.107 A 
ENDBRANCH  16  17
ENDBRANCH  15  16
ENDBRANCH  14  15
ENDBRANCH  11  14
ENDBRANCH   1  11
BRANCH   5  23
ATOM     23  O   UNL d   1     -39.399  13.968  22.157  0.00  0.00    -0.305 OA
BRANCH  23  24
ATOM     24  C   UNL d   1     -38.669  14.067  22.515  0.00  0.00     0.123 C 
BRANCH  24  25
ATOM     25  C   UNL d   1     -38.578  13.916  23.319  0.00  0.00     0.027 C 
ATOM     26  C   UNL d   1     -38.012  13.372  23.576  0.00  0.00     0.002 C 
ENDBRANCH  24  25
ENDBRANCH  23  24
ENDBRANCH   5  23
TORSDOF 8
ENDMDL
