MODEL 1
REMARK VINA RESULT:      -2.8      0.000      0.000
REMARK  4 active torsions:
REMARK  status: ('A' for Active; 'I' for Inactive)
REMARK    1  A    between atoms: C_2  and  S_1 
REMARK    2  A    between atoms: N_3  and  S_1 
REMARK    3  A    between atoms: C_7  and  N_3 
REMARK    4  A    between atoms: C_8  and  C_4 
ROOT
ATOM      1  S   UNL d   1      30.834  17.052 -24.279  0.00  0.00     0.285 S 
ATOM      2  O   UNL d   1      30.657  17.021 -23.472  0.00  0.00    -0.198 OA
ATOM      3  O   UNL d   1      31.009  17.084 -25.094  0.00  0.00    -0.198 OA
ENDROOT
BRANCH   1   4
ATOM      4  C   UNL d   1      31.641  16.926 -24.111  0.00  0.00     0.105 A 
ATOM      5  C   UNL d   1      32.043  17.455 -23.621  0.00  0.00     0.012 A 
ATOM      6  C   UNL d   1      32.839  17.337 -23.452  0.00  0.00     0.001 A 
ATOM      7  C   UNL d   1      31.646  18.115 -23.293  0.00  0.00     0.001 C 
ATOM      8  C   UNL d   1      33.241  17.865 -22.962  0.00  0.00     0.000 C 
ATOM      9  C   UNL d   1      33.241  16.677 -23.778  0.00  0.00     0.000 A 
ATOM     10  C   UNL d   1      32.831  16.151 -24.270  0.00  0.00     0.001 A 
ATOM     11  C   UNL d   1      32.032  16.275 -24.436  0.00  0.00     0.012 A 
ATOM     12  C   UNL d   1      33.227  15.491 -24.599  0.00  0.00     0.000 C 
ATOM     13  C   UNL d   1      31.621  15.753 -24.925  0.00  0.00     0.001 C 
ENDBRANCH   1   4
BRANCH   1  14
ATOM     14  N   UNL d   1      30.030  17.177 -24.449  0.00  0.00    -0.158 NA
BRANCH  14  15
ATOM     15  C   UNL d   1      29.452  16.712 -24.081  0.00  0.00     0.100 A 
ATOM     16  C   UNL d   1      28.677  17.000 -24.000  0.00  0.00     0.083 A 
ATOM     17  C   UNL d   1      28.101  16.540 -23.635  0.00  0.00     0.008 A 
ATOM     18  C   UNL d   1      28.292  15.790 -23.348  0.00  0.00     0.000 A 
ATOM     19  C   UNL d   1      29.058  15.502 -23.426  0.00  0.00     0.002 A 
ATOM     20  C   UNL d   1      29.643  15.963 -23.794  0.00  0.00     0.020 A 
BRANCH  16  21
ATOM     21  C   UNL d   1      28.483  17.749 -24.286  0.00  0.00     0.212 C 
ATOM     22  O   UNL d   1      28.478  17.897 -25.097  0.00  0.00    -0.644 OA
ATOM     23  O   UNL d   1      28.291  18.355 -23.760  0.00  0.00    -0.644 OA
ENDBRANCH  16  21
ENDBRANCH  14  15
ENDBRANCH   1  14
TORSDOF 4
ENDMDL
MODEL 2
REMARK VINA RESULT:      -1.6      2.239      3.708
REMARK  4 active torsions:
REMARK  status: ('A' for Active; 'I' for Inactive)
REMARK    1  A    between atoms: C_2  and  S_1 
REMARK    2  A    between atoms: N_3  and  S_1 
REMARK    3  A    between atoms: C_7  and  N_3 
REMARK    4  A    between atoms: C_8  and  C_4 
ROOT
ATOM      1  S   UNL d   1      32.832  18.661 -23.654  0.00  0.00     0.285 S 
ATOM      2  O   UNL d   1      33.241  18.791 -24.361  0.00  0.00    -0.198 OA
ATOM      3  O   UNL d   1      32.420  18.527 -22.941  0.00  0.00    -0.198 OA
ENDROOT
BRANCH   1   4
ATOM      4  C   UNL d   1      32.960  19.454 -23.430  0.00  0.00     0.105 A 
ATOM      5  C   UNL d   1      33.009  20.039 -24.010  0.00  0.00     0.012 A 
ATOM      6  C   UNL d   1      33.135  20.823 -23.796  0.00  0.00     0.001 A 
ATOM      7  C   UNL d   1      32.933  19.841 -24.820  0.00  0.00     0.001 C 
ATOM      8  C   UNL d   1      33.185  21.408 -24.376  0.00  0.00     0.000 C 
ATOM      9  C   UNL d   1      33.213  21.026 -22.986  0.00  0.00     0.000 A 
ATOM     10  C   UNL d   1      33.162  20.433 -22.409  0.00  0.00     0.001 A 
ATOM     11  C   UNL d   1      33.036  19.649 -22.630  0.00  0.00     0.012 A 
ATOM     12  C   UNL d   1      33.239  20.631 -21.599  0.00  0.00     0.000 C 
ATOM     13  C   UNL d   1      32.985  19.056 -22.058  0.00  0.00     0.001 C 
ENDBRANCH   1   4
BRANCH   1  14
ATOM     14  N   UNL d   1      32.704  17.870 -23.875  0.00  0.00    -0.158 NA
BRANCH  14  15
ATOM     15  C   UNL d   1      31.939  17.612 -24.064  0.00  0.00     0.100 A 
ATOM     16  C   UNL d   1      31.795  16.806 -24.199  0.00  0.00     0.083 A 
ATOM     17  C   UNL d   1      31.036  16.547 -24.386  0.00  0.00     0.008 A 
ATOM     18  C   UNL d   1      30.417  17.089 -24.441  0.00  0.00     0.000 A 
ATOM     19  C   UNL d   1      30.556  17.889 -24.307  0.00  0.00     0.002 A 
ATOM     20  C   UNL d   1      31.320  18.154 -24.118  0.00  0.00     0.020 A 
BRANCH  16  21
ATOM     21  C   UNL d   1      32.412  16.261 -24.146  0.00  0.00     0.212 C 
ATOM     22  O   UNL d   1      32.515  15.814 -23.461  0.00  0.00    -0.644 OA
ATOM     23  O   UNL d   1      32.931  16.161 -24.779  0.00  0.00    -0.644 OA
ENDBRANCH  16  21
ENDBRANCH  14  15
ENDBRANCH   1  14
TORSDOF 4
ENDMDL
MODEL 3
REMARK VINA RESULT:      -0.1      1.165      3.827
REMARK  4 active torsions:
REMARK  status: ('A' for Active; 'I' for Inactive)
REMARK    1  A    between atoms: C_2  and  S_1 
REMARK    2  A    between atoms: N_3  and  S_1 
REMARK    3  A    between atoms: C_7  and  N_3 
REMARK    4  A    between atoms: C_8  and  C_4 
ROOT
ATOM      1  S   UNL d   1      30.404  17.436 -24.155  0.00  0.00     0.285 S 
ATOM      2  O   UNL d   1      30.556  17.093 -23.418  0.00  0.00    -0.198 OA
ATOM      3  O   UNL d   1      30.255  17.783 -24.899  0.00  0.00    -0.198 OA
ENDROOT
BRANCH   1   4
ATOM      4  C   UNL d   1      29.639  17.106 -24.156  0.00  0.00     0.105 A 
ATOM      5  C   UNL d   1      29.480  16.445 -24.624  0.00  0.00     0.012 A 
ATOM      6  C   UNL d   1      28.727  16.114 -24.629  0.00  0.00     0.001 A 
ATOM      7  C   UNL d   1      30.082  16.104 -25.096  0.00  0.00     0.001 C 
ATOM      8  C   UNL d   1      28.568  15.453 -25.097  0.00  0.00     0.000 C 
ATOM      9  C   UNL d   1      28.121  16.451 -24.158  0.00  0.00     0.000 A 
ATOM     10  C   UNL d   1      28.287  17.115 -23.691  0.00  0.00     0.001 A 
ATOM     11  C   UNL d   1      29.045  17.442 -23.690  0.00  0.00     0.012 A 
ATOM     12  C   UNL d   1      27.686  17.456 -23.219  0.00  0.00     0.000 C 
ATOM     13  C   UNL d   1      29.215  18.103 -23.226  0.00  0.00     0.001 C 
ENDBRANCH   1   4
BRANCH   1  14
ATOM     14  N   UNL d   1      31.167  17.766 -24.157  0.00  0.00    -0.158 NA
BRANCH  14  15
ATOM     15  C   UNL d   1      31.820  17.300 -23.952  0.00  0.00     0.100 A 
ATOM     16  C   UNL d   1      32.587  17.614 -24.001  0.00  0.00     0.083 A 
ATOM     17  C   UNL d   1      33.238  17.153 -23.798  0.00  0.00     0.008 A 
ATOM     18  C   UNL d   1      33.130  16.375 -23.545  0.00  0.00     0.000 A 
ATOM     19  C   UNL d   1      32.372  16.060 -23.496  0.00  0.00     0.002 A 
ATOM     20  C   UNL d   1      31.713  16.522 -23.700  0.00  0.00     0.020 A 
BRANCH  16  21
ATOM     21  C   UNL d   1      32.699  18.392 -24.253  0.00  0.00     0.212 C 
ATOM     22  O   UNL d   1      32.779  19.001 -23.703  0.00  0.00    -0.644 OA
ATOM     23  O   UNL d   1      32.732  18.565 -25.059  0.00  0.00    -0.644 OA
ENDBRANCH  16  21
ENDBRANCH  14  15
ENDBRANCH   1  14
TORSDOF 4
ENDMDL
