MODEL 1
REMARK VINA RESULT:      35.2      0.000      0.000
REMARK  2 active torsions:
REMARK  status: ('A' for Active; 'I' for Inactive)
REMARK    1  A    between atoms: C_3  and  C_1 
REMARK       I    between atoms: N_6  and  C_3 
REMARK    2  A    between atoms: C_12  and  N_6 
ROOT
ATOM      1  C   UNL d   1      57.302  49.549  49.581  0.00  0.00     0.008 A 
ATOM      2  S   UNL d   1      56.044  49.163  49.620  0.00  0.00    -0.086 SA
ATOM      3  C   UNL d   1      56.713  49.255  50.067  0.00  0.00     0.030 A 
ATOM      4  C   UNL d   1      56.207  49.393  48.870  0.00  0.00     0.035 A 
ATOM      5  C   UNL d   1      58.216  49.555  50.691  0.00  0.00     0.085 A 
ATOM      6  C   UNL d   1      58.052  49.698  49.895  0.00  0.00     0.020 A 
ATOM      7  C   UNL d   1      56.987  49.637  48.830  0.00  0.00     0.007 A 
ATOM      8  C   UNL d   1      56.871  49.105  50.882  0.00  0.00     0.008 A 
ATOM      9  C   UNL d   1      57.625  49.258  51.184  0.00  0.00     0.020 A 
ENDROOT
BRANCH   5  10
ATOM     10  N   UNL d   1      58.972  49.708  50.993  0.00  0.00    -0.208 NA
ATOM     11  C   UNL d   1      59.572  49.149  50.908  0.00  0.00     0.285 C 
ATOM     12  O   UNL d   1      59.417  48.440  50.523  0.00  0.00    -0.265 OA
BRANCH  11  13
ATOM     13  C   UNL d   1      60.321  49.301  51.208  0.00  0.00     0.088 A 
ATOM     14  S   UNL d   1      60.517  49.406  52.023  0.00  0.00    -0.071 SA
ATOM     15  C   UNL d   1      61.329  49.546  52.077  0.00  0.00     0.087 A 
ATOM     16 CL   UNL d   1      61.731  49.671  52.728  0.00  0.00    -0.075 Cl
ATOM     17  C   UNL d   1      61.644  49.528  51.270  0.00  0.00     0.019 A 
ATOM     18  C   UNL d   1      61.031  49.379  50.754  0.00  0.00     0.013 A 
ENDBRANCH  11  13
ENDBRANCH   5  10
TORSDOF 2
ENDMDL
