MODEL 1
REMARK VINA RESULT:      -9.6      0.000      0.000
REMARK  2 active torsions:
REMARK  status: ('A' for Active; 'I' for Inactive)
REMARK    1  A    between atoms: C_4  and  C_1 
REMARK    2  A    between atoms: N_2  and  C_9 
REMARK       I    between atoms: N_7  and  C_4 
ROOT
ATOM      1  C   UNL d   1      53.324  32.156  53.406  0.00  0.00     0.086 A 
ATOM      2  S   UNL d   1      53.081  31.641  52.847  0.00  0.00    -0.082 SA
ATOM      3  C   UNL d   1      53.493  31.772  54.103  0.00  0.00     0.012 A 
ATOM      4  C   UNL d   1      53.350  30.966  53.979  0.00  0.00     0.008 A 
ATOM      5  C   UNL d   1      53.094  30.885  53.199  0.00  0.00     0.030 A 
ATOM      6  C   UNL d   1      53.227  29.553  54.168  0.00  0.00     0.127 A 
ATOM      7  C   UNL d   1      53.414  30.308  54.452  0.00  0.00     0.024 A 
ATOM      8  C   UNL d   1      52.902  30.145  52.892  0.00  0.00     0.008 A 
ATOM      9  C   UNL d   1      52.971  29.472  53.387  0.00  0.00     0.024 A 
ENDROOT
BRANCH   1  10
ATOM     10  C   UNL d   1      53.391  32.989  53.279  0.00  0.00     0.271 C 
ATOM     11  N   UNL d   1      52.728  33.457  53.236  0.00  0.00    -0.272 N 
ATOM     12  C   UNL d   1      51.981  33.118  53.317  0.00  0.00     0.083 A 
ATOM     13  C   UNL d   1      52.795  34.280  53.110  0.00  0.00     0.083 A 
ATOM     14  C   UNL d   1      51.301  33.580  53.276  0.00  0.00     0.019 A 
ATOM     15  C   UNL d   1      51.364  34.394  53.152  0.00  0.00     0.003 A 
ATOM     16  C   UNL d   1      52.111  34.743  53.069  0.00  0.00     0.019 A 
ATOM     17  O   UNL d   1      54.146  33.315  53.199  0.00  0.00    -0.266 OA
ENDBRANCH   1  10
BRANCH   6  18
ATOM     18  N   UNL d   1      53.295  28.879  54.662  0.00  0.00    -0.114 N 
ATOM     19  O   UNL d   1      52.917  28.875  55.410  0.00  0.00    -0.532 OA
ATOM     20  O   UNL d   1      53.728  28.229  54.415  0.00  0.00    -0.532 OA
ENDBRANCH   6  18
TORSDOF 2
ENDMDL
MODEL 2
REMARK VINA RESULT:      -9.5      1.805      4.259
REMARK  2 active torsions:
REMARK  status: ('A' for Active; 'I' for Inactive)
REMARK    1  A    between atoms: C_4  and  C_1 
REMARK    2  A    between atoms: N_2  and  C_9 
REMARK       I    between atoms: N_7  and  C_4 
ROOT
ATOM      1  C   UNL d   1      53.195  32.059  53.359  0.00  0.00     0.086 A 
ATOM      2  S   UNL d   1      53.934  32.267  53.574  0.00  0.00    -0.082 SA
ATOM      3  C   UNL d   1      52.658  32.634  53.565  0.00  0.00     0.012 A 
ATOM      4  C   UNL d   1      53.081  33.243  53.933  0.00  0.00     0.008 A 
ATOM      5  C   UNL d   1      53.874  33.015  53.939  0.00  0.00     0.030 A 
ATOM      6  C   UNL d   1      53.427  34.464  54.595  0.00  0.00     0.127 A 
ATOM      7  C   UNL d   1      52.865  33.957  54.257  0.00  0.00     0.024 A 
ATOM      8  C   UNL d   1      54.451  33.501  54.269  0.00  0.00     0.008 A 
ATOM      9  C   UNL d   1      54.220  34.236  54.601  0.00  0.00     0.024 A 
ENDROOT
BRANCH   1  10
ATOM     10  C   UNL d   1      53.007  31.334  52.968  0.00  0.00     0.271 C 
ATOM     11  N   UNL d   1      53.047  30.625  53.366  0.00  0.00    -0.272 N 
ATOM     12  C   UNL d   1      53.274  30.613  54.158  0.00  0.00     0.083 A 
ATOM     13  C   UNL d   1      52.861  29.909  52.980  0.00  0.00     0.083 A 
ATOM     14  C   UNL d   1      53.319  29.903  54.573  0.00  0.00     0.019 A 
ATOM     15  C   UNL d   1      53.136  29.193  54.194  0.00  0.00     0.003 A 
ATOM     16  C   UNL d   1      52.907  29.197  53.398  0.00  0.00     0.019 A 
ATOM     17  O   UNL d   1      52.782  31.361  52.174  0.00  0.00    -0.266 OA
ENDBRANCH   1  10
BRANCH   6  18
ATOM     18  N   UNL d   1      53.197  35.199  54.927  0.00  0.00    -0.114 N 
ATOM     19  O   UNL d   1      52.992  35.835  54.422  0.00  0.00    -0.532 OA
ATOM     20  O   UNL d   1      53.172  35.293  55.741  0.00  0.00    -0.532 OA
ENDBRANCH   6  18
TORSDOF 2
ENDMDL
MODEL 3
REMARK VINA RESULT:      -9.1      1.955      4.378
REMARK  2 active torsions:
REMARK  status: ('A' for Active; 'I' for Inactive)
REMARK    1  A    between atoms: C_4  and  C_1 
REMARK    2  A    between atoms: N_2  and  C_9 
REMARK       I    between atoms: N_7  and  C_4 
ROOT
ATOM      1  C   UNL d   1      52.677  32.740  53.423  0.00  0.00     0.086 A 
ATOM      2  S   UNL d   1      52.826  33.250  52.828  0.00  0.00    -0.082 SA
ATOM      3  C   UNL d   1      51.904  32.800  53.672  0.00  0.00     0.012 A 
ATOM      4  C   UNL d   1      51.542  33.381  53.207  0.00  0.00     0.008 A 
ATOM      5  C   UNL d   1      52.114  33.660  52.682  0.00  0.00     0.030 A 
ATOM      6  C   UNL d   1      50.585  34.284  52.643  0.00  0.00     0.127 A 
ATOM      7  C   UNL d   1      50.790  33.691  53.183  0.00  0.00     0.024 A 
ATOM      8  C   UNL d   1      51.935  34.250  52.135  0.00  0.00     0.008 A 
ATOM      9  C   UNL d   1      51.158  34.563  52.119  0.00  0.00     0.024 A 
ENDROOT
BRANCH   1  10
ATOM     10  C   UNL d   1      53.253  32.213  53.745  0.00  0.00     0.271 C 
ATOM     11  N   UNL d   1      53.239  31.421  53.563  0.00  0.00    -0.272 N 
ATOM     12  C   UNL d   1      52.656  31.127  53.060  0.00  0.00     0.083 A 
ATOM     13  C   UNL d   1      53.808  30.900  53.882  0.00  0.00     0.083 A 
ATOM     14  C   UNL d   1      52.629  30.327  52.867  0.00  0.00     0.019 A 
ATOM     15  C   UNL d   1      53.191  29.810  53.180  0.00  0.00     0.003 A 
ATOM     16  C   UNL d   1      53.780  30.097  53.687  0.00  0.00     0.019 A 
ATOM     17  O   UNL d   1      53.831  32.522  54.249  0.00  0.00    -0.266 OA
ENDBRANCH   1  10
BRANCH   6  18
ATOM     18  N   UNL d   1      49.808  34.598  52.625  0.00  0.00    -0.114 N 
ATOM     19  O   UNL d   1      49.316  34.449  51.963  0.00  0.00    -0.532 OA
ATOM     20  O   UNL d   1      49.531  35.049  53.251  0.00  0.00    -0.532 OA
ENDBRANCH   6  18
TORSDOF 2
ENDMDL
MODEL 4
REMARK VINA RESULT:      -9.1      2.322      4.401
REMARK  2 active torsions:
REMARK  status: ('A' for Active; 'I' for Inactive)
REMARK    1  A    between atoms: C_4  and  C_1 
REMARK    2  A    between atoms: N_2  and  C_9 
REMARK       I    between atoms: N_7  and  C_4 
ROOT
ATOM      1  C   UNL d   1      52.411  33.102  53.381  0.00  0.00     0.086 A 
ATOM      2  S   UNL d   1      52.472  33.406  52.646  0.00  0.00    -0.082 SA
ATOM      3  C   UNL d   1      51.678  33.254  53.700  0.00  0.00     0.012 A 
ATOM      4  C   UNL d   1      51.249  33.679  53.135  0.00  0.00     0.008 A 
ATOM      5  C   UNL d   1      51.742  33.774  52.480  0.00  0.00     0.030 A 
ATOM      6  C   UNL d   1      50.213  34.399  52.458  0.00  0.00     0.127 A 
ATOM      7  C   UNL d   1      50.497  33.989  53.120  0.00  0.00     0.024 A 
ATOM      8  C   UNL d   1      51.483  34.178  51.810  0.00  0.00     0.008 A 
ATOM      9  C   UNL d   1      50.706  34.494  51.804  0.00  0.00     0.024 A 
ENDROOT
BRANCH   1  10
ATOM     10  C   UNL d   1      53.033  32.679  53.766  0.00  0.00     0.271 C 
ATOM     11  N   UNL d   1      53.541  33.060  54.274  0.00  0.00    -0.272 N 
ATOM     12  C   UNL d   1      53.450  33.867  54.415  0.00  0.00     0.083 A 
ATOM     13  C   UNL d   1      54.156  32.642  54.655  0.00  0.00     0.083 A 
ATOM     14  C   UNL d   1      53.958  34.265  54.927  0.00  0.00     0.019 A 
ATOM     15  C   UNL d   1      54.566  33.855  55.305  0.00  0.00     0.003 A 
ATOM     16  C   UNL d   1      54.664  33.043  55.169  0.00  0.00     0.019 A 
ATOM     17  O   UNL d   1      53.112  31.870  53.616  0.00  0.00    -0.266 OA
ENDBRANCH   1  10
BRANCH   6  18
ATOM     18  N   UNL d   1      49.436  34.715  52.451  0.00  0.00    -0.114 N 
ATOM     19  O   UNL d   1      48.937  34.569  51.794  0.00  0.00    -0.532 OA
ATOM     20  O   UNL d   1      49.167  35.164  53.081  0.00  0.00    -0.532 OA
ENDBRANCH   6  18
TORSDOF 2
ENDMDL
MODEL 5
REMARK VINA RESULT:      -8.3      2.520      3.172
REMARK  2 active torsions:
REMARK  status: ('A' for Active; 'I' for Inactive)
REMARK    1  A    between atoms: C_4  and  C_1 
REMARK    2  A    between atoms: N_2  and  C_9 
REMARK       I    between atoms: N_7  and  C_4 
ROOT
ATOM      1  C   UNL d   1      52.342  33.752  52.835  0.00  0.00     0.086 A 
ATOM      2  S   UNL d   1      52.518  32.993  53.005  0.00  0.00    -0.082 SA
ATOM      3  C   UNL d   1      52.785  34.263  53.287  0.00  0.00     0.012 A 
ATOM      4  C   UNL d   1      53.271  33.800  53.773  0.00  0.00     0.008 A 
ATOM      5  C   UNL d   1      53.104  33.012  53.597  0.00  0.00     0.030 A 
ATOM      6  C   UNL d   1      54.235  33.381  54.743  0.00  0.00     0.127 A 
ATOM      7  C   UNL d   1      53.828  33.978  54.338  0.00  0.00     0.024 A 
ATOM      8  C   UNL d   1      53.496  32.400  53.987  0.00  0.00     0.008 A 
ATOM      9  C   UNL d   1      54.069  32.593  54.567  0.00  0.00     0.024 A 
ENDROOT
BRANCH   1  10
ATOM     10  C   UNL d   1      51.769  33.983  52.258  0.00  0.00     0.271 C 
ATOM     11  N   UNL d   1      51.022  34.214  52.485  0.00  0.00    -0.272 N 
ATOM     12  C   UNL d   1      50.822  34.223  53.284  0.00  0.00     0.083 A 
ATOM     13  C   UNL d   1      50.456  34.443  51.915  0.00  0.00     0.083 A 
ATOM     14  C   UNL d   1      50.070  34.455  53.527  0.00  0.00     0.019 A 
ATOM     15  C   UNL d   1      49.508  34.682  52.967  0.00  0.00     0.003 A 
ATOM     16  C   UNL d   1      49.702  34.675  52.161  0.00  0.00     0.019 A 
ATOM     17  O   UNL d   1      51.984  33.969  51.461  0.00  0.00    -0.266 OA
ENDBRANCH   1  10
BRANCH   6  18
ATOM     18  N   UNL d   1      54.809  33.572  55.324  0.00  0.00    -0.114 N 
ATOM     19  O   UNL d   1      55.467  34.048  55.115  0.00  0.00    -0.532 OA
ATOM     20  O   UNL d   1      54.727  33.296  56.091  0.00  0.00    -0.532 OA
ENDBRANCH   6  18
TORSDOF 2
ENDMDL
