MODEL 1
REMARK VINA RESULT:      -2.9      0.000      0.000
REMARK  7 active torsions:
REMARK  status: ('A' for Active; 'I' for Inactive)
REMARK    1  A    between atoms: C_4  and  S_1 
REMARK    2  A    between atoms: N_6  and  S_1 
REMARK    3  A    between atoms: N_3  and  C_2 
REMARK    4  A    between atoms: C_15  and  N_6 
REMARK    5  A    between atoms: C_16  and  N_6 
REMARK    6  A    between atoms: C_18  and  C_15 
REMARK    7  A    between atoms: C_17  and  C_16 
ROOT
ATOM      1  C   UNL d   1      56.445  -0.750  32.207  0.00  0.00     0.138 A 
ATOM      2  C   UNL d   1      57.331  -0.294  31.184  0.00  0.00     0.106 A 
ATOM      3  C   UNL d   1      56.998  -0.911  31.617  0.00  0.00     0.037 A 
ATOM      4  C   UNL d   1      56.224   0.027  32.364  0.00  0.00     0.080 A 
ATOM      5  C   UNL d   1      57.110   0.486  31.341  0.00  0.00     0.014 A 
ATOM      6  C   UNL d   1      56.556   0.647  31.931  0.00  0.00     0.014 A 
ATOM      7 CL   UNL d   1      55.670   0.188  32.954  0.00  0.00    -0.081 Cl
ENDROOT
BRANCH   2   8
ATOM      8  S   UNL d   1      57.885  -0.455  30.594  0.00  0.00     0.271 S 
ATOM      9  O   UNL d   1      57.372  -0.144  30.027  0.00  0.00    -0.200 OA
ATOM     10  O   UNL d   1      58.398  -0.767  31.160  0.00  0.00    -0.200 OA
BRANCH   8  11
ATOM     11  N   UNL d   1      58.439  -0.616  30.004  0.00  0.00    -0.229 N 
BRANCH  11  12
ATOM     12  C   UNL d   1      59.162  -0.217  29.998  0.00  0.00     0.092 C 
BRANCH  12  13
ATOM     13  C   UNL d   1      59.365   0.259  29.354  0.00  0.00     0.020 C 
ATOM     14  C   UNL d   1      60.083   0.667  29.348  0.00  0.00     0.002 C 
ENDBRANCH  12  13
ENDBRANCH  11  12
BRANCH  11  15
ATOM     15  C   UNL d   1      58.271  -1.173  29.421  0.00  0.00     0.092 C 
BRANCH  15  16
ATOM     16  C   UNL d   1      58.853  -1.708  29.180  0.00  0.00     0.020 C 
ATOM     17  C   UNL d   1      58.634  -2.446  28.865  0.00  0.00     0.002 C 
ENDBRANCH  15  16
ENDBRANCH  11  15
ENDBRANCH   8  11
ENDBRANCH   2   8
BRANCH   1  18
ATOM     18  N   UNL d   1      56.112  -1.375  32.641  0.00  0.00    -0.113 N 
ATOM     19  O   UNL d   1      55.326  -1.588  32.524  0.00  0.00    -0.532 OA
ATOM     20  O   UNL d   1      56.572  -1.783  33.190  0.00  0.00    -0.532 OA
ENDBRANCH   1  18
TORSDOF 7
ENDMDL
MODEL 2
REMARK VINA RESULT:      -1.9      1.842      3.885
REMARK  7 active torsions:
REMARK  status: ('A' for Active; 'I' for Inactive)
REMARK    1  A    between atoms: C_4  and  S_1 
REMARK    2  A    between atoms: N_6  and  S_1 
REMARK    3  A    between atoms: N_3  and  C_2 
REMARK    4  A    between atoms: C_15  and  N_6 
REMARK    5  A    between atoms: C_16  and  N_6 
REMARK    6  A    between atoms: C_18  and  C_15 
REMARK    7  A    between atoms: C_17  and  C_16 
ROOT
ATOM      1  C   UNL d   1      58.529  -0.728  29.565  0.00  0.00     0.138 A 
ATOM      2  C   UNL d   1      57.831  -0.099  30.641  0.00  0.00     0.106 A 
ATOM      3  C   UNL d   1      58.145  -0.777  30.293  0.00  0.00     0.037 A 
ATOM      4  C   UNL d   1      58.599  -0.001  29.184  0.00  0.00     0.080 A 
ATOM      5  C   UNL d   1      57.901   0.630  30.259  0.00  0.00     0.014 A 
ATOM      6  C   UNL d   1      58.285   0.679  29.531  0.00  0.00     0.014 A 
ATOM      7 CL   UNL d   1      58.984   0.048  28.456  0.00  0.00    -0.081 Cl
ENDROOT
BRANCH   2   8
ATOM      8  S   UNL d   1      57.446  -0.148  31.369  0.00  0.00     0.271 S 
ATOM      9  O   UNL d   1      57.549   0.663  31.478  0.00  0.00    -0.200 OA
ATOM     10  O   UNL d   1      57.344  -0.960  31.261  0.00  0.00    -0.200 OA
BRANCH   8  11
ATOM     11  N   UNL d   1      57.062  -0.197  32.098  0.00  0.00    -0.229 N 
BRANCH  11  12
ATOM     12  C   UNL d   1      56.583  -0.849  32.268  0.00  0.00     0.092 C 
BRANCH  12  13
ATOM     13  C   UNL d   1      55.831  -0.734  32.589  0.00  0.00     0.020 C 
ATOM     14  C   UNL d   1      55.443  -1.355  32.971  0.00  0.00     0.002 C 
ENDBRANCH  12  13
ENDBRANCH  11  12
BRANCH  11  15
ATOM     15  C   UNL d   1      57.156   0.402  32.654  0.00  0.00     0.092 C 
BRANCH  15  16
ATOM     16  C   UNL d   1      57.166   0.221  33.460  0.00  0.00     0.020 C 
ATOM     17  C   UNL d   1      57.618   0.682  33.985  0.00  0.00     0.002 C 
ENDBRANCH  15  16
ENDBRANCH  11  15
ENDBRANCH   8  11
ENDBRANCH   2   8
BRANCH   1  18
ATOM     18  N   UNL d   1      58.844  -1.414  29.218  0.00  0.00    -0.113 N 
ATOM     19  O   UNL d   1      58.346  -1.965  28.864  0.00  0.00    -0.532 OA
ATOM     20  O   UNL d   1      59.659  -1.541  29.231  0.00  0.00    -0.532 OA
ENDBRANCH   1  18
TORSDOF 7
ENDMDL
MODEL 3
REMARK VINA RESULT:      -1.8      1.586      1.841
REMARK  7 active torsions:
REMARK  status: ('A' for Active; 'I' for Inactive)
REMARK    1  A    between atoms: C_4  and  S_1 
REMARK    2  A    between atoms: N_6  and  S_1 
REMARK    3  A    between atoms: N_3  and  C_2 
REMARK    4  A    between atoms: C_15  and  N_6 
REMARK    5  A    between atoms: C_16  and  N_6 
REMARK    6  A    between atoms: C_18  and  C_15 
REMARK    7  A    between atoms: C_17  and  C_16 
ROOT
ATOM      1  C   UNL d   1      56.421  -0.067  33.237  0.00  0.00     0.138 A 
ATOM      2  C   UNL d   1      57.020  -0.186  31.945  0.00  0.00     0.106 A 
ATOM      3  C   UNL d   1      56.985   0.175  32.685  0.00  0.00     0.037 A 
ATOM      4  C   UNL d   1      55.892  -0.669  33.048  0.00  0.00     0.080 A 
ATOM      5  C   UNL d   1      56.489  -0.790  31.755  0.00  0.00     0.014 A 
ATOM      6  C   UNL d   1      55.925  -1.032  32.307  0.00  0.00     0.014 A 
ATOM      7 CL   UNL d   1      55.328  -0.911  33.600  0.00  0.00    -0.081 Cl
ENDROOT
BRANCH   2   8
ATOM      8  S   UNL d   1      57.583   0.056  31.393  0.00  0.00     0.271 S 
ATOM      9  O   UNL d   1      57.302  -0.506  30.859  0.00  0.00    -0.200 OA
ATOM     10  O   UNL d   1      57.865   0.618  31.927  0.00  0.00    -0.200 OA
BRANCH   8  11
ATOM     11  N   UNL d   1      58.147   0.298  30.841  0.00  0.00    -0.229 N 
BRANCH  11  12
ATOM     12  C   UNL d   1      58.833   0.682  31.094  0.00  0.00     0.092 C 
BRANCH  12  13
ATOM     13  C   UNL d   1      59.569   0.319  30.995  0.00  0.00     0.020 C 
ATOM     14  C   UNL d   1      60.243   0.646  31.341  0.00  0.00     0.002 C 
ENDBRANCH  12  13
ENDBRANCH  11  12
BRANCH  11  15
ATOM     15  C   UNL d   1      58.026   0.156  30.039  0.00  0.00     0.092 C 
BRANCH  15  16
ATOM     16  C   UNL d   1      58.325   0.682  29.477  0.00  0.00     0.020 C 
ATOM     17  C   UNL d   1      58.311   0.479  28.669  0.00  0.00     0.002 C 
ENDBRANCH  15  16
ENDBRANCH  11  15
ENDBRANCH   8  11
ENDBRANCH   2   8
BRANCH   1  18
ATOM     18  N   UNL d   1      56.390   0.299  33.981  0.00  0.00    -0.113 N 
ATOM     19  O   UNL d   1      57.052   0.300  34.470  0.00  0.00    -0.532 OA
ATOM     20  O   UNL d   1      55.692   0.663  34.230  0.00  0.00    -0.532 OA
ENDBRANCH   1  18
TORSDOF 7
ENDMDL
