MODEL 1
REMARK VINA RESULT:      14.9      0.000      0.000
REMARK  3 active torsions:
REMARK  status: ('A' for Active; 'I' for Inactive)
REMARK    1  A    between atoms: C_6  and  C_1 
REMARK    2  A    between atoms: C_7  and  C_5 
REMARK    3  A    between atoms: C_15  and  C_14 
ROOT
ATOM      1  C   UNL d   1     -55.030-102.209 -40.524  0.00  0.00     0.169 A 
ATOM      2  C   UNL d   1     -54.711-101.641 -40.084  0.00  0.00     0.048 A 
ATOM      3  N   UNL d   1     -55.377-102.879 -39.404  0.00  0.00    -0.148 NA
ATOM      4  N   UNL d   1     -55.367-102.836 -40.182  0.00  0.00    -0.142 NA
ATOM      5  C   UNL d   1     -55.057-102.310 -38.958  0.00  0.00     0.105 A 
ENDROOT
BRANCH   5   6
ATOM      6  C   UNL d   1     -54.977-102.189 -38.155  0.00  0.00     0.019 A 
ATOM      7  C   UNL d   1     -55.057-102.832 -37.635  0.00  0.00     0.002 A 
ATOM      8  C   UNL d   1     -54.978-102.717 -36.830  0.00  0.00     0.000 A 
ATOM      9  C   UNL d   1     -54.818-101.966 -36.529  0.00  0.00     0.000 A 
ATOM     10  C   UNL d   1     -54.737-101.322 -37.050  0.00  0.00     0.000 A 
ATOM     11  C   UNL d   1     -54.818-101.441 -37.862  0.00  0.00     0.002 A 
BRANCH   9  12
ATOM     12  C   UNL d   1     -54.735-101.846 -35.695  0.00  0.00     0.000 C 
ATOM     13  C   UNL d   1     -54.746-101.066 -35.376  0.00  0.00     0.000 C 
ENDBRANCH   9  12
ENDBRANCH   5   6
BRANCH   1  14
ATOM     14  C   UNL d   1     -55.009-102.146 -41.303  0.00  0.00     0.231 C 
ATOM     15  O   UNL d   1     -55.233-102.759 -41.749  0.00  0.00    -0.643 OA
ATOM     16  O   UNL d   1     -54.767-101.477 -41.643  0.00  0.00    -0.643 OA
ENDBRANCH   1  14
TORSDOF 3
ENDMDL
MODEL 2
REMARK VINA RESULT:      16.0      2.376      4.191
REMARK  3 active torsions:
REMARK  status: ('A' for Active; 'I' for Inactive)
REMARK    1  A    between atoms: C_6  and  C_1 
REMARK    2  A    between atoms: C_7  and  C_5 
REMARK    3  A    between atoms: C_15  and  C_14 
ROOT
ATOM      1  C   UNL d   1     -55.061-102.048 -36.623  0.00  0.00     0.169 A 
ATOM      2  C   UNL d   1     -54.866-101.463 -37.110  0.00  0.00     0.048 A 
ATOM      3  N   UNL d   1     -55.222-102.872 -37.680  0.00  0.00    -0.148 NA
ATOM      4  N   UNL d   1     -55.242-102.762 -36.909  0.00  0.00    -0.142 NA
ATOM      5  C   UNL d   1     -55.026-102.287 -38.173  0.00  0.00     0.105 A 
ENDROOT
BRANCH   5   6
ATOM      6  C   UNL d   1     -54.954-102.220 -38.984  0.00  0.00     0.019 A 
ATOM      7  C   UNL d   1     -54.801-101.475 -39.320  0.00  0.00     0.002 A 
ATOM      8  C   UNL d   1     -54.728-101.402 -40.131  0.00  0.00     0.000 A 
ATOM      9  C   UNL d   1     -54.805-102.064 -40.618  0.00  0.00     0.000 A 
ATOM     10  C   UNL d   1     -54.957-102.809 -40.281  0.00  0.00     0.000 A 
ATOM     11  C   UNL d   1     -55.030-102.879 -39.462  0.00  0.00     0.002 A 
BRANCH   9  12
ATOM     12  C   UNL d   1     -54.729-101.988 -41.458  0.00  0.00     0.000 C 
ATOM     13  C   UNL d   1     -54.742-102.675 -41.947  0.00  0.00     0.000 C 
ENDBRANCH   9  12
ENDBRANCH   5   6
BRANCH   1  14
ATOM     14  C   UNL d   1     -55.075-101.916 -35.852  0.00  0.00     0.231 C 
ATOM     15  O   UNL d   1     -54.727-101.270 -35.561  0.00  0.00    -0.643 OA
ATOM     16  O   UNL d   1     -55.434-102.424 -35.366  0.00  0.00    -0.643 OA
ENDBRANCH   1  14
TORSDOF 3
ENDMDL
