MODEL 1
REMARK VINA RESULT:      -5.6      0.000      0.000
REMARK  1 active torsions:
REMARK  status: ('A' for Active; 'I' for Inactive)
REMARK    1  A    between atoms: C_5  and  C_1 
ROOT
ATOM      1  C   UNL d   1      57.102   0.175  31.771  0.00  0.00     0.162 A 
ATOM      2  N   UNL d   1      57.844   0.399  31.972  0.00  0.00    -0.225 NA
ATOM      3  N   UNL d   1      57.030   0.090  30.982  0.00  0.00    -0.225 NA
ATOM      4  C   UNL d   1      58.285   0.464  31.257  0.00  0.00     0.101 A 
ATOM      5  C   UNL d   1      57.779   0.272  30.642  0.00  0.00     0.101 A 
ATOM      6  C   UNL d   1      59.072   0.672  31.111  0.00  0.00     0.021 A 
ATOM      7  C   UNL d   1      58.047   0.283  29.865  0.00  0.00     0.021 A 
ATOM      8  C   UNL d   1      58.833   0.489  29.707  0.00  0.00     0.002 A 
ATOM      9  C   UNL d   1      59.338   0.681  30.322  0.00  0.00     0.002 A 
ENDROOT
BRANCH   1  10
ATOM     10  C   UNL d   1      56.499   0.051  32.305  0.00  0.00     0.036 A 
ATOM     11  C   UNL d   1      56.256  -0.714  32.491  0.00  0.00     0.003 A 
ATOM     12  C   UNL d   1      56.632  -1.357  32.127  0.00  0.00     0.000 C 
ATOM     13  C   UNL d   1      55.645  -0.840  33.033  0.00  0.00     0.000 A 
ATOM     14  C   UNL d   1      55.264  -0.205  33.401  0.00  0.00     0.000 A 
ATOM     15  C   UNL d   1      55.513   0.556  33.210  0.00  0.00     0.000 A 
ATOM     16  C   UNL d   1      56.124   0.682  32.668  0.00  0.00     0.003 A 
ENDBRANCH   1  10
TORSDOF 1
ENDMDL
MODEL 2
REMARK VINA RESULT:      -5.4      1.351      3.684
REMARK  1 active torsions:
REMARK  status: ('A' for Active; 'I' for Inactive)
REMARK    1  A    between atoms: C_5  and  C_1 
ROOT
ATOM      1  C   UNL d   1      56.244   0.215  32.939  0.00  0.00     0.162 A 
ATOM      2  N   UNL d   1      56.541   0.285  33.680  0.00  0.00    -0.225 NA
ATOM      3  N   UNL d   1      55.452   0.300  32.937  0.00  0.00    -0.225 NA
ATOM      4  C   UNL d   1      55.889   0.426  34.195  0.00  0.00     0.101 A 
ATOM      5  C   UNL d   1      55.213   0.435  33.734  0.00  0.00     0.101 A 
ATOM      6  C   UNL d   1      55.849   0.543  35.013  0.00  0.00     0.021 A 
ATOM      7  C   UNL d   1      54.478   0.562  34.078  0.00  0.00     0.021 A 
ATOM      8  C   UNL d   1      54.424   0.681  34.895  0.00  0.00     0.002 A 
ATOM      9  C   UNL d   1      55.101   0.671  35.356  0.00  0.00     0.002 A 
ENDROOT
BRANCH   1  10
ATOM     10  C   UNL d   1      56.695   0.074  32.275  0.00  0.00     0.036 A 
ATOM     11  C   UNL d   1      56.727  -0.678  31.941  0.00  0.00     0.003 A 
ATOM     12  C   UNL d   1      56.293  -1.293  32.291  0.00  0.00     0.000 C 
ATOM     13  C   UNL d   1      57.184  -0.820  31.268  0.00  0.00     0.000 A 
ATOM     14  C   UNL d   1      57.620  -0.213  30.914  0.00  0.00     0.000 A 
ATOM     15  C   UNL d   1      57.583   0.536  31.253  0.00  0.00     0.000 A 
ATOM     16  C   UNL d   1      57.126   0.678  31.926  0.00  0.00     0.003 A 
ENDBRANCH   1  10
TORSDOF 1
ENDMDL
MODEL 3
REMARK VINA RESULT:      -5.1      0.503      3.507
REMARK  1 active torsions:
REMARK  status: ('A' for Active; 'I' for Inactive)
REMARK    1  A    between atoms: C_5  and  C_1 
ROOT
ATOM      1  C   UNL d   1      57.377   0.042  31.272  0.00  0.00     0.162 A 
ATOM      2  N   UNL d   1      57.184  -0.694  31.522  0.00  0.00    -0.225 NA
ATOM      3  N   UNL d   1      56.953   0.598  31.654  0.00  0.00    -0.225 NA
ATOM      4  C   UNL d   1      56.589  -0.606  32.112  0.00  0.00     0.101 A 
ATOM      5  C   UNL d   1      56.445   0.196  32.195  0.00  0.00     0.101 A 
ATOM      6  C   UNL d   1      56.178  -1.161  32.567  0.00  0.00     0.021 A 
ATOM      7  C   UNL d   1      55.887   0.465  32.734  0.00  0.00     0.021 A 
ATOM      8  C   UNL d   1      55.469  -0.081  33.195  0.00  0.00     0.002 A 
ATOM      9  C   UNL d   1      55.613  -0.883  33.113  0.00  0.00     0.002 A 
ENDROOT
BRANCH   1  10
ATOM     10  C   UNL d   1      57.935   0.201  30.700  0.00  0.00     0.036 A 
ATOM     11  C   UNL d   1      58.666   0.521  30.904  0.00  0.00     0.003 A 
ATOM     12  C   UNL d   1      58.827   0.681  31.702  0.00  0.00     0.000 C 
ATOM     13  C   UNL d   1      59.232   0.682  30.324  0.00  0.00     0.000 A 
ATOM     14  C   UNL d   1      59.080   0.526  29.526  0.00  0.00     0.000 A 
ATOM     15  C   UNL d   1      58.348   0.206  29.330  0.00  0.00     0.000 A 
ATOM     16  C   UNL d   1      57.782   0.045  29.910  0.00  0.00     0.003 A 
ENDBRANCH   1  10
TORSDOF 1
ENDMDL
MODEL 4
REMARK VINA RESULT:      -5.0      0.919      1.382
REMARK  1 active torsions:
REMARK  status: ('A' for Active; 'I' for Inactive)
REMARK    1  A    between atoms: C_5  and  C_1 
ROOT
ATOM      1  C   UNL d   1      56.726   0.081  32.218  0.00  0.00     0.162 A 
ATOM      2  N   UNL d   1      56.992  -0.621  31.938  0.00  0.00    -0.225 NA
ATOM      3  N   UNL d   1      56.935   0.681  31.737  0.00  0.00    -0.225 NA
ATOM      4  C   UNL d   1      57.405  -0.460  31.221  0.00  0.00     0.101 A 
ATOM      5  C   UNL d   1      57.369   0.348  31.096  0.00  0.00     0.101 A 
ATOM      6  C   UNL d   1      57.797  -0.957  30.688  0.00  0.00     0.021 A 
ATOM      7  C   UNL d   1      57.724   0.682  30.435  0.00  0.00     0.021 A 
ATOM      8  C   UNL d   1      58.119   0.196  29.894  0.00  0.00     0.002 A 
ATOM      9  C   UNL d   1      58.155  -0.613  30.019  0.00  0.00     0.002 A 
ENDROOT
BRANCH   1  10
ATOM     10  C   UNL d   1      56.298   0.168  32.906  0.00  0.00     0.036 A 
ATOM     11  C   UNL d   1      56.652   0.469  33.585  0.00  0.00     0.003 A 
ATOM     12  C   UNL d   1      57.454   0.682  33.561  0.00  0.00     0.000 C 
ATOM     13  C   UNL d   1      56.218   0.557  34.282  0.00  0.00     0.000 A 
ATOM     14  C   UNL d   1      55.419   0.347  34.315  0.00  0.00     0.000 A 
ATOM     15  C   UNL d   1      55.071   0.048  33.632  0.00  0.00     0.000 A 
ATOM     16  C   UNL d   1      55.506  -0.041  32.935  0.00  0.00     0.003 A 
ENDBRANCH   1  10
TORSDOF 1
ENDMDL
