MODEL 1
REMARK VINA RESULT:      -7.1      0.000      0.000
REMARK  4 active torsions:
REMARK  status: ('A' for Active; 'I' for Inactive)
REMARK    1  A    between atoms: N_2  and  S_1 
REMARK    2  A    between atoms: C_3  and  S_1 
REMARK    3  A    between atoms: C_11  and  N_2 
REMARK    4  A    between atoms: C_6  and  C_7 
ROOT
ATOM      1  S   UNL d   1     -48.272  13.744  22.959  0.00  0.00     0.285 S 
ATOM      2  O   UNL d   1     -48.469  13.016  23.288  0.00  0.00    -0.198 OA
ATOM      3  O   UNL d   1     -48.083  14.484  22.615  0.00  0.00    -0.198 OA
ENDROOT
BRANCH   1   4
ATOM      4  N   UNL d   1     -47.595  13.777  23.415  0.00  0.00    -0.158 NA
BRANCH   4   5
ATOM      5  C   UNL d   1     -46.879  13.503  23.117  0.00  0.00     0.094 A 
ATOM      6  C   UNL d   1     -46.644  12.739  23.331  0.00  0.00     0.020 A 
ATOM      7  C   UNL d   1     -45.916  12.447  23.034  0.00  0.00     0.005 A 
ATOM      8  C   UNL d   1     -45.454  12.921  22.541  0.00  0.00     0.039 A 
ATOM      9  C   UNL d   1     -45.691  13.680  22.330  0.00  0.00     0.005 A 
ATOM     10  C   UNL d   1     -46.405  13.968  22.621  0.00  0.00     0.020 A 
BRANCH   8  11
ATOM     11  C   UNL d   1     -44.725  12.621  22.246  0.00  0.00     0.196 C 
ATOM     12  O   UNL d   1     -44.363  11.998  22.646  0.00  0.00    -0.287 OA
ATOM     13  C   UNL d   1     -44.398  12.961  21.570  0.00  0.00     0.045 C 
ENDBRANCH   8  11
ENDBRANCH   4   5
ENDBRANCH   1   4
BRANCH   1  14
ATOM     14  C   UNL d   1     -48.988  13.713  22.473  0.00  0.00     0.105 A 
ATOM     15  C   UNL d   1     -49.517  14.331  22.516  0.00  0.00     0.015 A 
ATOM     16  C   UNL d   1     -50.207  14.323  22.061  0.00  0.00     0.022 A 
ATOM     17  C   UNL d   1     -50.355  13.689  21.568  0.00  0.00     0.103 A 
ATOM     18  C   UNL d   1     -49.809  13.048  21.522  0.00  0.00     0.022 A 
ATOM     19  N   UNL d   1     -51.064  13.680  21.100  0.00  0.00    -0.148 N 
ATOM     20  C   UNL d   1     -49.124  13.087  21.993  0.00  0.00     0.015 A 
ENDBRANCH   1  14
TORSDOF 4
ENDMDL
MODEL 2
REMARK VINA RESULT:      -7.1      1.551      4.329
REMARK  4 active torsions:
REMARK  status: ('A' for Active; 'I' for Inactive)
REMARK    1  A    between atoms: N_2  and  S_1 
REMARK    2  A    between atoms: C_3  and  S_1 
REMARK    3  A    between atoms: C_11  and  N_2 
REMARK    4  A    between atoms: C_6  and  C_7 
ROOT
ATOM      1  S   UNL d   1     -47.237  13.658  22.507  0.00  0.00     0.285 S 
ATOM      2  O   UNL d   1     -47.091  14.039  23.221  0.00  0.00    -0.198 OA
ATOM      3  O   UNL d   1     -47.381  13.257  21.786  0.00  0.00    -0.198 OA
ENDROOT
BRANCH   1   4
ATOM      4  N   UNL d   1     -47.578  14.336  22.204  0.00  0.00    -0.158 NA
BRANCH   4   5
ATOM      5  C   UNL d   1     -48.354  14.530  22.391  0.00  0.00     0.094 A 
ATOM      6  C   UNL d   1     -48.475  15.099  22.980  0.00  0.00     0.020 A 
ATOM      7  C   UNL d   1     -49.263  15.306  23.179  0.00  0.00     0.005 A 
ATOM      8  C   UNL d   1     -49.894  14.944  22.790  0.00  0.00     0.039 A 
ATOM      9  C   UNL d   1     -49.770  14.379  22.206  0.00  0.00     0.005 A 
ATOM     10  C   UNL d   1     -48.998  14.174  22.008  0.00  0.00     0.020 A 
BRANCH   8  11
ATOM     11  C   UNL d   1     -50.682  15.157  22.997  0.00  0.00     0.196 C 
ATOM     12  O   UNL d   1     -51.043  15.778  22.592  0.00  0.00    -0.287 OA
ATOM     13  C   UNL d   1     -51.064  14.739  23.595  0.00  0.00     0.045 C 
ENDBRANCH   8  11
ENDBRANCH   4   5
ENDBRANCH   1   4
BRANCH   1  14
ATOM     14  C   UNL d   1     -46.878  12.936  22.824  0.00  0.00     0.105 A 
ATOM     15  C   UNL d   1     -46.144  12.712  22.550  0.00  0.00     0.015 A 
ATOM     16  C   UNL d   1     -45.783  12.027  22.839  0.00  0.00     0.022 A 
ATOM     17  C   UNL d   1     -46.167  11.576  23.401  0.00  0.00     0.103 A 
ATOM     18  C   UNL d   1     -46.926  11.806  23.686  0.00  0.00     0.022 A 
ATOM     19  N   UNL d   1     -45.795  10.872  23.698  0.00  0.00    -0.148 N 
ATOM     20  C   UNL d   1     -47.263  12.501  23.375  0.00  0.00     0.015 A 
ENDBRANCH   1  14
TORSDOF 4
ENDMDL
MODEL 3
REMARK VINA RESULT:      -6.5      1.320      4.297
REMARK  4 active torsions:
REMARK  status: ('A' for Active; 'I' for Inactive)
REMARK    1  A    between atoms: N_2  and  S_1 
REMARK    2  A    between atoms: C_3  and  S_1 
REMARK    3  A    between atoms: C_11  and  N_2 
REMARK    4  A    between atoms: C_6  and  C_7 
ROOT
ATOM      1  S   UNL d   1     -47.356  13.322  23.266  0.00  0.00     0.285 S 
ATOM      2  O   UNL d   1     -47.178  14.125  23.308  0.00  0.00    -0.198 OA
ATOM      3  O   UNL d   1     -47.524  12.503  23.217  0.00  0.00    -0.198 OA
ENDROOT
BRANCH   1   4
ATOM      4  N   UNL d   1     -48.081  13.456  23.618  0.00  0.00    -0.158 NA
BRANCH   4   5
ATOM      5  C   UNL d   1     -48.742  13.621  23.158  0.00  0.00     0.094 A 
ATOM      6  C   UNL d   1     -48.953  14.416  23.062  0.00  0.00     0.020 A 
ATOM      7  C   UNL d   1     -49.625  14.597  22.595  0.00  0.00     0.005 A 
ATOM      8  C   UNL d   1     -50.058  13.988  22.245  0.00  0.00     0.039 A 
ATOM      9  C   UNL d   1     -49.846  13.200  22.342  0.00  0.00     0.005 A 
ATOM     10  C   UNL d   1     -49.187  13.019  22.800  0.00  0.00     0.020 A 
BRANCH   8  11
ATOM     11  C   UNL d   1     -50.732  14.179  21.777  0.00  0.00     0.196 C 
ATOM     12  O   UNL d   1     -51.037  14.943  21.816  0.00  0.00    -0.287 OA
ATOM     13  C   UNL d   1     -51.063  13.595  21.298  0.00  0.00     0.045 C 
ENDBRANCH   8  11
ENDBRANCH   4   5
ENDBRANCH   1   4
BRANCH   1  14
ATOM     14  C   UNL d   1     -46.588  13.175  22.893  0.00  0.00     0.105 A 
ATOM     15  C   UNL d   1     -46.203  13.796  22.534  0.00  0.00     0.015 A 
ATOM     16  C   UNL d   1     -45.469  13.678  22.172  0.00  0.00     0.022 A 
ATOM     17  C   UNL d   1     -45.134  12.934  22.177  0.00  0.00     0.103 A 
ATOM     18  C   UNL d   1     -45.531  12.289  22.548  0.00  0.00     0.022 A 
ATOM     19  N   UNL d   1     -44.379  12.812  21.804  0.00  0.00    -0.148 N 
ATOM     20  C   UNL d   1     -46.268  12.441  22.903  0.00  0.00     0.015 A 
ENDBRANCH   1  14
TORSDOF 4
ENDMDL
MODEL 4
REMARK VINA RESULT:      -6.1      7.938      9.318
REMARK  4 active torsions:
REMARK  status: ('A' for Active; 'I' for Inactive)
REMARK    1  A    between atoms: N_2  and  S_1 
REMARK    2  A    between atoms: C_3  and  S_1 
REMARK    3  A    between atoms: C_11  and  N_2 
REMARK    4  A    between atoms: C_6  and  C_7 
ROOT
ATOM      1  S   UNL d   1     -40.565  14.550  18.984  0.00  0.00     0.285 S 
ATOM      2  O   UNL d   1     -40.617  15.308  18.667  0.00  0.00    -0.198 OA
ATOM      3  O   UNL d   1     -40.510  13.785  19.321  0.00  0.00    -0.198 OA
ENDROOT
BRANCH   1   4
ATOM      4  N   UNL d   1     -40.685  14.222  18.246  0.00  0.00    -0.158 NA
BRANCH   4   5
ATOM      5  C   UNL d   1     -40.082  14.225  17.687  0.00  0.00     0.094 A 
ATOM      6  C   UNL d   1     -40.106  14.810  17.101  0.00  0.00     0.020 A 
ATOM      7  C   UNL d   1     -39.497  14.823  16.526  0.00  0.00     0.005 A 
ATOM      8  C   UNL d   1     -38.893  14.262  16.553  0.00  0.00     0.039 A 
ATOM      9  C   UNL d   1     -38.872  13.683  17.136  0.00  0.00     0.005 A 
ATOM     10  C   UNL d   1     -39.469  13.667  17.703  0.00  0.00     0.020 A 
BRANCH   8  11
ATOM     11  C   UNL d   1     -38.284  14.282  15.971  0.00  0.00     0.196 C 
ATOM     12  O   UNL d   1     -38.005  15.015  15.716  0.00  0.00    -0.287 OA
ATOM     13  C   UNL d   1     -37.990  13.571  15.678  0.00  0.00     0.045 C 
ENDBRANCH   8  11
ENDBRANCH   4   5
ENDBRANCH   1   4
BRANCH   1  14
ATOM     14  C   UNL d   1     -40.438  14.893  19.770  0.00  0.00     0.105 A 
ATOM     15  C   UNL d   1     -39.942  14.508  20.289  0.00  0.00     0.015 A 
ATOM     16  C   UNL d   1     -39.807  14.817  21.043  0.00  0.00     0.022 A 
ATOM     17  C   UNL d   1     -40.174  15.512  21.265  0.00  0.00     0.103 A 
ATOM     18  C   UNL d   1     -40.687  15.912  20.729  0.00  0.00     0.022 A 
ATOM     19  N   UNL d   1     -40.034  15.830  22.040  0.00  0.00    -0.148 N 
ATOM     20  C   UNL d   1     -40.803  15.575  19.977  0.00  0.00     0.015 A 
ENDBRANCH   1  14
TORSDOF 4
ENDMDL
MODEL 5
REMARK VINA RESULT:      -5.8      7.780      8.918
REMARK  4 active torsions:
REMARK  status: ('A' for Active; 'I' for Inactive)
REMARK    1  A    between atoms: N_2  and  S_1 
REMARK    2  A    between atoms: C_3  and  S_1 
REMARK    3  A    between atoms: C_11  and  N_2 
REMARK    4  A    between atoms: C_6  and  C_7 
ROOT
ATOM      1  S   UNL d   1     -40.367  15.040  20.905  0.00  0.00     0.285 S 
ATOM      2  O   UNL d   1     -40.610  14.258  20.993  0.00  0.00    -0.198 OA
ATOM      3  O   UNL d   1     -40.109  15.832  20.827  0.00  0.00    -0.198 OA
ENDROOT
BRANCH   1   4
ATOM      4  N   UNL d   1     -40.956  15.171  20.355  0.00  0.00    -0.158 NA
BRANCH   4   5
ATOM      5  C   UNL d   1     -40.804  15.077  19.553  0.00  0.00     0.094 A 
ATOM      6  C   UNL d   1     -40.687  15.761  19.102  0.00  0.00     0.020 A 
ATOM      7  C   UNL d   1     -40.531  15.677  18.282  0.00  0.00     0.005 A 
ATOM      8  C   UNL d   1     -40.497  14.925  17.945  0.00  0.00     0.039 A 
ATOM      9  C   UNL d   1     -40.613  14.248  18.396  0.00  0.00     0.005 A 
ATOM     10  C   UNL d   1     -40.767  14.327  19.200  0.00  0.00     0.020 A 
BRANCH   8  11
ATOM     11  C   UNL d   1     -40.340  14.850  17.121  0.00  0.00     0.196 C 
ATOM     12  O   UNL d   1     -40.953  14.983  16.587  0.00  0.00    -0.287 OA
ATOM     13  C   UNL d   1     -39.579  14.646  16.878  0.00  0.00     0.045 C 
ENDBRANCH   8  11
ENDBRANCH   4   5
ENDBRANCH   1   4
BRANCH   1  14
ATOM     14  C   UNL d   1     -39.741  14.905  21.488  0.00  0.00     0.105 A 
ATOM     15  C   UNL d   1     -39.562  14.140  21.702  0.00  0.00     0.015 A 
ATOM     16  C   UNL d   1     -38.968  13.989  22.256  0.00  0.00     0.022 A 
ATOM     17  C   UNL d   1     -38.561  14.614  22.589  0.00  0.00     0.103 A 
ATOM     18  C   UNL d   1     -38.744  15.407  22.370  0.00  0.00     0.022 A 
ATOM     19  N   UNL d   1     -37.950  14.459  23.160  0.00  0.00    -0.148 N 
ATOM     20  C   UNL d   1     -39.347  15.525  21.809  0.00  0.00     0.015 A 
ENDBRANCH   1  14
TORSDOF 4
ENDMDL
MODEL 6
REMARK VINA RESULT:      -5.5      7.811      8.468
REMARK  4 active torsions:
REMARK  status: ('A' for Active; 'I' for Inactive)
REMARK    1  A    between atoms: N_2  and  S_1 
REMARK    2  A    between atoms: C_3  and  S_1 
REMARK    3  A    between atoms: C_11  and  N_2 
REMARK    4  A    between atoms: C_6  and  C_7 
ROOT
ATOM      1  S   UNL d   1     -40.669  15.043  19.864  0.00  0.00     0.285 S 
ATOM      2  O   UNL d   1     -40.881  14.249  19.809  0.00  0.00    -0.198 OA
ATOM      3  O   UNL d   1     -40.451  15.850  19.906  0.00  0.00    -0.198 OA
ENDROOT
BRANCH   1   4
ATOM      4  N   UNL d   1     -40.785  15.027  20.673  0.00  0.00    -0.158 NA
BRANCH   4   5
ATOM      5  C   UNL d   1     -40.171  14.816  21.177  0.00  0.00     0.094 A 
ATOM      6  C   UNL d   1     -40.140  14.030  21.435  0.00  0.00     0.020 A 
ATOM      7  C   UNL d   1     -39.518  13.804  21.949  0.00  0.00     0.005 A 
ATOM      8  C   UNL d   1     -38.956  14.360  22.185  0.00  0.00     0.039 A 
ATOM      9  C   UNL d   1     -38.990  15.139  21.927  0.00  0.00     0.005 A 
ATOM     10  C   UNL d   1     -39.599  15.365  21.422  0.00  0.00     0.020 A 
BRANCH   8  11
ATOM     11  C   UNL d   1     -38.334  14.124  22.702  0.00  0.00     0.196 C 
ATOM     12  O   UNL d   1     -38.141  14.612  23.337  0.00  0.00    -0.287 OA
ATOM     13  C   UNL d   1     -37.942  13.414  22.555  0.00  0.00     0.045 C 
ENDBRANCH   8  11
ENDBRANCH   4   5
ENDBRANCH   1   4
BRANCH   1  14
ATOM     14  C   UNL d   1     -40.545  15.064  19.007  0.00  0.00     0.105 A 
ATOM     15  C   UNL d   1     -40.539  15.786  18.631  0.00  0.00     0.015 A 
ATOM     16  C   UNL d   1     -40.422  15.830  17.814  0.00  0.00     0.022 A 
ATOM     17  C   UNL d   1     -40.312  15.143  17.386  0.00  0.00     0.103 A 
ATOM     18  C   UNL d   1     -40.317  14.394  17.774  0.00  0.00     0.022 A 
ATOM     19  N   UNL d   1     -40.192  15.188  16.546  0.00  0.00    -0.148 N 
ATOM     20  C   UNL d   1     -40.437  14.385  18.597  0.00  0.00     0.015 A 
ENDBRANCH   1  14
TORSDOF 4
ENDMDL
