MODEL 1
REMARK VINA RESULT:      26.7      0.000      0.000
REMARK  5 active torsions:
REMARK  status: ('A' for Active; 'I' for Inactive)
REMARK    1  A    between atoms: O_8  and  C_2 
REMARK    2  A    between atoms: C_11  and  C_5 
REMARK    3  A    between atoms: C_15  and  O_8 
REMARK    4  A    between atoms: N_14  and  C_11 
REMARK    5  A    between atoms: O_23  and  C_16 
ROOT
ATOM      1  C   UNL d   1      45.200 -14.249  44.196  0.00  0.00     0.108 A 
ATOM      2  C   UNL d   1      45.286 -15.877  44.517  0.00  0.00     0.161 A 
ATOM      3  C   UNL d   1      45.908 -14.580  44.496  0.00  0.00     0.064 A 
ATOM      4  C   UNL d   1      45.951 -15.385  44.655  0.00  0.00     0.222 A 
ATOM      5  C   UNL d   1      45.157 -13.435  44.035  0.00  0.00     0.079 A 
ATOM      6  O   UNL d   1      44.537 -14.727  44.055  0.00  0.00    -0.305 OA
ATOM      7  C   UNL d   1      44.585 -15.549  44.219  0.00  0.00     0.126 A 
ATOM      8  C   UNL d   1      46.563 -14.084  44.630  0.00  0.00     0.009 A 
ATOM      9  C   UNL d   1      45.816 -12.955  44.174  0.00  0.00     0.199 A 
ATOM     10  O   UNL d   1      46.646 -15.716  44.951  0.00  0.00    -0.284 OA
ATOM     11  C   UNL d   1      46.516 -13.278  44.470  0.00  0.00     0.042 A 
ATOM     12  O   UNL d   1      45.763 -12.145  44.010  0.00  0.00    -0.286 OA
ATOM     13  C   UNL d   1      43.932 -16.031  44.083  0.00  0.00     0.029 C 
ENDROOT
BRANCH   2  14
ATOM     14  O   UNL d   1      45.332 -16.682  44.677  0.00  0.00    -0.302 OA
BRANCH  14  15
ATOM     15  C   UNL d   1      45.659 -17.194  44.120  0.00  0.00     0.100 A 
ATOM     16  C   UNL d   1      46.286 -17.685  44.335  0.00  0.00     0.027 A 
ATOM     17  C   UNL d   1      46.613 -18.194  43.787  0.00  0.00     0.026 A 
ATOM     18  C   UNL d   1      46.313 -18.217  43.008  0.00  0.00     0.094 A 
ATOM     19  C   UNL d   1      45.686 -17.724  42.798  0.00  0.00     0.026 A 
ATOM     20  C   UNL d   1      45.359 -17.212  43.355  0.00  0.00     0.027 A 
BRANCH  18  21
ATOM     21  O   UNL d   1      46.641 -18.728  42.453  0.00  0.00    -0.328 OA
ATOM     22  C   UNL d   1      46.599 -19.544  42.571  0.00  0.00     0.181 C 
ENDBRANCH  18  21
ENDBRANCH  14  15
ENDBRANCH   2  14
BRANCH   5  23
ATOM     23  C   UNL d   1      44.458 -13.112  43.739  0.00  0.00     0.086 C 
BRANCH  23  24
ATOM     24  N   UNL d   1      44.429 -12.853  42.963  0.00  0.00    -0.300 N 
ATOM     25  C   UNL d   1      43.976 -12.193  42.766  0.00  0.00     0.100 C 
ATOM     26  C   UNL d   1      44.853 -13.249  42.372  0.00  0.00     0.100 C 
ENDBRANCH  23  24
ENDBRANCH   5  23
TORSDOF 5
ENDMDL
MODEL 2
REMARK VINA RESULT:      29.2      1.812      4.963
REMARK  5 active torsions:
REMARK  status: ('A' for Active; 'I' for Inactive)
REMARK    1  A    between atoms: O_8  and  C_2 
REMARK    2  A    between atoms: C_11  and  C_5 
REMARK    3  A    between atoms: C_15  and  O_8 
REMARK    4  A    between atoms: N_14  and  C_11 
REMARK    5  A    between atoms: O_23  and  C_16 
ROOT
ATOM      1  C   UNL d   1      46.449 -18.660  42.817  0.00  0.00     0.108 A 
ATOM      2  C   UNL d   1      46.300 -17.804  44.234  0.00  0.00     0.161 A 
ATOM      3  C   UNL d   1      46.324 -19.064  43.540  0.00  0.00     0.064 A 
ATOM      4  C   UNL d   1      46.250 -18.641  44.241  0.00  0.00     0.222 A 
ATOM      5  C   UNL d   1      46.524 -19.087  42.109  0.00  0.00     0.079 A 
ATOM      6  O   UNL d   1      46.500 -17.832  42.800  0.00  0.00    -0.305 OA
ATOM      7  C   UNL d   1      46.424 -17.404  43.518  0.00  0.00     0.126 A 
ATOM      8  C   UNL d   1      46.276 -19.895  43.537  0.00  0.00     0.009 A 
ATOM      9  C   UNL d   1      46.473 -19.913  42.122  0.00  0.00     0.199 A 
ATOM     10  O   UNL d   1      46.127 -19.036  44.955  0.00  0.00    -0.284 OA
ATOM     11  C   UNL d   1      46.350 -20.314  42.832  0.00  0.00     0.042 A 
ATOM     12  O   UNL d   1      46.549 -20.329  41.411  0.00  0.00    -0.286 OA
ATOM     13  C   UNL d   1      46.473 -16.583  43.512  0.00  0.00     0.029 C 
ENDROOT
BRANCH   2  14
ATOM     14  O   UNL d   1      46.226 -17.384  44.937  0.00  0.00    -0.302 OA
BRANCH  14  15
ATOM     15  C   UNL d   1      45.852 -16.651  44.940  0.00  0.00     0.100 A 
ATOM     16  C   UNL d   1      46.305 -15.961  44.940  0.00  0.00     0.027 A 
ATOM     17  C   UNL d   1      45.939 -15.231  44.943  0.00  0.00     0.026 A 
ATOM     18  C   UNL d   1      45.106 -15.183  44.945  0.00  0.00     0.094 A 
ATOM     19  C   UNL d   1      44.657 -15.875  44.945  0.00  0.00     0.026 A 
ATOM     20  C   UNL d   1      45.031 -16.609  44.942  0.00  0.00     0.027 A 
BRANCH  18  21
ATOM     21  O   UNL d   1      44.734 -14.449  44.948  0.00  0.00    -0.328 OA
ATOM     22  C   UNL d   1      45.091 -13.806  44.574  0.00  0.00     0.181 C 
ENDBRANCH  18  21
ENDBRANCH  14  15
ENDBRANCH   2  14
BRANCH   5  23
ATOM     23  C   UNL d   1      46.647 -18.686  41.399  0.00  0.00     0.086 C 
BRANCH  23  24
ATOM     24  N   UNL d   1      46.188 -18.869  40.746  0.00  0.00    -0.300 N 
ATOM     25  C   UNL d   1      45.422 -18.569  40.684  0.00  0.00     0.100 C 
ATOM     26  C   UNL d   1      46.487 -19.354  40.146  0.00  0.00     0.100 C 
ENDBRANCH  23  24
ENDBRANCH   5  23
TORSDOF 5
ENDMDL
