MODEL 1
REMARK VINA RESULT:      70.6      0.000      0.000
REMARK  6 active torsions:
REMARK  status: ('A' for Active; 'I' for Inactive)
REMARK    1  A    between atoms: N_11  and  C_3 
REMARK    2  A    between atoms: C_10  and  C_5 
REMARK    3  A    between atoms: C_17  and  N_11 
REMARK    4  A    between atoms: N_13  and  C_18 
REMARK    5  A    between atoms: C_16  and  C_17 
REMARK    6  A    between atoms: C_18  and  C_16 
ROOT
ATOM      1  N   UNL d   1     -55.054-100.343 -43.070  0.00  0.00    -0.184 N 
ATOM      2  C   UNL d   1     -54.982-100.974 -42.536  0.00  0.00     0.168 A 
ATOM      3  C   UNL d   1     -55.089-100.503 -43.875  0.00  0.00     0.217 A 
ATOM      4  N   UNL d   1     -55.052 -99.436 -41.991  0.00  0.00    -0.162 NA
ATOM      5  C   UNL d   1     -54.945-100.837 -41.739  0.00  0.00     0.055 A 
ATOM      6  N   UNL d   1     -54.947-101.751 -42.818  0.00  0.00    -0.227 NA
ATOM      7  C   UNL d   1     -55.055-101.269 -44.156  0.00  0.00     0.066 A 
ATOM      8  C   UNL d   1     -54.980-100.063 -41.460  0.00  0.00     0.104 A 
ATOM      9  C   UNL d   1     -54.983-101.896 -43.625  0.00  0.00     0.087 A 
ATOM     10  C   UNL d   1     -55.092-101.409 -44.971  0.00  0.00     0.006 A 
ATOM     11  C   UNL d   1     -54.945 -99.914 -40.668  0.00  0.00     0.023 C 
ATOM     12  C   UNL d   1     -54.948-102.670 -43.904  0.00  0.00     0.019 A 
ATOM     13  C   UNL d   1     -55.056-102.196 -45.251  0.00  0.00     0.000 A 
ATOM     14  C   UNL d   1     -54.985-102.823 -44.720  0.00  0.00     0.002 A 
ENDROOT
BRANCH   3  15
ATOM     15  N   UNL d   1     -55.163 -99.865 -44.420  0.00  0.00    -0.380 NA
BRANCH  15  16
ATOM     16  C   UNL d   1     -55.280 -99.272 -45.003  0.00  0.00     0.164 C 
BRANCH  16  17
ATOM     17  C   UNL d   1     -56.059 -99.130 -45.287  0.00  0.00     0.054 C 
BRANCH  17  18
ATOM     18  C   UNL d   1     -56.689 -98.976 -44.735  0.00  0.00     0.083 C 
BRANCH  18  19
ATOM     19  N   UNL d   1     -57.487 -98.966 -45.003  0.00  0.00    -0.300 N 
ATOM     20  C   UNL d   1     -57.783 -98.883 -44.227  0.00  0.00     0.100 C 
ATOM     21  C   UNL d   1     -58.037 -99.002 -45.645  0.00  0.00     0.100 C 
ENDBRANCH  18  19
ENDBRANCH  17  18
ENDBRANCH  16  17
ENDBRANCH  15  16
ENDBRANCH   3  15
BRANCH   5  22
ATOM     22  C   UNL d   1     -54.873-101.465 -41.208  0.00  0.00     0.004 A 
ATOM     23  C   UNL d   1     -54.872-102.229 -41.489  0.00  0.00     0.000 A 
ATOM     24  C   UNL d   1     -54.800-102.856 -40.958  0.00  0.00     0.000 A 
ATOM     25  C   UNL d   1     -54.731-102.710 -40.155  0.00  0.00     0.000 A 
ATOM     26  C   UNL d   1     -54.733-101.936 -39.881  0.00  0.00     0.000 A 
ATOM     27  C   UNL d   1     -54.805-101.309 -40.412  0.00  0.00     0.000 A 
ENDBRANCH   5  22
TORSDOF 6
ENDMDL
