MODEL 1
REMARK VINA RESULT:      -4.8      0.000      0.000
REMARK  9 active torsions:
REMARK  status: ('A' for Active; 'I' for Inactive)
REMARK    1  A    between atoms: C_12  and  N_1 
REMARK    2  A    between atoms: S_7  and  C_2 
REMARK    3  A    between atoms: C_15  and  S_7 
REMARK    4  A    between atoms: C_9  and  C_15 
REMARK    5  A    between atoms: O_14  and  C_9 
REMARK       I    between atoms: C_10  and  N_16 
REMARK    6  A    between atoms: C_19  and  C_12 
REMARK    7  A    between atoms: C_18  and  O_14 
REMARK    8  A    between atoms: N_16  and  C_19 
REMARK    9  A    between atoms: C_20  and  C_18 
ROOT
ATOM      1  N   UNL d   1     -40.473  14.482  20.587  0.00  0.00    -0.251 N 
ATOM      2  C   UNL d   1     -40.889  13.943  21.053  0.00  0.00     0.182 A 
ATOM      3  C   UNL d   1     -39.692  14.690  20.783  0.00  0.00     0.268 A 
ATOM      4  N   UNL d   1     -40.531  13.604  21.721  0.00  0.00    -0.222 NA
ATOM      5  C   UNL d   1     -39.336  14.350  21.453  0.00  0.00     0.074 A 
ATOM      6  C   UNL d   1     -39.752  13.811  21.918  0.00  0.00     0.088 A 
ATOM      7  O   UNL d   1     -39.271  15.235  20.313  0.00  0.00    -0.267 OA
ATOM      8  C   UNL d   1     -38.553  14.558  21.650  0.00  0.00     0.006 A 
ATOM      9  C   UNL d   1     -39.392  13.472  22.587  0.00  0.00     0.019 A 
ATOM     10  C   UNL d   1     -38.196  14.218  22.320  0.00  0.00     0.000 A 
ATOM     11  C   UNL d   1     -38.613  13.678  22.785  0.00  0.00     0.002 A 
ENDROOT
BRANCH   2  12
ATOM     12  S   UNL d   1     -41.680  13.730  20.856  0.00  0.00    -0.044 SA
BRANCH  12  13
ATOM     13  C   UNL d   1     -42.179  13.370  21.428  0.00  0.00     0.107 C 
BRANCH  13  14
ATOM     14  C   UNL d   1     -42.922  13.087  21.206  0.00  0.00     0.307 C 
ATOM     15  O   UNL d   1     -43.009  12.658  20.508  0.00  0.00    -0.258 OA
BRANCH  14  16
ATOM     16  O   UNL d   1     -43.580  13.238  21.692  0.00  0.00    -0.271 OA
BRANCH  16  17
ATOM     17  C   UNL d   1     -44.303  12.883  21.516  0.00  0.00     0.126 C 
BRANCH  17  18
ATOM     18  C   UNL d   1     -44.941  12.986  22.023  0.00  0.00     0.025 A 
ATOM     19  C   UNL d   1     -45.344  13.705  22.040  0.00  0.00     0.002 A 
ATOM     20  C   UNL d   1     -45.980  13.809  22.546  0.00  0.00     0.000 A 
ATOM     21  C   UNL d   1     -46.221  13.195  23.041  0.00  0.00     0.000 A 
ATOM     22  C   UNL d   1     -45.814  12.469  23.025  0.00  0.00     0.000 A 
ATOM     23  C   UNL d   1     -45.175  12.370  22.514  0.00  0.00     0.002 A 
ENDBRANCH  17  18
ENDBRANCH  16  17
ENDBRANCH  14  16
ENDBRANCH  13  14
ENDBRANCH  12  13
ENDBRANCH   2  12
BRANCH   1  24
ATOM     24  C   UNL d   1     -40.835  14.823  19.913  0.00  0.00     0.106 C 
BRANCH  24  25
ATOM     25  C   UNL d   1     -40.616  14.595  19.152  0.00  0.00     0.121 C 
BRANCH  25  26
ATOM     26  N   UNL d   1     -40.787  15.070  18.491  0.00  0.00    -0.205 NA
ATOM     27  C   UNL d   1     -40.781  14.746  17.727  0.00  0.00     0.280 C 
ATOM     28  O   UNL d   1     -40.604  13.948  17.620  0.00  0.00    -0.265 OA
ATOM     29  C   UNL d   1     -40.951  15.222  17.077  0.00  0.00     0.068 C 
ENDBRANCH  25  26
ENDBRANCH  24  25
ENDBRANCH   1  24
TORSDOF 9
ENDMDL
MODEL 2
REMARK VINA RESULT:      -3.6      1.669      5.382
REMARK  9 active torsions:
REMARK  status: ('A' for Active; 'I' for Inactive)
REMARK    1  A    between atoms: C_12  and  N_1 
REMARK    2  A    between atoms: S_7  and  C_2 
REMARK    3  A    between atoms: C_15  and  S_7 
REMARK    4  A    between atoms: C_9  and  C_15 
REMARK    5  A    between atoms: O_14  and  C_9 
REMARK       I    between atoms: C_10  and  N_16 
REMARK    6  A    between atoms: C_19  and  C_12 
REMARK    7  A    between atoms: C_18  and  O_14 
REMARK    8  A    between atoms: N_16  and  C_19 
REMARK    9  A    between atoms: C_20  and  C_18 
ROOT
ATOM      1  N   UNL d   1     -40.259  14.304  21.049  0.00  0.00    -0.251 N 
ATOM      2  C   UNL d   1     -40.048  14.903  20.522  0.00  0.00     0.182 A 
ATOM      3  C   UNL d   1     -39.876  14.237  21.784  0.00  0.00     0.268 A 
ATOM      4  N   UNL d   1     -39.452  15.444  20.724  0.00  0.00    -0.222 NA
ATOM      5  C   UNL d   1     -39.280  14.780  21.983  0.00  0.00     0.074 A 
ATOM      6  C   UNL d   1     -39.069  15.380  21.457  0.00  0.00     0.088 A 
ATOM      7  O   UNL d   1     -40.089  13.631  22.316  0.00  0.00    -0.267 OA
ATOM      8  C   UNL d   1     -38.895  14.715  22.720  0.00  0.00     0.006 A 
ATOM      9  C   UNL d   1     -38.472  15.922  21.659  0.00  0.00     0.019 A 
ATOM     10  C   UNL d   1     -38.298  15.258  22.919  0.00  0.00     0.000 A 
ATOM     11  C   UNL d   1     -38.088  15.858  22.393  0.00  0.00     0.002 A 
ENDROOT
BRANCH   2  12
ATOM     12  S   UNL d   1     -40.434  14.972  19.778  0.00  0.00    -0.044 SA
BRANCH  12  13
ATOM     13  C   UNL d   1     -40.189  15.553  19.223  0.00  0.00     0.107 C 
BRANCH  13  14
ATOM     14  C   UNL d   1     -40.379  15.467  18.425  0.00  0.00     0.307 C 
ATOM     15  O   UNL d   1     -41.137  15.649  18.158  0.00  0.00    -0.258 OA
BRANCH  14  16
ATOM     16  O   UNL d   1     -39.800  15.196  17.892  0.00  0.00    -0.271 OA
BRANCH  16  17
ATOM     17  C   UNL d   1     -39.786  15.494  17.123  0.00  0.00     0.126 C 
BRANCH  17  18
ATOM     18  C   UNL d   1     -39.172  15.287  16.618  0.00  0.00     0.025 A 
ATOM     19  C   UNL d   1     -38.741  15.872  16.228  0.00  0.00     0.002 A 
ATOM     20  C   UNL d   1     -38.129  15.666  15.725  0.00  0.00     0.000 A 
ATOM     21  C   UNL d   1     -37.940  14.872  15.604  0.00  0.00     0.000 A 
ATOM     22  C   UNL d   1     -38.374  14.281  15.997  0.00  0.00     0.000 A 
ATOM     23  C   UNL d   1     -38.990  14.494  16.503  0.00  0.00     0.002 A 
ENDBRANCH  17  18
ENDBRANCH  16  17
ENDBRANCH  14  16
ENDBRANCH  13  14
ENDBRANCH  12  13
ENDBRANCH   2  12
BRANCH   1  24
ATOM     24  C   UNL d   1     -40.861  13.757  20.844  0.00  0.00     0.106 C 
BRANCH  24  25
ATOM     25  C   UNL d   1     -41.596  13.779  21.215  0.00  0.00     0.121 C 
BRANCH  25  26
ATOM     26  N   UNL d   1     -42.095  13.113  21.226  0.00  0.00    -0.205 NA
ATOM     27  C   UNL d   1     -42.909  13.200  21.363  0.00  0.00     0.280 C 
ATOM     28  O   UNL d   1     -43.229  13.950  21.489  0.00  0.00    -0.265 OA
ATOM     29  C   UNL d   1     -43.398  12.537  21.372  0.00  0.00     0.068 C 
ENDBRANCH  25  26
ENDBRANCH  24  25
ENDBRANCH   1  24
TORSDOF 9
ENDMDL
MODEL 3
REMARK VINA RESULT:      -3.1      3.389      4.602
REMARK  9 active torsions:
REMARK  status: ('A' for Active; 'I' for Inactive)
REMARK    1  A    between atoms: C_12  and  N_1 
REMARK    2  A    between atoms: S_7  and  C_2 
REMARK    3  A    between atoms: C_15  and  S_7 
REMARK    4  A    between atoms: C_9  and  C_15 
REMARK    5  A    between atoms: O_14  and  C_9 
REMARK       I    between atoms: C_10  and  N_16 
REMARK    6  A    between atoms: C_19  and  C_12 
REMARK    7  A    between atoms: C_18  and  O_14 
REMARK    8  A    between atoms: N_16  and  C_19 
REMARK    9  A    between atoms: C_20  and  C_18 
ROOT
ATOM      1  N   UNL d   1     -39.701  14.584  17.612  0.00  0.00    -0.251 N 
ATOM      2  C   UNL d   1     -39.687  14.332  18.397  0.00  0.00     0.182 A 
ATOM      3  C   UNL d   1     -39.271  14.171  17.031  0.00  0.00     0.268 A 
ATOM      4  N   UNL d   1     -39.244  13.664  18.614  0.00  0.00    -0.222 NA
ATOM      5  C   UNL d   1     -38.828  13.503  17.251  0.00  0.00     0.074 A 
ATOM      6  C   UNL d   1     -38.815  13.251  18.036  0.00  0.00     0.088 A 
ATOM      7  O   UNL d   1     -39.285  14.426  16.237  0.00  0.00    -0.267 OA
ATOM      8  C   UNL d   1     -38.397  13.089  16.669  0.00  0.00     0.006 A 
ATOM      9  C   UNL d   1     -38.370  12.582  18.252  0.00  0.00     0.019 A 
ATOM     10  C   UNL d   1     -37.954  12.420  16.888  0.00  0.00     0.000 A 
ATOM     11  C   UNL d   1     -37.940  12.169  17.674  0.00  0.00     0.002 A 
ENDROOT
BRANCH   2  12
ATOM     12  S   UNL d   1     -40.121  14.747  18.987  0.00  0.00    -0.044 SA
BRANCH  12  13
ATOM     13  C   UNL d   1     -39.721  15.138  19.614  0.00  0.00     0.107 C 
BRANCH  13  14
ATOM     14  C   UNL d   1     -40.030  15.111  20.379  0.00  0.00     0.307 C 
ATOM     15  O   UNL d   1     -40.840  15.198  20.501  0.00  0.00    -0.258 OA
BRANCH  14  16
ATOM     16  O   UNL d   1     -39.517  14.995  21.024  0.00  0.00    -0.271 OA
BRANCH  16  17
ATOM     17  C   UNL d   1     -39.834  14.826  21.766  0.00  0.00     0.126 C 
BRANCH  17  18
ATOM     18  C   UNL d   1     -39.335  14.595  22.378  0.00  0.00     0.025 A 
ATOM     19  C   UNL d   1     -39.011  15.159  22.884  0.00  0.00     0.002 A 
ATOM     20  C   UNL d   1     -38.514  14.930  23.493  0.00  0.00     0.000 A 
ATOM     21  C   UNL d   1     -38.334  14.132  23.604  0.00  0.00     0.000 A 
ATOM     22  C   UNL d   1     -38.661  13.562  23.094  0.00  0.00     0.000 A 
ATOM     23  C   UNL d   1     -39.161  13.799  22.482  0.00  0.00     0.002 A 
ENDBRANCH  17  18
ENDBRANCH  16  17
ENDBRANCH  14  16
ENDBRANCH  13  14
ENDBRANCH  12  13
ENDBRANCH   2  12
BRANCH   1  24
ATOM     24  C   UNL d   1     -40.148  15.258  17.395  0.00  0.00     0.106 C 
BRANCH  24  25
ATOM     25  C   UNL d   1     -40.706  15.220  16.789  0.00  0.00     0.121 C 
BRANCH  25  26
ATOM     26  N   UNL d   1     -41.456  15.571  16.868  0.00  0.00    -0.205 NA
ATOM     27  C   UNL d   1     -41.989  15.572  16.231  0.00  0.00     0.280 C 
ATOM     28  O   UNL d   1     -41.776  15.224  15.514  0.00  0.00    -0.265 OA
ATOM     29  C   UNL d   1     -42.730  15.922  16.316  0.00  0.00     0.068 C 
ENDBRANCH  25  26
ENDBRANCH  24  25
ENDBRANCH   1  24
TORSDOF 9
ENDMDL
MODEL 4
REMARK VINA RESULT:      -2.4      4.505      8.040
REMARK  9 active torsions:
REMARK  status: ('A' for Active; 'I' for Inactive)
REMARK    1  A    between atoms: C_12  and  N_1 
REMARK    2  A    between atoms: S_7  and  C_2 
REMARK    3  A    between atoms: C_15  and  S_7 
REMARK    4  A    between atoms: C_9  and  C_15 
REMARK    5  A    between atoms: O_14  and  C_9 
REMARK       I    between atoms: C_10  and  N_16 
REMARK    6  A    between atoms: C_19  and  C_12 
REMARK    7  A    between atoms: C_18  and  O_14 
REMARK    8  A    between atoms: N_16  and  C_19 
REMARK    9  A    between atoms: C_20  and  C_18 
ROOT
ATOM      1  N   UNL d   1     -48.678  12.920  23.127  0.00  0.00    -0.251 N 
ATOM      2  C   UNL d   1     -48.277  13.581  22.839  0.00  0.00     0.182 A 
ATOM      3  C   UNL d   1     -49.479  12.799  22.936  0.00  0.00     0.268 A 
ATOM      4  N   UNL d   1     -48.671  14.131  22.357  0.00  0.00    -0.222 NA
ATOM      5  C   UNL d   1     -49.870  13.351  22.454  0.00  0.00     0.074 A 
ATOM      6  C   UNL d   1     -49.469  14.012  22.166  0.00  0.00     0.088 A 
ATOM      7  O   UNL d   1     -49.885  12.131  23.227  0.00  0.00    -0.267 OA
ATOM      8  C   UNL d   1     -50.673  13.230  22.262  0.00  0.00     0.006 A 
ATOM      9  C   UNL d   1     -49.864  14.562  21.683  0.00  0.00     0.019 A 
ATOM     10  C   UNL d   1     -51.064  13.782  21.779  0.00  0.00     0.000 A 
ATOM     11  C   UNL d   1     -50.663  14.443  21.491  0.00  0.00     0.002 A 
ENDROOT
BRANCH   2  12
ATOM     12  S   UNL d   1     -47.467  13.706  23.031  0.00  0.00    -0.044 SA
BRANCH  12  13
ATOM     13  C   UNL d   1     -46.963  14.121  22.502  0.00  0.00     0.107 C 
BRANCH  13  14
ATOM     14  C   UNL d   1     -46.181  14.274  22.714  0.00  0.00     0.307 C 
ATOM     15  O   UNL d   1     -45.975  15.005  23.034  0.00  0.00    -0.258 OA
BRANCH  14  16
ATOM     16  O   UNL d   1     -45.603  13.686  22.602  0.00  0.00    -0.271 OA
BRANCH  16  17
ATOM     17  C   UNL d   1     -45.114  13.721  21.939  0.00  0.00     0.126 C 
BRANCH  17  18
ATOM     18  C   UNL d   1     -44.479  13.202  21.875  0.00  0.00     0.025 A 
ATOM     19  C   UNL d   1     -44.463  12.510  22.322  0.00  0.00     0.002 A 
ATOM     20  C   UNL d   1     -43.831  11.993  22.258  0.00  0.00     0.000 A 
ATOM     21  C   UNL d   1     -43.207  12.162  21.746  0.00  0.00     0.000 A 
ATOM     22  C   UNL d   1     -43.222  12.860  21.294  0.00  0.00     0.000 A 
ATOM     23  C   UNL d   1     -43.861  13.378  21.362  0.00  0.00     0.002 A 
ENDBRANCH  17  18
ENDBRANCH  16  17
ENDBRANCH  14  16
ENDBRANCH  13  14
ENDBRANCH  12  13
ENDBRANCH   2  12
BRANCH   1  24
ATOM     24  C   UNL d   1     -48.281  12.366  23.614  0.00  0.00     0.106 C 
BRANCH  24  25
ATOM     25  C   UNL d   1     -48.046  11.634  23.318  0.00  0.00     0.121 C 
BRANCH  25  26
ATOM     26  N   UNL d   1     -47.460  11.181  23.698  0.00  0.00    -0.205 NA
ATOM     27  C   UNL d   1     -47.112  10.534  23.312  0.00  0.00     0.280 C 
ATOM     28  O   UNL d   1     -47.347  10.336  22.546  0.00  0.00    -0.265 OA
ATOM     29  C   UNL d   1     -46.533  10.089  23.693  0.00  0.00     0.068 C 
ENDBRANCH  25  26
ENDBRANCH  24  25
ENDBRANCH   1  24
TORSDOF 9
ENDMDL
