MODEL 1
REMARK VINA RESULT:      -3.0      0.000      0.000
REMARK  4 active torsions:
REMARK  status: ('A' for Active; 'I' for Inactive)
REMARK    1  A    between atoms: N_2  and  C_9 
REMARK    2  A    between atoms: C_11  and  C_5 
REMARK    3  A    between atoms: C_6  and  C_7 
REMARK       I    between atoms: C_7  and  N_10 
REMARK    4  A    between atoms: N_10  and  C_21 
ROOT
ATOM      1  C   UNL d   1     -41.469-122.748 -51.880  0.00  0.00     0.019 A 
ATOM      2  C   UNL d   1     -41.292-123.526 -51.658  0.00  0.00     0.003 A 
ATOM      3  C   UNL d   1     -41.532-122.153 -51.311  0.00  0.00     0.003 A 
ATOM      4  C   UNL d   1     -41.239-123.111 -50.290  0.00  0.00     0.085 A 
ATOM      5  C   UNL d   1     -41.416-122.339 -50.518  0.00  0.00     0.019 A 
ATOM      6  C   UNL d   1     -41.178-123.702 -50.862  0.00  0.00     0.019 A 
ENDROOT
BRANCH   4   7
ATOM      7  N   UNL d   1     -41.123-123.296 -49.492  0.00  0.00    -0.208 NA
ATOM      8  C   UNL d   1     -41.774-123.469 -49.010  0.00  0.00     0.281 C 
ATOM      9  O   UNL d   1     -41.652-123.654 -48.212  0.00  0.00    -0.265 OA
BRANCH   8  10
ATOM     10  C   UNL d   1     -42.536-123.458 -49.325  0.00  0.00     0.080 A 
ATOM     11  C   UNL d   1     -43.141-123.089 -48.908  0.00  0.00     0.131 A 
ATOM     12  C   UNL d   1     -43.902-123.079 -49.226  0.00  0.00     0.024 A 
ATOM     13  C   UNL d   1     -44.053-123.433 -49.950  0.00  0.00     0.002 A 
ATOM     14  C   UNL d   1     -43.444-123.802 -50.366  0.00  0.00     0.000 A 
ATOM     15  C   UNL d   1     -42.682-123.813 -50.050  0.00  0.00     0.006 A 
BRANCH  11  16
ATOM     16  N   UNL d   1     -42.986-122.732 -48.174  0.00  0.00    -0.114 N 
ATOM     17  O   UNL d   1     -42.847-123.195 -47.508  0.00  0.00    -0.532 OA
ATOM     18  O   UNL d   1     -42.970-121.909 -48.111  0.00  0.00    -0.532 OA
ENDBRANCH  11  16
ENDBRANCH   8  10
ENDBRANCH   4   7
BRANCH   1  19
ATOM     19  C   UNL d   1     -41.585-122.563 -52.678  0.00  0.00     0.101 A 
ATOM     20  N   UNL d   1     -42.058-121.962 -52.976  0.00  0.00    -0.227 NA
ATOM     21  C   UNL d   1     -42.009-121.980 -53.795  0.00  0.00     0.148 A 
ATOM     22  N   UNL d   1     -41.503-122.595 -54.004  0.00  0.00    -0.288 N 
ATOM     23  C   UNL d   1     -42.359-121.516 -54.380  0.00  0.00     0.037 A 
ATOM     24  C   UNL d   1     -41.347-122.747 -54.797  0.00  0.00     0.082 A 
ATOM     25  C   UNL d   1     -41.243-122.953 -53.315  0.00  0.00     0.101 A 
ATOM     26  C   UNL d   1     -41.697-122.283 -55.383  0.00  0.00     0.019 A 
ATOM     27  C   UNL d   1     -42.203-121.668 -55.175  0.00  0.00     0.005 A 
ENDBRANCH   1  19
TORSDOF 4
ENDMDL
MODEL 2
REMARK VINA RESULT:      -2.5      2.603      5.098
REMARK  4 active torsions:
REMARK  status: ('A' for Active; 'I' for Inactive)
REMARK    1  A    between atoms: N_2  and  C_9 
REMARK    2  A    between atoms: C_11  and  C_5 
REMARK    3  A    between atoms: C_6  and  C_7 
REMARK       I    between atoms: C_7  and  N_10 
REMARK    4  A    between atoms: N_10  and  C_21 
ROOT
ATOM      1  C   UNL d   1     -41.874-122.041 -51.340  0.00  0.00     0.019 A 
ATOM      2  C   UNL d   1     -42.583-121.895 -51.742  0.00  0.00     0.003 A 
ATOM      3  C   UNL d   1     -41.152-121.814 -51.667  0.00  0.00     0.003 A 
ATOM      4  C   UNL d   1     -41.841-121.289 -52.805  0.00  0.00     0.085 A 
ATOM      5  C   UNL d   1     -41.140-121.438 -52.399  0.00  0.00     0.019 A 
ATOM      6  C   UNL d   1     -42.561-121.518 -52.475  0.00  0.00     0.019 A 
ENDROOT
BRANCH   4   7
ATOM      7  N   UNL d   1     -41.827-120.911 -53.541  0.00  0.00    -0.208 NA
ATOM      8  C   UNL d   1     -41.759-121.359 -54.234  0.00  0.00     0.281 C 
ATOM      9  O   UNL d   1     -41.746-120.976 -54.967  0.00  0.00    -0.265 OA
BRANCH   8  10
ATOM     10  C   UNL d   1     -41.706-122.181 -54.190  0.00  0.00     0.080 A 
ATOM     11  C   UNL d   1     -42.186-122.645 -54.671  0.00  0.00     0.131 A 
ATOM     12  C   UNL d   1     -42.131-123.466 -54.624  0.00  0.00     0.024 A 
ATOM     13  C   UNL d   1     -41.603-123.817 -54.104  0.00  0.00     0.002 A 
ATOM     14  C   UNL d   1     -41.123-123.350 -53.623  0.00  0.00     0.000 A 
ATOM     15  C   UNL d   1     -41.176-122.528 -53.667  0.00  0.00     0.006 A 
BRANCH  11  16
ATOM     16  N   UNL d   1     -42.720-122.287 -55.196  0.00  0.00    -0.114 N 
ATOM     17  O   UNL d   1     -42.610-122.355 -56.010  0.00  0.00    -0.532 OA
ATOM     18  O   UNL d   1     -43.364-121.861 -54.905  0.00  0.00    -0.532 OA
ENDBRANCH  11  16
ENDBRANCH   8  10
ENDBRANCH   4   7
BRANCH   1  19
ATOM     19  C   UNL d   1     -41.888-122.419 -50.604  0.00  0.00     0.101 A 
ATOM     20  N   UNL d   1     -41.245-122.740 -50.208  0.00  0.00    -0.227 NA
ATOM     21  C   UNL d   1     -41.513-123.057 -49.500  0.00  0.00     0.148 A 
ATOM     22  N   UNL d   1     -42.326-122.932 -49.459  0.00  0.00    -0.288 N 
ATOM     23  C   UNL d   1     -41.124-123.445 -48.885  0.00  0.00     0.037 A 
ATOM     24  C   UNL d   1     -42.749-123.194 -48.804  0.00  0.00     0.082 A 
ATOM     25  C   UNL d   1     -42.555-122.539 -50.139  0.00  0.00     0.101 A 
ATOM     26  C   UNL d   1     -42.359-123.582 -48.189  0.00  0.00     0.019 A 
ATOM     27  C   UNL d   1     -41.547-123.708 -48.229  0.00  0.00     0.005 A 
ENDBRANCH   1  19
TORSDOF 4
ENDMDL
MODEL 3
REMARK VINA RESULT:      -0.7      2.340      4.978
REMARK  4 active torsions:
REMARK  status: ('A' for Active; 'I' for Inactive)
REMARK    1  A    between atoms: N_2  and  C_9 
REMARK    2  A    between atoms: C_11  and  C_5 
REMARK    3  A    between atoms: C_6  and  C_7 
REMARK       I    between atoms: C_7  and  N_10 
REMARK    4  A    between atoms: N_10  and  C_21 
ROOT
ATOM      1  C   UNL d   1     -41.975-123.481 -50.339  0.00  0.00     0.019 A 
ATOM      2  C   UNL d   1     -41.238-123.734 -50.622  0.00  0.00     0.003 A 
ATOM      3  C   UNL d   1     -42.588-123.310 -50.863  0.00  0.00     0.003 A 
ATOM      4  C   UNL d   1     -41.734-123.644 -51.961  0.00  0.00     0.085 A 
ATOM      5  C   UNL d   1     -42.464-123.393 -51.673  0.00  0.00     0.019 A 
ATOM      6  C   UNL d   1     -41.123-123.814 -51.433  0.00  0.00     0.019 A 
ENDROOT
BRANCH   4   7
ATOM      7  N   UNL d   1     -41.611-123.727 -52.775  0.00  0.00    -0.208 NA
ATOM      8  C   UNL d   1     -41.487-123.056 -53.244  0.00  0.00     0.281 C 
ATOM      9  O   UNL d   1     -41.364-123.145 -54.057  0.00  0.00    -0.265 OA
BRANCH   8  10
ATOM     10  C   UNL d   1     -41.486-122.306 -52.899  0.00  0.00     0.080 A 
ATOM     11  C   UNL d   1     -41.850-121.681 -53.290  0.00  0.00     0.131 A 
ATOM     12  C   UNL d   1     -41.848-120.932 -52.943  0.00  0.00     0.024 A 
ATOM     13  C   UNL d   1     -41.487-120.814 -52.217  0.00  0.00     0.002 A 
ATOM     14  C   UNL d   1     -41.123-121.443 -51.828  0.00  0.00     0.000 A 
ATOM     15  C   UNL d   1     -41.123-122.193 -52.172  0.00  0.00     0.006 A 
BRANCH  11  16
ATOM     16  N   UNL d   1     -42.216-121.804 -54.026  0.00  0.00    -0.114 N 
ATOM     17  O   UNL d   1     -43.029-121.925 -54.070  0.00  0.00    -0.532 OA
ATOM     18  O   UNL d   1     -41.763-121.805 -54.716  0.00  0.00    -0.532 OA
ENDBRANCH  11  16
ENDBRANCH   8  10
ENDBRANCH   4   7
BRANCH   1  19
ATOM     19  C   UNL d   1     -42.098-123.398 -49.525  0.00  0.00     0.101 A 
ATOM     20  N   UNL d   1     -42.673-123.775 -49.078  0.00  0.00    -0.227 NA
ATOM     21  C   UNL d   1     -42.593-123.531 -48.299  0.00  0.00     0.148 A 
ATOM     22  N   UNL d   1     -41.965-122.999 -48.265  0.00  0.00    -0.288 N 
ATOM     23  C   UNL d   1     -43.010-123.722 -47.613  0.00  0.00     0.037 A 
ATOM     24  C   UNL d   1     -41.754-122.659 -47.547  0.00  0.00     0.082 A 
ATOM     25  C   UNL d   1     -41.661-122.919 -49.021  0.00  0.00     0.101 A 
ATOM     26  C   UNL d   1     -42.170-122.850 -46.861  0.00  0.00     0.019 A 
ATOM     27  C   UNL d   1     -42.798-123.381 -46.893  0.00  0.00     0.005 A 
ENDBRANCH   1  19
TORSDOF 4
ENDMDL
