MODEL 1
REMARK VINA RESULT:      -4.4      0.000      0.000
REMARK  3 active torsions:
REMARK  status: ('A' for Active; 'I' for Inactive)
REMARK    1  A    between atoms: C_2  and  N_1 
REMARK    2  A    between atoms: C_3  and  N_1 
REMARK    3  A    between atoms: C_7  and  C_3 
ROOT
ATOM      1  N   UNL d   1      56.313  -0.027  32.752  0.00  0.00    -0.184 N 
ATOM      2  O   UNL d   1      56.079  -0.747  33.090  0.00  0.00    -0.080 OA
ENDROOT
BRANCH   1   3
ATOM      3  C   UNL d   1      56.804  -0.029  32.089  0.00  0.00     0.090 A 
ATOM      4  C   UNL d   1      56.951  -0.731  31.667  0.00  0.00     0.018 A 
ATOM      5  C   UNL d   1      56.607  -1.436  31.907  0.00  0.00     0.002 C 
ATOM      6  C   UNL d   1      57.442  -0.732  31.004  0.00  0.00     0.002 A 
ATOM      7  C   UNL d   1      57.807  -0.020  30.738  0.00  0.00     0.000 A 
ATOM      8  C   UNL d   1      57.645   0.681  31.180  0.00  0.00     0.002 A 
ATOM      9  C   UNL d   1      57.152   0.669  31.842  0.00  0.00     0.020 A 
ENDBRANCH   1   3
BRANCH   1  10
ATOM     10  C   UNL d   1      56.057   0.678  33.078  0.00  0.00     0.108 C 
BRANCH  10  11
ATOM     11  C   UNL d   1      55.556   0.676  33.739  0.00  0.00     0.023 A 
ATOM     12  C   UNL d   1      55.867   0.681  34.511  0.00  0.00     0.022 A 
ATOM     13  C   UNL d   1      55.380   0.679  35.168  0.00  0.00     0.099 A 
ATOM     14  N   UNL d   1      54.560   0.671  35.066  0.00  0.00    -0.242 NA
ATOM     15  C   UNL d   1      54.246   0.666  34.285  0.00  0.00     0.099 A 
ATOM     16  C   UNL d   1      54.744   0.668  33.633  0.00  0.00     0.022 A 
ENDBRANCH  10  11
ENDBRANCH   1  10
TORSDOF 3
ENDMDL
MODEL 2
REMARK VINA RESULT:      -3.0      4.088      5.571
REMARK  3 active torsions:
REMARK  status: ('A' for Active; 'I' for Inactive)
REMARK    1  A    between atoms: C_2  and  N_1 
REMARK    2  A    between atoms: C_3  and  N_1 
REMARK    3  A    between atoms: C_7  and  C_3 
ROOT
ATOM      1  N   UNL d   1      59.212  -2.142  29.175  0.00  0.00    -0.184 N 
ATOM      2  O   UNL d   1      58.459  -2.270  29.497  0.00  0.00    -0.080 OA
ENDROOT
BRANCH   1   3
ATOM      3  C   UNL d   1      59.720  -2.781  29.061  0.00  0.00     0.090 A 
ATOM      4  C   UNL d   1      59.451  -3.486  28.711  0.00  0.00     0.018 A 
ATOM      5  C   UNL d   1      58.669  -3.555  28.472  0.00  0.00     0.002 C 
ATOM      6  C   UNL d   1      59.960  -4.126  28.598  0.00  0.00     0.002 A 
ATOM      7  C   UNL d   1      60.768  -4.079  28.836  0.00  0.00     0.000 A 
ATOM      8  C   UNL d   1      61.021  -3.354  29.189  0.00  0.00     0.002 A 
ATOM      9  C   UNL d   1      60.501  -2.723  29.296  0.00  0.00     0.020 A 
ENDBRANCH   1   3
BRANCH   1  10
ATOM     10  C   UNL d   1      59.444  -1.384  28.972  0.00  0.00     0.108 C 
BRANCH  10  11
ATOM     11  C   UNL d   1      58.935  -0.742  29.098  0.00  0.00     0.023 A 
ATOM     12  C   UNL d   1      58.743  -0.494  29.869  0.00  0.00     0.022 A 
ATOM     13  C   UNL d   1      58.241   0.138  30.002  0.00  0.00     0.099 A 
ATOM     14  N   UNL d   1      57.916   0.541  29.358  0.00  0.00    -0.242 NA
ATOM     15  C   UNL d   1      58.110   0.289  28.579  0.00  0.00     0.099 A 
ATOM     16  C   UNL d   1      58.614  -0.346  28.457  0.00  0.00     0.022 A 
ENDBRANCH  10  11
ENDBRANCH   1  10
TORSDOF 3
ENDMDL
MODEL 3
REMARK VINA RESULT:      -1.7      8.507      9.879
REMARK  3 active torsions:
REMARK  status: ('A' for Active; 'I' for Inactive)
REMARK    1  A    between atoms: C_2  and  N_1 
REMARK    2  A    between atoms: C_3  and  N_1 
REMARK    3  A    between atoms: C_7  and  C_3 
ROOT
ATOM      1  N   UNL d   1      59.829  -8.275  35.702  0.00  0.00    -0.184 N 
ATOM      2  O   UNL d   1      59.065  -8.520  35.908  0.00  0.00    -0.080 OA
ENDROOT
BRANCH   1   3
ATOM      3  C   UNL d   1      60.084  -7.517  35.908  0.00  0.00     0.090 A 
ATOM      4  C   UNL d   1      59.557  -6.873  35.908  0.00  0.00     0.018 A 
ATOM      5  C   UNL d   1      58.770  -6.984  35.701  0.00  0.00     0.002 C 
ATOM      6  C   UNL d   1      59.811  -6.116  36.114  0.00  0.00     0.002 A 
ATOM      7  C   UNL d   1      60.614  -5.977  36.330  0.00  0.00     0.000 A 
ATOM      8  C   UNL d   1      61.133  -6.644  36.323  0.00  0.00     0.002 A 
ATOM      9  C   UNL d   1      60.865  -7.396  36.115  0.00  0.00     0.020 A 
ENDBRANCH   1   3
BRANCH   1  10
ATOM     10  C   UNL d   1      60.325  -8.784  35.296  0.00  0.00     0.108 C 
BRANCH  10  11
ATOM     11  C   UNL d   1      60.090  -9.104  34.568  0.00  0.00     0.023 A 
ATOM     12  C   UNL d   1      59.312  -9.373  34.450  0.00  0.00     0.022 A 
ATOM     13  C   UNL d   1      59.073  -9.690  33.735  0.00  0.00     0.099 A 
ATOM     14  N   UNL d   1      59.615  -9.745  33.114  0.00  0.00    -0.242 NA
ATOM     15  C   UNL d   1      60.402  -9.472  33.234  0.00  0.00     0.099 A 
ATOM     16  C   UNL d   1      60.631  -9.156  33.955  0.00  0.00     0.022 A 
ENDBRANCH  10  11
ENDBRANCH   1  10
TORSDOF 3
ENDMDL
