MODEL 1
REMARK VINA RESULT:      -3.0      0.000      0.000
REMARK  3 active torsions:
REMARK  status: ('A' for Active; 'I' for Inactive)
REMARK    1  A    between atoms: C_2  and  C_1 
REMARK       I    between atoms: N_4  and  C_2 
REMARK    2  A    between atoms: C_6  and  N_4 
REMARK    3  A    between atoms: S_12  and  C_5 
ROOT
ATOM      1  C   UNL d   1      32.876  20.611 -21.950  0.00  0.00     0.298 C 
ATOM      2  N   UNL d   1      32.938  20.302 -22.713  0.00  0.00    -0.207 NA
ATOM      3  O   UNL d   1      32.913  20.111 -21.285  0.00  0.00    -0.264 OA
ENDROOT
BRANCH   1   4
ATOM      4  C   UNL d   1      32.776  21.424 -21.845  0.00  0.00     0.153 A 
ATOM      5  N   UNL d   1      33.063  21.964 -22.418  0.00  0.00    -0.216 NA
ATOM      6  C   UNL d   1      32.959  22.780 -22.305  0.00  0.00     0.190 A 
ATOM      7  N   UNL d   1      32.573  23.062 -21.631  0.00  0.00    -0.219 NA
ATOM      8  C   UNL d   1      32.289  22.528 -21.064  0.00  0.00     0.114 A 
ATOM      9  C   UNL d   1      32.388  21.710 -21.168  0.00  0.00     0.099 A 
ATOM     10 CL   UNL d   1      32.102  21.180 -20.599  0.00  0.00    -0.079 Cl
BRANCH   6  11
ATOM     11  S   UNL d   1      33.241  23.314 -22.867  0.00  0.00    -0.075 SA
ATOM     12  C   UNL d   1      32.759  23.533 -23.512  0.00  0.00     0.077 C 
ENDBRANCH   6  11
ENDBRANCH   1   4
BRANCH   2  13
ATOM     13  C   UNL d   1      33.038  19.491 -22.822  0.00  0.00     0.085 A 
ATOM     14  C   UNL d   1      33.035  19.171 -23.576  0.00  0.00     0.018 A 
ATOM     15  C   UNL d   1      33.134  18.366 -23.691  0.00  0.00     0.002 A 
ATOM     16  C   UNL d   1      32.931  19.666 -24.228  0.00  0.00     0.002 A 
ATOM     17  C   UNL d   1      33.130  18.051 -24.451  0.00  0.00     0.000 A 
ATOM     18  C   UNL d   1      33.237  17.872 -23.039  0.00  0.00     0.000 A 
ATOM     19  C   UNL d   1      33.027  18.541 -25.097  0.00  0.00     0.000 A 
ATOM     20  C   UNL d   1      32.927  19.350 -24.988  0.00  0.00     0.000 A 
ATOM     21  C   UNL d   1      33.241  18.190 -22.276  0.00  0.00     0.002 A 
ATOM     22  C   UNL d   1      33.140  19.003 -22.171  0.00  0.00     0.019 A 
ENDBRANCH   2  13
TORSDOF 3
ENDMDL
MODEL 2
REMARK VINA RESULT:      -2.7      3.089      5.002
REMARK  3 active torsions:
REMARK  status: ('A' for Active; 'I' for Inactive)
REMARK    1  A    between atoms: C_2  and  C_1 
REMARK       I    between atoms: N_4  and  C_2 
REMARK    2  A    between atoms: C_6  and  N_4 
REMARK    3  A    between atoms: S_12  and  C_5 
ROOT
ATOM      1  C   UNL d   1      32.249  17.925 -24.367  0.00  0.00     0.298 C 
ATOM      2  N   UNL d   1      32.729  18.303 -23.809  0.00  0.00    -0.207 NA
ATOM      3  O   UNL d   1      31.934  18.349 -25.011  0.00  0.00    -0.264 OA
ENDROOT
BRANCH   1   4
ATOM      4  C   UNL d   1      32.082  17.120 -24.285  0.00  0.00     0.153 A 
ATOM      5  N   UNL d   1      31.414  16.870 -23.846  0.00  0.00    -0.216 NA
ATOM      6  C   UNL d   1      31.252  16.059 -23.769  0.00  0.00     0.190 A 
ATOM      7  N   UNL d   1      31.747  15.499 -24.121  0.00  0.00    -0.219 NA
ATOM      8  C   UNL d   1      32.409  15.747 -24.555  0.00  0.00     0.114 A 
ATOM      9  C   UNL d   1      32.578  16.556 -24.639  0.00  0.00     0.099 A 
ATOM     10 CL   UNL d   1      33.241  16.800 -25.073  0.00  0.00    -0.079 Cl
BRANCH   6  11
ATOM     11  S   UNL d   1      30.595  15.808 -23.338  0.00  0.00    -0.075 SA
ATOM     12  C   UNL d   1      29.932  15.494 -23.734  0.00  0.00     0.077 C 
ENDBRANCH   6  11
ENDBRANCH   1   4
BRANCH   2  13
ATOM     13  C   UNL d   1      32.897  19.105 -23.888  0.00  0.00     0.085 A 
ATOM     14  C   UNL d   1      32.986  19.576 -23.224  0.00  0.00     0.018 A 
ATOM     15  C   UNL d   1      33.153  20.376 -23.295  0.00  0.00     0.002 A 
ATOM     16  C   UNL d   1      32.905  19.242 -22.474  0.00  0.00     0.002 A 
ATOM     17  C   UNL d   1      33.241  20.843 -22.624  0.00  0.00     0.000 A 
ATOM     18  C   UNL d   1      33.234  20.709 -24.044  0.00  0.00     0.000 A 
ATOM     19  C   UNL d   1      33.161  20.513 -21.881  0.00  0.00     0.000 A 
ATOM     20  C   UNL d   1      32.992  19.711 -21.802  0.00  0.00     0.000 A 
ATOM     21  C   UNL d   1      33.146  20.237 -24.718  0.00  0.00     0.002 A 
ATOM     22  C   UNL d   1      32.977  19.433 -24.635  0.00  0.00     0.019 A 
ENDBRANCH   2  13
TORSDOF 3
ENDMDL
MODEL 3
REMARK VINA RESULT:      -2.2      3.531      4.511
REMARK  3 active torsions:
REMARK  status: ('A' for Active; 'I' for Inactive)
REMARK    1  A    between atoms: C_2  and  C_1 
REMARK       I    between atoms: N_4  and  C_2 
REMARK    2  A    between atoms: C_6  and  N_4 
REMARK    3  A    between atoms: S_12  and  C_5 
ROOT
ATOM      1  C   UNL d   1      31.713  17.331 -24.463  0.00  0.00     0.298 C 
ATOM      2  N   UNL d   1      30.951  17.277 -24.148  0.00  0.00    -0.207 NA
ATOM      3  O   UNL d   1      31.974  16.787 -25.037  0.00  0.00    -0.264 OA
ENDROOT
BRANCH   1   4
ATOM      4  C   UNL d   1      32.220  17.931 -24.208  0.00  0.00     0.153 A 
ATOM      5  N   UNL d   1      32.321  18.625 -24.667  0.00  0.00    -0.216 NA
ATOM      6  C   UNL d   1      32.832  19.223 -24.403  0.00  0.00     0.190 A 
ATOM      7  N   UNL d   1      33.241  19.138 -23.691  0.00  0.00    -0.219 NA
ATOM      8  C   UNL d   1      33.141  18.453 -23.236  0.00  0.00     0.114 A 
ATOM      9  C   UNL d   1      32.632  17.848 -23.491  0.00  0.00     0.099 A 
ATOM     10 CL   UNL d   1      32.535  17.164 -23.034  0.00  0.00    -0.079 Cl
BRANCH   6  11
ATOM     11  S   UNL d   1      32.934  19.907 -24.853  0.00  0.00    -0.075 SA
ATOM     12  C   UNL d   1      33.232  20.600 -24.496  0.00  0.00     0.077 C 
ENDBRANCH   6  11
ENDBRANCH   1   4
BRANCH   2  13
ATOM     13  C   UNL d   1      30.442  16.680 -24.401  0.00  0.00     0.085 A 
ATOM     14  C   UNL d   1      29.645  16.711 -24.217  0.00  0.00     0.018 A 
ATOM     15  C   UNL d   1      29.134  16.120 -24.466  0.00  0.00     0.002 A 
ATOM     16  C   UNL d   1      29.352  17.344 -23.776  0.00  0.00     0.002 A 
ATOM     17  C   UNL d   1      28.333  16.156 -24.277  0.00  0.00     0.000 A 
ATOM     18  C   UNL d   1      29.426  15.487 -24.906  0.00  0.00     0.000 A 
ATOM     19  C   UNL d   1      28.043  16.783 -23.841  0.00  0.00     0.000 A 
ATOM     20  C   UNL d   1      28.551  17.379 -23.589  0.00  0.00     0.000 A 
ATOM     21  C   UNL d   1      30.231  15.453 -25.094  0.00  0.00     0.002 A 
ATOM     22  C   UNL d   1      30.737  16.052 -24.839  0.00  0.00     0.019 A 
ENDBRANCH   2  13
TORSDOF 3
ENDMDL
MODEL 4
REMARK VINA RESULT:      -1.9      1.969      4.396
REMARK  3 active torsions:
REMARK  status: ('A' for Active; 'I' for Inactive)
REMARK    1  A    between atoms: C_2  and  C_1 
REMARK       I    between atoms: N_4  and  C_2 
REMARK    2  A    between atoms: C_6  and  N_4 
REMARK    3  A    between atoms: S_12  and  C_5 
ROOT
ATOM      1  C   UNL d   1      33.108  20.493 -23.462  0.00  0.00     0.298 C 
ATOM      2  N   UNL d   1      33.241  20.616 -22.655  0.00  0.00    -0.207 NA
ATOM      3  O   UNL d   1      32.959  21.135 -23.971  0.00  0.00    -0.264 OA
ENDROOT
BRANCH   1   4
ATOM      4  C   UNL d   1      33.124  19.725 -23.766  0.00  0.00     0.153 A 
ATOM      5  N   UNL d   1      33.072  19.065 -23.252  0.00  0.00    -0.216 NA
ATOM      6  C   UNL d   1      33.089  18.296 -23.566  0.00  0.00     0.190 A 
ATOM      7  N   UNL d   1      33.155  18.179 -24.381  0.00  0.00    -0.219 NA
ATOM      8  C   UNL d   1      33.205  18.832 -24.889  0.00  0.00     0.114 A 
ATOM      9  C   UNL d   1      33.190  19.605 -24.585  0.00  0.00     0.099 A 
ATOM     10 CL   UNL d   1      33.241  20.255 -25.097  0.00  0.00    -0.079 Cl
BRANCH   6  11
ATOM     11  S   UNL d   1      33.038  17.644 -23.063  0.00  0.00    -0.075 SA
ATOM     12  C   UNL d   1      32.541  17.004 -23.260  0.00  0.00     0.077 C 
ENDBRANCH   6  11
ENDBRANCH   1   4
BRANCH   2  13
ATOM     13  C   UNL d   1      33.226  21.381 -22.349  0.00  0.00     0.085 A 
ATOM     14  C   UNL d   1      33.216  21.501 -21.539  0.00  0.00     0.018 A 
ATOM     15  C   UNL d   1      33.201  22.259 -21.227  0.00  0.00     0.002 A 
ATOM     16  C   UNL d   1      33.220  20.851 -21.030  0.00  0.00     0.002 A 
ATOM     17  C   UNL d   1      33.190  22.373 -20.412  0.00  0.00     0.000 A 
ATOM     18  C   UNL d   1      33.197  22.908 -21.735  0.00  0.00     0.000 A 
ATOM     19  C   UNL d   1      33.194  21.730 -19.908  0.00  0.00     0.000 A 
ATOM     20  C   UNL d   1      33.209  20.967 -20.215  0.00  0.00     0.000 A 
ATOM     21  C   UNL d   1      33.208  22.791 -22.554  0.00  0.00     0.002 A 
ATOM     22  C   UNL d   1      33.222  22.024 -22.858  0.00  0.00     0.019 A 
ENDBRANCH   2  13
TORSDOF 3
ENDMDL
MODEL 5
REMARK VINA RESULT:      -1.3      4.163      5.332
REMARK  3 active torsions:
REMARK  status: ('A' for Active; 'I' for Inactive)
REMARK    1  A    between atoms: C_2  and  C_1 
REMARK       I    between atoms: N_4  and  C_2 
REMARK    2  A    between atoms: C_6  and  N_4 
REMARK    3  A    between atoms: S_12  and  C_5 
ROOT
ATOM      1  C   UNL d   1      30.853  17.322 -24.278  0.00  0.00     0.298 C 
ATOM      2  N   UNL d   1      30.298  16.968 -23.778  0.00  0.00    -0.207 NA
ATOM      3  O   UNL d   1      30.620  17.639 -25.013  0.00  0.00    -0.264 OA
ENDROOT
BRANCH   1   4
ATOM      4  C   UNL d   1      31.645  17.362 -24.047  0.00  0.00     0.153 A 
ATOM      5  N   UNL d   1      31.902  17.961 -23.520  0.00  0.00    -0.216 NA
ATOM      6  C   UNL d   1      32.700  17.994 -23.293  0.00  0.00     0.190 A 
ATOM      7  N   UNL d   1      33.240  17.441 -23.584  0.00  0.00    -0.219 NA
ATOM      8  C   UNL d   1      32.986  16.849 -24.105  0.00  0.00     0.114 A 
ATOM      9  C   UNL d   1      32.190  16.808 -24.338  0.00  0.00     0.099 A 
ATOM     10 CL   UNL d   1      31.939  16.214 -24.860  0.00  0.00    -0.079 Cl
BRANCH   6  11
ATOM     11  S   UNL d   1      32.957  18.582 -22.774  0.00  0.00    -0.075 SA
ATOM     12  C   UNL d   1      32.983  19.377 -23.025  0.00  0.00     0.077 C 
ENDBRANCH   6  11
ENDBRANCH   1   4
BRANCH   2  13
ATOM     13  C   UNL d   1      29.507  16.927 -24.005  0.00  0.00     0.085 A 
ATOM     14  C   UNL d   1      28.967  16.514 -23.548  0.00  0.00     0.018 A 
ATOM     15  C   UNL d   1      28.178  16.469 -23.768  0.00  0.00     0.002 A 
ATOM     16  C   UNL d   1      29.219  16.140 -22.857  0.00  0.00     0.002 A 
ATOM     17  C   UNL d   1      27.641  16.053 -23.304  0.00  0.00     0.000 A 
ATOM     18  C   UNL d   1      27.926  16.843 -24.458  0.00  0.00     0.000 A 
ATOM     19  C   UNL d   1      27.890  15.682 -22.620  0.00  0.00     0.000 A 
ATOM     20  C   UNL d   1      28.680  15.724 -22.394  0.00  0.00     0.000 A 
ATOM     21  C   UNL d   1      28.469  17.260 -24.923  0.00  0.00     0.002 A 
ATOM     22  C   UNL d   1      29.260  17.300 -24.692  0.00  0.00     0.019 A 
ENDBRANCH   2  13
TORSDOF 3
ENDMDL
MODEL 6
REMARK VINA RESULT:      -0.3      4.085      5.367
REMARK  3 active torsions:
REMARK  status: ('A' for Active; 'I' for Inactive)
REMARK    1  A    between atoms: C_2  and  C_1 
REMARK       I    between atoms: N_4  and  C_2 
REMARK    2  A    between atoms: C_6  and  N_4 
REMARK    3  A    between atoms: S_12  and  C_5 
ROOT
ATOM      1  C   UNL d   1      30.818  17.534 -24.103  0.00  0.00     0.298 C 
ATOM      2  N   UNL d   1      30.491  16.775 -24.084  0.00  0.00    -0.207 NA
ATOM      3  O   UNL d   1      30.343  18.195 -24.282  0.00  0.00    -0.264 OA
ENDROOT
BRANCH   1   4
ATOM      4  C   UNL d   1      31.621  17.639 -23.944  0.00  0.00     0.153 A 
ATOM      5  N   UNL d   1      31.982  17.235 -23.304  0.00  0.00    -0.216 NA
ATOM      6  C   UNL d   1      32.790  17.345 -23.150  0.00  0.00     0.190 A 
ATOM      7  N   UNL d   1      33.240  17.850 -23.624  0.00  0.00    -0.219 NA
ATOM      8  C   UNL d   1      32.883  18.250 -24.257  0.00  0.00     0.114 A 
ATOM      9  C   UNL d   1      32.075  18.146 -24.419  0.00  0.00     0.099 A 
ATOM     10 CL   UNL d   1      31.722  18.548 -25.052  0.00  0.00    -0.079 Cl
BRANCH   6  11
ATOM     11  S   UNL d   1      33.149  16.949 -22.522  0.00  0.00    -0.075 SA
ATOM     12  C   UNL d   1      33.241  16.120 -22.550  0.00  0.00     0.077 C 
ENDBRANCH   6  11
ENDBRANCH   1   4
BRANCH   2  13
ATOM     13  C   UNL d   1      29.690  16.668 -24.242  0.00  0.00     0.085 A 
ATOM     14  C   UNL d   1      29.214  16.265 -23.711  0.00  0.00     0.018 A 
ATOM     15  C   UNL d   1      28.416  16.154 -23.863  0.00  0.00     0.002 A 
ATOM     16  C   UNL d   1      29.542  15.966 -23.015  0.00  0.00     0.002 A 
ATOM     17  C   UNL d   1      27.944  15.748 -23.325  0.00  0.00     0.000 A 
ATOM     18  C   UNL d   1      28.089  16.452 -24.558  0.00  0.00     0.000 A 
ATOM     19  C   UNL d   1      28.268  15.453 -22.635  0.00  0.00     0.000 A 
ATOM     20  C   UNL d   1      29.068  15.560 -22.478  0.00  0.00     0.000 A 
ATOM     21  C   UNL d   1      28.566  16.860 -25.097  0.00  0.00     0.002 A 
ATOM     22  C   UNL d   1      29.368  16.966 -24.935  0.00  0.00     0.019 A 
ENDBRANCH   2  13
TORSDOF 3
ENDMDL
MODEL 7
REMARK VINA RESULT:      -0.2      4.546      5.778
REMARK  3 active torsions:
REMARK  status: ('A' for Active; 'I' for Inactive)
REMARK    1  A    between atoms: C_2  and  C_1 
REMARK       I    between atoms: N_4  and  C_2 
REMARK    2  A    between atoms: C_6  and  N_4 
REMARK    3  A    between atoms: S_12  and  C_5 
ROOT
ATOM      1  C   UNL d   1      30.123  16.316 -24.294  0.00  0.00     0.298 C 
ATOM      2  N   UNL d   1      30.617  16.530 -23.666  0.00  0.00    -0.207 NA
ATOM      3  O   UNL d   1      30.443  16.013 -25.001  0.00  0.00    -0.264 OA
ENDROOT
BRANCH   1   4
ATOM      4  C   UNL d   1      29.305  16.404 -24.219  0.00  0.00     0.153 A 
ATOM      5  N   UNL d   1      28.865  15.876 -23.740  0.00  0.00    -0.216 NA
ATOM      6  C   UNL d   1      28.043  15.971 -23.670  0.00  0.00     0.190 A 
ATOM      7  N   UNL d   1      27.658  16.582 -24.070  0.00  0.00    -0.219 NA
ATOM      8  C   UNL d   1      28.094  17.104 -24.545  0.00  0.00     0.114 A 
ATOM      9  C   UNL d   1      28.916  17.018 -24.621  0.00  0.00     0.099 A 
ATOM     10 CL   UNL d   1      29.348  17.542 -25.096  0.00  0.00    -0.079 Cl
BRANCH   6  11
ATOM     11  S   UNL d   1      27.606  15.454 -23.199  0.00  0.00    -0.075 SA
ATOM     12  C   UNL d   1      26.877  15.699 -22.876  0.00  0.00     0.077 C 
ENDBRANCH   6  11
ENDBRANCH   1   4
BRANCH   2  13
ATOM     13  C   UNL d   1      31.433  16.443 -23.737  0.00  0.00     0.085 A 
ATOM     14  C   UNL d   1      31.932  17.069 -23.559  0.00  0.00     0.018 A 
ATOM     15  C   UNL d   1      32.745  16.989 -23.628  0.00  0.00     0.002 A 
ATOM     16  C   UNL d   1      31.612  17.786 -23.308  0.00  0.00     0.002 A 
ATOM     17  C   UNL d   1      33.241  17.621 -23.448  0.00  0.00     0.000 A 
ATOM     18  C   UNL d   1      33.064  16.272 -23.879  0.00  0.00     0.000 A 
ATOM     19  C   UNL d   1      32.924  18.332 -23.199  0.00  0.00     0.000 A 
ATOM     20  C   UNL d   1      32.109  18.418 -23.128  0.00  0.00     0.000 A 
ATOM     21  C   UNL d   1      32.564  15.638 -24.059  0.00  0.00     0.002 A 
ATOM     22  C   UNL d   1      31.747  15.728 -23.987  0.00  0.00     0.019 A 
ENDBRANCH   2  13
TORSDOF 3
ENDMDL
