MODEL 1
REMARK VINA RESULT:      -2.1      0.000      0.000
REMARK  5 active torsions:
REMARK  status: ('A' for Active; 'I' for Inactive)
REMARK    1  A    between atoms: C_8  and  N_1 
REMARK       I    between atoms: N_2  and  C_6 
REMARK    2  A    between atoms: S_11  and  C_3 
REMARK    3  A    between atoms: C_6  and  C_8 
REMARK    4  A    between atoms: C_9  and  C_15 
REMARK       I    between atoms: N_10  and  C_9 
REMARK    5  A    between atoms: C_15  and  S_11 
ROOT
ATOM      1  N   UNL d   1      33.233  20.382 -22.641  0.00  0.00    -0.300 N 
ATOM      2  C   UNL d   1      33.226  19.151 -23.150  0.00  0.00     0.049 A 
ATOM      3  C   UNL d   1      33.228  19.581 -22.445  0.00  0.00     0.087 A 
ATOM      4  C   UNL d   1      33.230  19.685 -23.776  0.00  0.00     0.024 A 
ATOM      5  C   UNL d   1      33.234  20.447 -23.459  0.00  0.00     0.065 A 
ATOM      6  C   UNL d   1      33.230  19.577 -24.591  0.00  0.00     0.002 A 
ATOM      7  C   UNL d   1      33.239  21.104 -23.960  0.00  0.00     0.018 A 
ATOM      8  C   UNL d   1      33.234  20.232 -25.096  0.00  0.00     0.000 A 
ATOM      9  C   UNL d   1      33.239  20.995 -24.773  0.00  0.00     0.002 A 
ENDROOT
BRANCH   1  10
ATOM     10  C   UNL d   1      33.237  21.008 -22.106  0.00  0.00     0.142 C 
BRANCH  10  11
ATOM     11  C   UNL d   1      33.212  20.861 -21.299  0.00  0.00     0.283 C 
ATOM     12  N   UNL d   1      33.166  21.486 -20.766  0.00  0.00    -0.267 N 
ATOM     13  C   UNL d   1      33.141  21.341 -19.957  0.00  0.00     0.108 A 
ATOM     14  C   UNL d   1      33.145  22.262 -21.038  0.00  0.00     0.108 A 
ATOM     15  C   UNL d   1      33.095  21.967 -19.424  0.00  0.00     0.118 A 
ATOM     16  C   UNL d   1      33.070  21.817 -18.602  0.00  0.00     0.028 C 
ATOM     17  O   UNL d   1      33.074  22.747 -19.693  0.00  0.00    -0.304 OA
ATOM     18  C   UNL d   1      33.099  22.895 -20.500  0.00  0.00     0.118 A 
ATOM     19  C   UNL d   1      33.078  23.671 -20.773  0.00  0.00     0.028 C 
ATOM     20  O   UNL d   1      33.233  20.086 -21.024  0.00  0.00    -0.265 OA
ENDBRANCH  10  11
ENDBRANCH   1  10
BRANCH   2  21
ATOM     21  S   UNL d   1      33.221  18.329 -23.213  0.00  0.00    -0.080 SA
BRANCH  21  22
ATOM     22  C   UNL d   1      32.522  17.926 -23.374  0.00  0.00     0.097 C 
BRANCH  22  23
ATOM     23  C   UNL d   1      32.452  17.126 -23.161  0.00  0.00     0.272 C 
ATOM     24  N   UNL d   1      31.779  16.704 -23.366  0.00  0.00    -0.267 N 
ATOM     25  C   UNL d   1      31.720  15.912 -23.150  0.00  0.00     0.110 A 
ATOM     26  C   UNL d   1      31.172  17.073 -23.782  0.00  0.00     0.110 A 
ATOM     27  C   UNL d   1      31.042  15.483 -23.355  0.00  0.00     0.142 A 
ATOM     28  O   UNL d   1      30.425  15.856 -23.777  0.00  0.00    -0.300 OA
ATOM     29  C   UNL d   1      30.494  16.644 -23.987  0.00  0.00     0.142 A 
ATOM     30  O   UNL d   1      33.058  16.748 -22.742  0.00  0.00    -0.266 OA
ENDBRANCH  22  23
ENDBRANCH  21  22
ENDBRANCH   2  21
TORSDOF 5
ENDMDL
MODEL 2
REMARK VINA RESULT:       0.1      1.732      5.618
REMARK  5 active torsions:
REMARK  status: ('A' for Active; 'I' for Inactive)
REMARK    1  A    between atoms: C_8  and  N_1 
REMARK       I    between atoms: N_2  and  C_6 
REMARK    2  A    between atoms: S_11  and  C_3 
REMARK    3  A    between atoms: C_6  and  C_8 
REMARK    4  A    between atoms: C_9  and  C_15 
REMARK       I    between atoms: N_10  and  C_9 
REMARK    5  A    between atoms: C_15  and  S_11 
ROOT
ATOM      1  N   UNL d   1      31.202  17.305 -24.349  0.00  0.00    -0.300 N 
ATOM      2  C   UNL d   1      32.261  17.962 -23.877  0.00  0.00     0.049 A 
ATOM      3  C   UNL d   1      31.470  18.045 -24.102  0.00  0.00     0.087 A 
ATOM      4  C   UNL d   1      32.477  17.175 -23.984  0.00  0.00     0.024 A 
ATOM      5  C   UNL d   1      31.821  16.770 -24.276  0.00  0.00     0.065 A 
ATOM      6  C   UNL d   1      33.184  16.778 -23.854  0.00  0.00     0.002 A 
ATOM      7  C   UNL d   1      31.872  15.962 -24.439  0.00  0.00     0.018 A 
ATOM      8  C   UNL d   1      33.241  15.968 -24.016  0.00  0.00     0.000 A 
ATOM      9  C   UNL d   1      32.579  15.566 -24.309  0.00  0.00     0.002 A 
ENDROOT
BRANCH   1  10
ATOM     10  C   UNL d   1      30.445  17.134 -24.620  0.00  0.00     0.142 C 
BRANCH  10  11
ATOM     11  C   UNL d   1      29.817  17.626 -24.428  0.00  0.00     0.283 C 
ATOM     12  N   UNL d   1      29.174  17.331 -24.008  0.00  0.00    -0.267 N 
ATOM     13  C   UNL d   1      28.543  17.824 -23.815  0.00  0.00     0.108 A 
ATOM     14  C   UNL d   1      29.155  16.542 -23.778  0.00  0.00     0.108 A 
ATOM     15  C   UNL d   1      27.900  17.529 -23.394  0.00  0.00     0.118 A 
ATOM     16  C   UNL d   1      27.260  18.030 -23.198  0.00  0.00     0.028 C 
ATOM     17  O   UNL d   1      27.878  16.737 -23.161  0.00  0.00    -0.304 OA
ATOM     18  C   UNL d   1      28.505  16.244 -23.353  0.00  0.00     0.118 A 
ATOM     19  C   UNL d   1      28.487  15.453 -23.123  0.00  0.00     0.028 C 
ATOM     20  O   UNL d   1      29.832  18.416 -24.657  0.00  0.00    -0.265 OA
ENDBRANCH  10  11
ENDBRANCH   1  10
BRANCH   2  21
ATOM     21  S   UNL d   1      32.746  18.565 -23.593  0.00  0.00    -0.080 SA
BRANCH  21  22
ATOM     22  C   UNL d   1      32.437  19.161 -23.116  0.00  0.00     0.097 C 
BRANCH  22  23
ATOM     23  C   UNL d   1      32.769  19.923 -23.147  0.00  0.00     0.272 C 
ATOM     24  N   UNL d   1      32.815  20.377 -22.466  0.00  0.00    -0.267 N 
ATOM     25  C   UNL d   1      33.145  21.131 -22.507  0.00  0.00     0.110 A 
ATOM     26  C   UNL d   1      32.533  20.080 -21.752  0.00  0.00     0.110 A 
ATOM     27  C   UNL d   1      33.193  21.592 -21.821  0.00  0.00     0.142 A 
ATOM     28  O   UNL d   1      32.908  21.292 -21.096  0.00  0.00    -0.300 OA
ATOM     29  C   UNL d   1      32.581  20.542 -21.066  0.00  0.00     0.142 A 
ATOM     30  O   UNL d   1      33.054  20.228 -23.861  0.00  0.00    -0.266 OA
ENDBRANCH  22  23
ENDBRANCH  21  22
ENDBRANCH   2  21
TORSDOF 5
ENDMDL
