MODEL 1
REMARK VINA RESULT:      -6.8      0.000      0.000
REMARK  4 active torsions:
REMARK  status: ('A' for Active; 'I' for Inactive)
REMARK    1  A    between atoms: N_8  and  C_2 
REMARK    2  A    between atoms: C_9  and  C_3 
REMARK       I    between atoms: C_6  and  N_7 
REMARK    3  A    between atoms: C_10  and  C_6 
REMARK    4  A    between atoms: N_7  and  N_8 
ROOT
ATOM      1  C   UNL d   1     -49.466  13.322  21.746  0.00  0.00     0.297 C 
ATOM      2  N   UNL d   1     -48.706  13.019  21.954  0.00  0.00    -0.104 NA
ATOM      3  O   UNL d   1     -49.838  13.055  21.072  0.00  0.00    -0.264 OA
ENDROOT
BRANCH   2   4
ATOM      4  N   UNL d   1     -48.340  13.287  22.624  0.00  0.00    -0.119 NA
BRANCH   4   5
ATOM      5  C   UNL d   1     -47.668  12.937  22.872  0.00  0.00     0.214 A 
ATOM      6  N   UNL d   1     -47.479  12.139  23.017  0.00  0.00    -0.224 NA
ATOM      7  C   UNL d   1     -46.670  12.117  23.271  0.00  0.00     0.067 A 
ATOM      8  C   UNL d   1     -46.404  12.886  23.272  0.00  0.00     0.053 A 
ATOM      9  S   UNL d   1     -47.002  13.383  23.032  0.00  0.00    -0.045 SA
BRANCH   7  10
ATOM     10  C   UNL d   1     -46.223  11.444  23.483  0.00  0.00     0.036 C 
ATOM     11  C   UNL d   1     -45.791  10.767  23.698  0.00  0.00     0.006 C 
ATOM     12  C   UNL d   1     -46.927  11.056  23.683  0.00  0.00     0.006 C 
ATOM     13  C   UNL d   1     -45.525  11.854  23.276  0.00  0.00     0.006 C 
ENDBRANCH   7  10
ENDBRANCH   4   5
ENDBRANCH   2   4
BRANCH   1  14
ATOM     14  C   UNL d   1     -49.839  13.901  22.239  0.00  0.00     0.059 A 
ATOM     15  C   UNL d   1     -50.370  13.654  22.830  0.00  0.00     0.005 A 
ATOM     16  C   UNL d   1     -50.713  14.210  23.287  0.00  0.00     0.007 A 
ATOM     17  C   UNL d   1     -50.562  15.016  23.195  0.00  0.00     0.035 A 
ATOM     18  C   UNL d   1     -50.039  15.263  22.612  0.00  0.00     0.007 A 
ATOM     19 BR   UNL d   1     -50.928  15.565  23.676  0.00  0.00    -0.049 Br
ATOM     20  C   UNL d   1     -49.681  14.701  22.139  0.00  0.00     0.005 A 
ENDBRANCH   1  14
TORSDOF 4
ENDMDL
MODEL 2
REMARK VINA RESULT:      -6.6      0.768      1.328
REMARK  4 active torsions:
REMARK  status: ('A' for Active; 'I' for Inactive)
REMARK    1  A    between atoms: N_8  and  C_2 
REMARK    2  A    between atoms: C_9  and  C_3 
REMARK       I    between atoms: C_6  and  N_7 
REMARK    3  A    between atoms: C_10  and  C_6 
REMARK    4  A    between atoms: N_7  and  N_8 
ROOT
ATOM      1  C   UNL d   1     -49.765  13.028  22.064  0.00  0.00     0.297 C 
ATOM      2  N   UNL d   1     -48.984  12.763  22.247  0.00  0.00    -0.104 NA
ATOM      3  O   UNL d   1     -50.196  12.652  21.483  0.00  0.00    -0.264 OA
ENDROOT
BRANCH   2   4
ATOM      4  N   UNL d   1     -48.561  13.139  22.825  0.00  0.00    -0.119 NA
BRANCH   4   5
ATOM      5  C   UNL d   1     -47.780  12.994  22.897  0.00  0.00     0.214 A 
ATOM      6  N   UNL d   1     -47.134  13.172  22.402  0.00  0.00    -0.224 NA
ATOM      7  C   UNL d   1     -46.439  12.872  22.783  0.00  0.00     0.067 A 
ATOM      8  C   UNL d   1     -46.682  12.531  23.480  0.00  0.00     0.053 A 
ATOM      9  S   UNL d   1     -47.490  12.602  23.552  0.00  0.00    -0.045 SA
BRANCH   7  10
ATOM     10  C   UNL d   1     -45.651  12.913  22.507  0.00  0.00     0.036 C 
ATOM     11  C   UNL d   1     -44.870  12.968  22.227  0.00  0.00     0.006 C 
ATOM     12  C   UNL d   1     -45.814  13.665  22.198  0.00  0.00     0.006 C 
ATOM     13  C   UNL d   1     -45.509  12.155  22.827  0.00  0.00     0.006 C 
ENDBRANCH   7  10
ENDBRANCH   4   5
ENDBRANCH   2   4
BRANCH   1  14
ATOM     14  C   UNL d   1     -50.098  13.683  22.486  0.00  0.00     0.059 A 
ATOM     15  C   UNL d   1     -50.040  14.448  22.164  0.00  0.00     0.005 A 
ATOM     16  C   UNL d   1     -50.357  15.056  22.572  0.00  0.00     0.007 A 
ATOM     17  C   UNL d   1     -50.738  14.954  23.297  0.00  0.00     0.035 A 
ATOM     18  C   UNL d   1     -50.796  14.200  23.617  0.00  0.00     0.007 A 
ATOM     19 BR   UNL d   1     -51.055  15.593  23.694  0.00  0.00    -0.049 Br
ATOM     20  C   UNL d   1     -50.474  13.570  23.207  0.00  0.00     0.005 A 
ENDBRANCH   1  14
TORSDOF 4
ENDMDL
MODEL 3
REMARK VINA RESULT:      -5.9      9.736     10.433
REMARK  4 active torsions:
REMARK  status: ('A' for Active; 'I' for Inactive)
REMARK    1  A    between atoms: N_8  and  C_2 
REMARK    2  A    between atoms: C_9  and  C_3 
REMARK       I    between atoms: C_6  and  N_7 
REMARK    3  A    between atoms: C_10  and  C_6 
REMARK    4  A    between atoms: N_7  and  N_8 
ROOT
ATOM      1  C   UNL d   1     -40.397  14.265  18.253  0.00  0.00     0.297 C 
ATOM      2  N   UNL d   1     -40.214  14.601  19.005  0.00  0.00    -0.104 NA
ATOM      3  O   UNL d   1     -41.161  14.037  18.085  0.00  0.00    -0.264 OA
ENDROOT
BRANCH   2   4
ATOM      4  N   UNL d   1     -39.454  14.827  19.167  0.00  0.00    -0.119 NA
BRANCH   4   5
ATOM      5  C   UNL d   1     -39.265  15.070  19.903  0.00  0.00     0.214 A 
ATOM      6  N   UNL d   1     -39.292  14.682  20.639  0.00  0.00    -0.224 NA
ATOM      7  C   UNL d   1     -39.018  15.235  21.221  0.00  0.00     0.067 A 
ATOM      8  C   UNL d   1     -38.839  15.922  20.825  0.00  0.00     0.053 A 
ATOM      9  S   UNL d   1     -38.986  15.827  20.031  0.00  0.00    -0.045 SA
BRANCH   7  10
ATOM     10  C   UNL d   1     -38.943  15.109  22.044  0.00  0.00     0.036 C 
ATOM     11  C   UNL d   1     -38.876  14.997  22.865  0.00  0.00     0.006 C 
ATOM     12  C   UNL d   1     -39.407  15.783  22.175  0.00  0.00     0.006 C 
ATOM     13  C   UNL d   1     -38.477  14.434  21.889  0.00  0.00     0.006 C 
ENDBRANCH   7  10
ENDBRANCH   4   5
ENDBRANCH   2   4
BRANCH   1  14
ATOM     14  C   UNL d   1     -39.785  14.166  17.675  0.00  0.00     0.059 A 
ATOM     15  C   UNL d   1     -39.660  14.762  17.107  0.00  0.00     0.005 A 
ATOM     16  C   UNL d   1     -39.081  14.656  16.570  0.00  0.00     0.007 A 
ATOM     17  C   UNL d   1     -38.605  13.982  16.556  0.00  0.00     0.035 A 
ATOM     18  C   UNL d   1     -38.726  13.393  17.115  0.00  0.00     0.007 A 
ATOM     19 BR   UNL d   1     -38.018  13.899  15.994  0.00  0.00    -0.049 Br
ATOM     20  C   UNL d   1     -39.317  13.492  17.671  0.00  0.00     0.005 A 
ENDBRANCH   1  14
TORSDOF 4
ENDMDL
MODEL 4
REMARK VINA RESULT:      -5.9      8.451      9.885
REMARK  4 active torsions:
REMARK  status: ('A' for Active; 'I' for Inactive)
REMARK    1  A    between atoms: N_8  and  C_2 
REMARK    2  A    between atoms: C_9  and  C_3 
REMARK       I    between atoms: C_6  and  N_7 
REMARK    3  A    between atoms: C_10  and  C_6 
REMARK    4  A    between atoms: N_7  and  N_8 
ROOT
ATOM      1  C   UNL d   1     -40.942  14.385  20.539  0.00  0.00     0.297 C 
ATOM      2  N   UNL d   1     -40.789  14.346  19.710  0.00  0.00    -0.104 NA
ATOM      3  O   UNL d   1     -41.627  14.064  20.841  0.00  0.00    -0.264 OA
ENDROOT
BRANCH   2   4
ATOM      4  N   UNL d   1     -40.107  14.666  19.414  0.00  0.00    -0.119 NA
BRANCH   4   5
ATOM      5  C   UNL d   1     -39.908  14.533  18.654  0.00  0.00     0.214 A 
ATOM      6  N   UNL d   1     -39.250  14.155  18.311  0.00  0.00    -0.224 NA
ATOM      7  C   UNL d   1     -39.354  14.190  17.470  0.00  0.00     0.067 A 
ATOM      8  C   UNL d   1     -40.056  14.578  17.337  0.00  0.00     0.053 A 
ATOM      9  S   UNL d   1     -40.393  14.787  18.047  0.00  0.00    -0.045 SA
BRANCH   7  10
ATOM     10  C   UNL d   1     -38.842  13.887  16.882  0.00  0.00     0.036 C 
ATOM     11  C   UNL d   1     -38.336  13.599  16.289  0.00  0.00     0.006 C 
ATOM     12  C   UNL d   1     -38.976  14.571  16.434  0.00  0.00     0.006 C 
ATOM     13  C   UNL d   1     -38.722  13.206  17.351  0.00  0.00     0.006 C 
ENDBRANCH   7  10
ENDBRANCH   4   5
ENDBRANCH   2   4
BRANCH   1  14
ATOM     14  C   UNL d   1     -40.382  14.759  21.054  0.00  0.00     0.059 A 
ATOM     15  C   UNL d   1     -40.420  15.583  21.168  0.00  0.00     0.005 A 
ATOM     16  C   UNL d   1     -39.887  15.921  21.655  0.00  0.00     0.007 A 
ATOM     17  C   UNL d   1     -39.304  15.487  22.047  0.00  0.00     0.035 A 
ATOM     18  C   UNL d   1     -39.265  14.675  21.936  0.00  0.00     0.007 A 
ATOM     19 BR   UNL d   1     -38.770  15.860  22.541  0.00  0.00    -0.049 Br
ATOM     20  C   UNL d   1     -39.806  14.318  21.439  0.00  0.00     0.005 A 
ENDBRANCH   1  14
TORSDOF 4
ENDMDL
MODEL 5
REMARK VINA RESULT:      -5.4      2.046      4.444
REMARK  4 active torsions:
REMARK  status: ('A' for Active; 'I' for Inactive)
REMARK    1  A    between atoms: N_8  and  C_2 
REMARK    2  A    between atoms: C_9  and  C_3 
REMARK       I    between atoms: C_6  and  N_7 
REMARK    3  A    between atoms: C_10  and  C_6 
REMARK    4  A    between atoms: N_7  and  N_8 
ROOT
ATOM      1  C   UNL d   1     -47.497  12.110  23.306  0.00  0.00     0.297 C 
ATOM      2  N   UNL d   1     -48.239  12.509  23.261  0.00  0.00    -0.104 NA
ATOM      3  O   UNL d   1     -47.442  11.397  23.697  0.00  0.00    -0.264 OA
ENDROOT
BRANCH   2   4
ATOM      4  N   UNL d   1     -48.289  13.217  22.871  0.00  0.00    -0.119 NA
BRANCH   4   5
ATOM      5  C   UNL d   1     -48.977  13.619  22.873  0.00  0.00     0.214 A 
ATOM      6  N   UNL d   1     -49.260  14.231  23.362  0.00  0.00    -0.224 NA
ATOM      7  C   UNL d   1     -50.037  14.430  23.086  0.00  0.00     0.067 A 
ATOM      8  C   UNL d   1     -50.193  13.944  22.454  0.00  0.00     0.053 A 
ATOM      9  S   UNL d   1     -49.557  13.453  22.322  0.00  0.00    -0.045 SA
BRANCH   7  10
ATOM     10  C   UNL d   1     -50.551  15.012  23.395  0.00  0.00     0.036 C 
ATOM     11  C   UNL d   1     -51.053  15.602  23.698  0.00  0.00     0.006 C 
ATOM     12  C   UNL d   1     -50.027  15.597  23.129  0.00  0.00     0.006 C 
ATOM     13  C   UNL d   1     -51.064  14.407  23.655  0.00  0.00     0.006 C 
ENDBRANCH   7  10
ENDBRANCH   4   5
ENDBRANCH   2   4
BRANCH   1  14
ATOM     14  C   UNL d   1     -46.811  12.452  22.943  0.00  0.00     0.059 A 
ATOM     15  C   UNL d   1     -46.591  12.210  22.178  0.00  0.00     0.005 A 
ATOM     16  C   UNL d   1     -45.944  12.540  21.849  0.00  0.00     0.007 A 
ATOM     17  C   UNL d   1     -45.488  13.108  22.237  0.00  0.00     0.035 A 
ATOM     18  C   UNL d   1     -45.704  13.348  22.992  0.00  0.00     0.007 A 
ATOM     19 BR   UNL d   1     -44.830  13.430  21.877  0.00  0.00    -0.049 Br
ATOM     20  C   UNL d   1     -46.365  13.016  23.339  0.00  0.00     0.005 A 
ENDBRANCH   1  14
TORSDOF 4
ENDMDL
