MODEL 1
REMARK VINA RESULT:      -5.9      0.000      0.000
REMARK  6 active torsions:
REMARK  status: ('A' for Active; 'I' for Inactive)
REMARK    1  A    between atoms: N_2  and  C_1 
REMARK    2  A    between atoms: N_3  and  C_1 
REMARK       I    between atoms: C_4  and  N_2 
REMARK    3  A    between atoms: C_5  and  N_3 
REMARK    4  A    between atoms: C_14  and  C_4 
REMARK    5  A    between atoms: C_8  and  O_10 
REMARK    6  A    between atoms: O_10  and  C_14 
ROOT
ATOM      1  N   UNL d   1     -46.519  12.643  22.856  0.00  0.00    -0.177 NA
ATOM      2  C   UNL d   1     -46.780  13.428  22.816  0.00  0.00     0.306 C 
ATOM      3  O   UNL d   1     -46.196  14.042  22.718  0.00  0.00    -0.263 OA
ENDROOT
BRANCH   2   4
ATOM      4  C   UNL d   1     -47.571  13.638  22.866  0.00  0.00     0.185 C 
BRANCH   4   5
ATOM      5  O   UNL d   1     -48.006  13.860  22.211  0.00  0.00    -0.300 OA
BRANCH   5   6
ATOM      6  C   UNL d   1     -48.748  14.161  22.288  0.00  0.00     0.106 A 
ATOM      7  C   UNL d   1     -49.382  13.875  21.797  0.00  0.00     0.057 A 
ATOM      8  C   UNL d   1     -50.140  14.206  21.899  0.00  0.00     0.009 A 
ATOM      9 BR   UNL d   1     -49.230  13.277  21.230  0.00  0.00    -0.047 Br
ATOM     10  C   UNL d   1     -50.300  14.768  22.425  0.00  0.00     0.001 A 
ATOM     11  C   UNL d   1     -49.658  15.055  22.921  0.00  0.00     0.002 A 
ATOM     12  C   UNL d   1     -51.064  15.086  22.513  0.00  0.00     0.000 C 
ATOM     13  C   UNL d   1     -48.909  14.733  22.825  0.00  0.00     0.025 A 
ENDBRANCH   5   6
ENDBRANCH   4   5
ENDBRANCH   2   4
BRANCH   1  14
ATOM     14  C   UNL d   1     -45.719  12.449  22.804  0.00  0.00     0.225 C 
ATOM     15  S   UNL d   1     -45.312  12.532  22.078  0.00  0.00    -0.037 SA
BRANCH  14  16
ATOM     16  N   UNL d   1     -45.331  12.175  23.476  0.00  0.00    -0.198 NA
BRANCH  16  17
ATOM     17  C   UNL d   1     -44.978  11.416  23.467  0.00  0.00     0.165 A 
ATOM     18  N   UNL d   1     -44.175  11.311  23.221  0.00  0.00    -0.225 NA
ATOM     19  C   UNL d   1     -43.837  10.561  23.216  0.00  0.00     0.101 A 
ATOM     20  C   UNL d   1     -44.292   9.915  23.452  0.00  0.00     0.021 A 
ATOM     21  C   UNL d   1     -45.078  10.028  23.690  0.00  0.00     0.005 A 
ATOM     22  C   UNL d   1     -45.414  10.761  23.698  0.00  0.00     0.039 A 
ENDBRANCH  16  17
ENDBRANCH  14  16
ENDBRANCH   1  14
TORSDOF 6
ENDMDL
MODEL 2
REMARK VINA RESULT:      -5.5      1.839      5.092
REMARK  6 active torsions:
REMARK  status: ('A' for Active; 'I' for Inactive)
REMARK    1  A    between atoms: N_2  and  C_1 
REMARK    2  A    between atoms: N_3  and  C_1 
REMARK       I    between atoms: C_4  and  N_2 
REMARK    3  A    between atoms: C_5  and  N_3 
REMARK    4  A    between atoms: C_14  and  C_4 
REMARK    5  A    between atoms: C_8  and  O_10 
REMARK    6  A    between atoms: O_10  and  C_14 
ROOT
ATOM      1  N   UNL d   1     -47.926  13.881  22.834  0.00  0.00    -0.177 NA
ATOM      2  C   UNL d   1     -47.107  13.980  22.910  0.00  0.00     0.306 C 
ATOM      3  O   UNL d   1     -46.794  14.772  22.884  0.00  0.00    -0.263 OA
ENDROOT
BRANCH   2   4
ATOM      4  C   UNL d   1     -46.589  13.353  23.008  0.00  0.00     0.185 C 
BRANCH   4   5
ATOM      5  O   UNL d   1     -46.842  12.607  23.227  0.00  0.00    -0.300 OA
BRANCH   5   6
ATOM      6  C   UNL d   1     -46.318  12.007  23.340  0.00  0.00     0.106 A 
ATOM      7  C   UNL d   1     -46.591  11.237  23.579  0.00  0.00     0.057 A 
ATOM      8  C   UNL d   1     -46.025  10.635  23.688  0.00  0.00     0.009 A 
ATOM      9 BR   UNL d   1     -47.409  11.106  23.698  0.00  0.00    -0.047 Br
ATOM     10  C   UNL d   1     -45.254  10.741  23.581  0.00  0.00     0.001 A 
ATOM     11  C   UNL d   1     -44.980  11.520  23.339  0.00  0.00     0.002 A 
ATOM     12  C   UNL d   1     -44.703  10.126  23.695  0.00  0.00     0.000 C 
ATOM     13  C   UNL d   1     -45.532  12.117  23.230  0.00  0.00     0.025 A 
ENDBRANCH   5   6
ENDBRANCH   4   5
ENDBRANCH   2   4
BRANCH   1  14
ATOM     14  C   UNL d   1     -48.433  14.524  22.736  0.00  0.00     0.225 C 
ATOM     15  S   UNL d   1     -48.201  15.175  22.265  0.00  0.00    -0.037 SA
BRANCH  14  16
ATOM     16  N   UNL d   1     -49.167  14.513  23.108  0.00  0.00    -0.198 NA
BRANCH  16  17
ATOM     17  C   UNL d   1     -49.805  14.108  22.750  0.00  0.00     0.165 A 
ATOM     18  N   UNL d   1     -50.090  13.376  23.068  0.00  0.00    -0.225 NA
ATOM     19  C   UNL d   1     -50.719  12.985  22.708  0.00  0.00     0.101 A 
ATOM     20  C   UNL d   1     -51.063  13.315  22.036  0.00  0.00     0.021 A 
ATOM     21  C   UNL d   1     -50.777  14.031  21.732  0.00  0.00     0.005 A 
ATOM     22  C   UNL d   1     -50.162  14.419  22.080  0.00  0.00     0.039 A 
ENDBRANCH  16  17
ENDBRANCH  14  16
ENDBRANCH   1  14
TORSDOF 6
ENDMDL
MODEL 3
REMARK VINA RESULT:      -5.4      7.919      9.463
REMARK  6 active torsions:
REMARK  status: ('A' for Active; 'I' for Inactive)
REMARK    1  A    between atoms: N_2  and  C_1 
REMARK    2  A    between atoms: N_3  and  C_1 
REMARK       I    between atoms: C_4  and  N_2 
REMARK    3  A    between atoms: C_5  and  N_3 
REMARK    4  A    between atoms: C_14  and  C_4 
REMARK    5  A    between atoms: C_8  and  O_10 
REMARK    6  A    between atoms: O_10  and  C_14 
ROOT
ATOM      1  N   UNL d   1     -40.024  15.173  19.677  0.00  0.00    -0.177 NA
ATOM      2  C   UNL d   1     -40.413  15.031  18.958  0.00  0.00     0.306 C 
ATOM      3  O   UNL d   1     -41.262  14.952  18.969  0.00  0.00    -0.263 OA
ENDROOT
BRANCH   2   4
ATOM      4  C   UNL d   1     -40.018  14.963  18.244  0.00  0.00     0.185 C 
BRANCH   4   5
ATOM      5  O   UNL d   1     -39.761  14.245  17.952  0.00  0.00    -0.300 OA
BRANCH   5   6
ATOM      6  C   UNL d   1     -39.320  14.203  17.280  0.00  0.00     0.106 A 
ATOM      7  C   UNL d   1     -38.793  13.547  17.153  0.00  0.00     0.057 A 
ATOM      8  C   UNL d   1     -38.348  13.530  16.447  0.00  0.00     0.009 A 
ATOM      9 BR   UNL d   1     -38.734  12.943  17.730  0.00  0.00    -0.047 Br
ATOM     10  C   UNL d   1     -38.392  14.087  15.895  0.00  0.00     0.001 A 
ATOM     11  C   UNL d   1     -38.926  14.749  16.026  0.00  0.00     0.002 A 
ATOM     12  C   UNL d   1     -37.940  14.053  15.196  0.00  0.00     0.000 C 
ATOM     13  C   UNL d   1     -39.366  14.772  16.719  0.00  0.00     0.025 A 
ENDBRANCH   5   6
ENDBRANCH   4   5
ENDBRANCH   2   4
BRANCH   1  14
ATOM     14  C   UNL d   1     -40.437  15.238  20.387  0.00  0.00     0.225 C 
ATOM     15  S   UNL d   1     -40.929  15.900  20.529  0.00  0.00    -0.037 SA
BRANCH  14  16
ATOM     16  N   UNL d   1     -40.357  14.644  20.950  0.00  0.00    -0.198 NA
BRANCH  16  17
ATOM     17  C   UNL d   1     -39.802  14.736  21.571  0.00  0.00     0.165 A 
ATOM     18  N   UNL d   1     -39.630  15.500  21.891  0.00  0.00    -0.225 NA
ATOM     19  C   UNL d   1     -39.083  15.581  22.501  0.00  0.00     0.101 A 
ATOM     20  C   UNL d   1     -38.708  14.907  22.793  0.00  0.00     0.021 A 
ATOM     21  C   UNL d   1     -38.883  14.163  22.472  0.00  0.00     0.005 A 
ATOM     22  C   UNL d   1     -39.418  14.079  21.875  0.00  0.00     0.039 A 
ENDBRANCH  16  17
ENDBRANCH  14  16
ENDBRANCH   1  14
TORSDOF 6
ENDMDL
MODEL 4
REMARK VINA RESULT:      -5.3      2.320      5.184
REMARK  6 active torsions:
REMARK  status: ('A' for Active; 'I' for Inactive)
REMARK    1  A    between atoms: N_2  and  C_1 
REMARK    2  A    between atoms: N_3  and  C_1 
REMARK       I    between atoms: C_4  and  N_2 
REMARK    3  A    between atoms: C_5  and  N_3 
REMARK    4  A    between atoms: C_14  and  C_4 
REMARK    5  A    between atoms: C_8  and  O_10 
REMARK    6  A    between atoms: O_10  and  C_14 
ROOT
ATOM      1  N   UNL d   1     -48.905  12.620  23.389  0.00  0.00    -0.177 NA
ATOM      2  C   UNL d   1     -48.382  11.978  23.399  0.00  0.00     0.306 C 
ATOM      3  O   UNL d   1     -48.711  11.191  23.418  0.00  0.00    -0.263 OA
ENDROOT
BRANCH   2   4
ATOM      4  C   UNL d   1     -47.567  12.066  23.390  0.00  0.00     0.185 C 
BRANCH   4   5
ATOM      5  O   UNL d   1     -47.206  12.784  23.242  0.00  0.00    -0.300 OA
BRANCH   5   6
ATOM      6  C   UNL d   1     -46.474  12.820  22.909  0.00  0.00     0.106 A 
ATOM      7  C   UNL d   1     -46.191  13.549  22.573  0.00  0.00     0.057 A 
ATOM      8  C   UNL d   1     -45.429  13.557  22.235  0.00  0.00     0.009 A 
ATOM      9 BR   UNL d   1     -46.677  14.230  22.590  0.00  0.00    -0.047 Br
ATOM     10  C   UNL d   1     -44.960  12.927  22.211  0.00  0.00     0.001 A 
ATOM     11  C   UNL d   1     -45.248  12.191  22.551  0.00  0.00     0.002 A 
ATOM     12  C   UNL d   1     -44.201  12.955  21.869  0.00  0.00     0.000 C 
ATOM     13  C   UNL d   1     -45.998  12.177  22.886  0.00  0.00     0.025 A 
ENDBRANCH   5   6
ENDBRANCH   4   5
ENDBRANCH   2   4
BRANCH   1  14
ATOM     14  C   UNL d   1     -49.722  12.514  23.398  0.00  0.00     0.225 C 
ATOM     15  S   UNL d   1     -50.058  11.805  23.107  0.00  0.00    -0.037 SA
BRANCH  14  16
ATOM     16  N   UNL d   1     -50.199  13.114  23.697  0.00  0.00    -0.198 NA
BRANCH  16  17
ATOM     17  C   UNL d   1     -50.440  13.738  23.195  0.00  0.00     0.165 A 
ATOM     18  N   UNL d   1     -50.831  13.580  22.460  0.00  0.00    -0.225 NA
ATOM     19  C   UNL d   1     -51.064  14.200  21.972  0.00  0.00     0.101 A 
ATOM     20  C   UNL d   1     -50.912  14.975  22.210  0.00  0.00     0.021 A 
ATOM     21  C   UNL d   1     -50.529  15.119  22.931  0.00  0.00     0.005 A 
ATOM     22  C   UNL d   1     -50.298  14.515  23.412  0.00  0.00     0.039 A 
ENDBRANCH  16  17
ENDBRANCH  14  16
ENDBRANCH   1  14
TORSDOF 6
ENDMDL
MODEL 5
REMARK VINA RESULT:      -4.7      1.818      2.204
REMARK  6 active torsions:
REMARK  status: ('A' for Active; 'I' for Inactive)
REMARK    1  A    between atoms: N_2  and  C_1 
REMARK    2  A    between atoms: N_3  and  C_1 
REMARK       I    between atoms: C_4  and  N_2 
REMARK    3  A    between atoms: C_5  and  N_3 
REMARK    4  A    between atoms: C_14  and  C_4 
REMARK    5  A    between atoms: C_8  and  O_10 
REMARK    6  A    between atoms: O_10  and  C_14 
ROOT
ATOM      1  N   UNL d   1     -46.526  13.342  22.630  0.00  0.00    -0.177 NA
ATOM      2  C   UNL d   1     -47.200  13.823  22.670  0.00  0.00     0.306 C 
ATOM      3  O   UNL d   1     -47.130  14.635  22.420  0.00  0.00    -0.263 OA
ENDROOT
BRANCH   2   4
ATOM      4  C   UNL d   1     -47.925  13.552  22.938  0.00  0.00     0.185 C 
BRANCH   4   5
ATOM      5  O   UNL d   1     -48.465  13.187  22.445  0.00  0.00    -0.300 OA
BRANCH   5   6
ATOM      6  C   UNL d   1     -49.095  12.784  22.744  0.00  0.00     0.106 A 
ATOM      7  C   UNL d   1     -49.864  12.865  22.390  0.00  0.00     0.057 A 
ATOM      8  C   UNL d   1     -50.498  12.435  22.721  0.00  0.00     0.009 A 
ATOM      9 BR   UNL d   1     -49.966  13.368  21.728  0.00  0.00    -0.047 Br
ATOM     10  C   UNL d   1     -50.420  11.959  23.342  0.00  0.00     0.001 A 
ATOM     11  C   UNL d   1     -49.640  11.879  23.698  0.00  0.00     0.002 A 
ATOM     12  C   UNL d   1     -51.064  11.537  23.658  0.00  0.00     0.000 C 
ATOM     13  C   UNL d   1     -49.013  12.300  23.377  0.00  0.00     0.025 A 
ENDBRANCH   5   6
ENDBRANCH   4   5
ENDBRANCH   2   4
BRANCH   1  14
ATOM     14  C   UNL d   1     -45.804  13.631  22.358  0.00  0.00     0.225 C 
ATOM     15  S   UNL d   1     -45.446  14.290  22.730  0.00  0.00    -0.037 SA
BRANCH  14  16
ATOM     16  N   UNL d   1     -45.443  13.262  21.717  0.00  0.00    -0.198 NA
BRANCH  16  17
ATOM     17  C   UNL d   1     -44.697  12.896  21.819  0.00  0.00     0.165 A 
ATOM     18  N   UNL d   1     -44.609  12.216  22.316  0.00  0.00    -0.225 NA
ATOM     19  C   UNL d   1     -43.871  11.863  22.410  0.00  0.00     0.101 A 
ATOM     20  C   UNL d   1     -43.222  12.182  22.013  0.00  0.00     0.021 A 
ATOM     21  C   UNL d   1     -43.319  12.848  21.530  0.00  0.00     0.005 A 
ATOM     22  C   UNL d   1     -44.039  13.198  21.434  0.00  0.00     0.039 A 
ENDBRANCH  16  17
ENDBRANCH  14  16
ENDBRANCH   1  14
TORSDOF 6
ENDMDL
MODEL 6
REMARK VINA RESULT:      -4.6      2.259      5.342
REMARK  6 active torsions:
REMARK  status: ('A' for Active; 'I' for Inactive)
REMARK    1  A    between atoms: N_2  and  C_1 
REMARK    2  A    between atoms: N_3  and  C_1 
REMARK       I    between atoms: C_4  and  N_2 
REMARK    3  A    between atoms: C_5  and  N_3 
REMARK    4  A    between atoms: C_14  and  C_4 
REMARK    5  A    between atoms: C_8  and  O_10 
REMARK    6  A    between atoms: O_10  and  C_14 
ROOT
ATOM      1  N   UNL d   1     -48.256  12.937  23.124  0.00  0.00    -0.177 NA
ATOM      2  C   UNL d   1     -47.616  12.458  23.341  0.00  0.00     0.306 C 
ATOM      3  O   UNL d   1     -47.783  11.702  23.698  0.00  0.00    -0.263 OA
ENDROOT
BRANCH   2   4
ATOM      4  C   UNL d   1     -46.835  12.678  23.227  0.00  0.00     0.185 C 
BRANCH   4   5
ATOM      5  O   UNL d   1     -46.232  12.130  23.158  0.00  0.00    -0.300 OA
BRANCH   5   6
ATOM      6  C   UNL d   1     -45.560  12.302  22.750  0.00  0.00     0.106 A 
ATOM      7  C   UNL d   1     -44.886  11.785  22.796  0.00  0.00     0.057 A 
ATOM      8  C   UNL d   1     -44.203  11.988  22.362  0.00  0.00     0.009 A 
ATOM      9 BR   UNL d   1     -44.923  11.095  23.269  0.00  0.00    -0.047 Br
ATOM     10  C   UNL d   1     -44.151  12.631  21.914  0.00  0.00     0.001 A 
ATOM     11  C   UNL d   1     -44.834  13.152  21.868  0.00  0.00     0.002 A 
ATOM     12  C   UNL d   1     -43.460  12.817  21.487  0.00  0.00     0.000 C 
ATOM     13  C   UNL d   1     -45.509  12.958  22.293  0.00  0.00     0.025 A 
ENDBRANCH   5   6
ENDBRANCH   4   5
ENDBRANCH   2   4
BRANCH   1  14
ATOM     14  C   UNL d   1     -49.036  12.701  23.245  0.00  0.00     0.225 C 
ATOM     15  S   UNL d   1     -49.305  11.966  22.946  0.00  0.00    -0.037 SA
BRANCH  14  16
ATOM     16  N   UNL d   1     -49.543  13.196  23.663  0.00  0.00    -0.198 NA
BRANCH  16  17
ATOM     17  C   UNL d   1     -50.034  13.730  23.246  0.00  0.00     0.165 A 
ATOM     18  N   UNL d   1     -50.546  13.459  22.628  0.00  0.00    -0.225 NA
ATOM     19  C   UNL d   1     -51.025  13.992  22.223  0.00  0.00     0.101 A 
ATOM     20  C   UNL d   1     -50.999  14.790  22.429  0.00  0.00     0.021 A 
ATOM     21  C   UNL d   1     -50.494  15.044  23.035  0.00  0.00     0.005 A 
ATOM     22  C   UNL d   1     -50.023  14.527  23.435  0.00  0.00     0.039 A 
ENDBRANCH  16  17
ENDBRANCH  14  16
ENDBRANCH   1  14
TORSDOF 6
ENDMDL
MODEL 7
REMARK VINA RESULT:      -4.4      3.512      4.344
REMARK  6 active torsions:
REMARK  status: ('A' for Active; 'I' for Inactive)
REMARK    1  A    between atoms: N_2  and  C_1 
REMARK    2  A    between atoms: N_3  and  C_1 
REMARK       I    between atoms: C_4  and  N_2 
REMARK    3  A    between atoms: C_5  and  N_3 
REMARK    4  A    between atoms: C_14  and  C_4 
REMARK    5  A    between atoms: C_8  and  O_10 
REMARK    6  A    between atoms: O_10  and  C_14 
ROOT
ATOM      1  N   UNL d   1     -43.340  13.518  21.429  0.00  0.00    -0.177 NA
ATOM      2  C   UNL d   1     -43.902  12.956  21.665  0.00  0.00     0.306 C 
ATOM      3  O   UNL d   1     -43.641  12.153  21.782  0.00  0.00    -0.263 OA
ENDROOT
BRANCH   2   4
ATOM      4  C   UNL d   1     -44.690  13.139  21.790  0.00  0.00     0.185 C 
BRANCH   4   5
ATOM      5  O   UNL d   1     -45.096  12.894  22.456  0.00  0.00    -0.300 OA
BRANCH   5   6
ATOM      6  C   UNL d   1     -45.825  13.187  22.630  0.00  0.00     0.106 A 
ATOM      7  C   UNL d   1     -46.390  12.711  23.053  0.00  0.00     0.057 A 
ATOM      8  C   UNL d   1     -47.138  13.040  23.219  0.00  0.00     0.009 A 
ATOM      9 BR   UNL d   1     -46.184  11.934  23.289  0.00  0.00    -0.047 Br
ATOM     10  C   UNL d   1     -47.347  13.766  23.004  0.00  0.00     0.001 A 
ATOM     11  C   UNL d   1     -46.775  14.246  22.577  0.00  0.00     0.002 A 
ATOM     12  C   UNL d   1     -48.100  14.079  23.179  0.00  0.00     0.000 C 
ATOM     13  C   UNL d   1     -46.037  13.927  22.411  0.00  0.00     0.025 A 
ENDBRANCH   5   6
ENDBRANCH   4   5
ENDBRANCH   2   4
BRANCH   1  14
ATOM     14  C   UNL d   1     -42.550  13.317  21.308  0.00  0.00     0.225 C 
ATOM     15  S   UNL d   1     -42.169  12.779  21.823  0.00  0.00    -0.037 SA
BRANCH  14  16
ATOM     16  N   UNL d   1     -42.146  13.653  20.675  0.00  0.00    -0.198 NA
BRANCH  16  17
ATOM     17  C   UNL d   1     -41.591  14.264  20.819  0.00  0.00     0.165 A 
ATOM     18  N   UNL d   1     -41.837  15.073  20.869  0.00  0.00    -0.225 NA
ATOM     19  C   UNL d   1     -41.284  15.666  21.010  0.00  0.00     0.101 A 
ATOM     20  C   UNL d   1     -40.491  15.461  21.101  0.00  0.00     0.021 A 
ATOM     21  C   UNL d   1     -40.261  14.666  21.050  0.00  0.00     0.005 A 
ATOM     22  C   UNL d   1     -40.798  14.081  20.912  0.00  0.00     0.039 A 
ENDBRANCH  16  17
ENDBRANCH  14  16
ENDBRANCH   1  14
TORSDOF 6
ENDMDL
MODEL 8
REMARK VINA RESULT:      -4.3      4.592      6.604
REMARK  6 active torsions:
REMARK  status: ('A' for Active; 'I' for Inactive)
REMARK    1  A    between atoms: N_2  and  C_1 
REMARK    2  A    between atoms: N_3  and  C_1 
REMARK       I    between atoms: C_4  and  N_2 
REMARK    3  A    between atoms: C_5  and  N_3 
REMARK    4  A    between atoms: C_14  and  C_4 
REMARK    5  A    between atoms: C_8  and  O_10 
REMARK    6  A    between atoms: O_10  and  C_14 
ROOT
ATOM      1  N   UNL d   1     -43.516  13.432  21.672  0.00  0.00    -0.177 NA
ATOM      2  C   UNL d   1     -42.874  13.308  21.162  0.00  0.00     0.306 C 
ATOM      3  O   UNL d   1     -42.792  12.541  20.798  0.00  0.00    -0.263 OA
ENDROOT
BRANCH   2   4
ATOM      4  C   UNL d   1     -42.319  13.887  20.995  0.00  0.00     0.185 C 
BRANCH   4   5
ATOM      5  O   UNL d   1     -41.518  13.768  21.102  0.00  0.00    -0.300 OA
BRANCH   5   6
ATOM      6  C   UNL d   1     -40.978  14.289  20.810  0.00  0.00     0.106 A 
ATOM      7  C   UNL d   1     -40.197  14.333  21.147  0.00  0.00     0.057 A 
ATOM      8  C   UNL d   1     -39.659  14.882  20.824  0.00  0.00     0.009 A 
ATOM      9 BR   UNL d   1     -39.992  13.831  21.785  0.00  0.00    -0.047 Br
ATOM     10  C   UNL d   1     -39.835  15.360  20.226  0.00  0.00     0.001 A 
ATOM     11  C   UNL d   1     -40.625  15.313  19.887  0.00  0.00     0.002 A 
ATOM     12  C   UNL d   1     -39.284  15.902  19.917  0.00  0.00     0.000 C 
ATOM     13  C   UNL d   1     -41.159  14.775  20.200  0.00  0.00     0.025 A 
ENDBRANCH   5   6
ENDBRANCH   4   5
ENDBRANCH   2   4
BRANCH   1  14
ATOM     14  C   UNL d   1     -44.065  12.838  21.829  0.00  0.00     0.225 C 
ATOM     15  S   UNL d   1     -43.825  12.131  22.208  0.00  0.00    -0.037 SA
BRANCH  14  16
ATOM     16  N   UNL d   1     -44.850  12.952  21.609  0.00  0.00    -0.198 NA
BRANCH  16  17
ATOM     17  C   UNL d   1     -45.429  13.080  22.200  0.00  0.00     0.165 A 
ATOM     18  N   UNL d   1     -45.623  12.474  22.758  0.00  0.00    -0.225 NA
ATOM     19  C   UNL d   1     -46.194  12.609  23.336  0.00  0.00     0.101 A 
ATOM     20  C   UNL d   1     -46.572  13.342  23.360  0.00  0.00     0.021 A 
ATOM     21  C   UNL d   1     -46.375  13.928  22.809  0.00  0.00     0.005 A 
ATOM     22  C   UNL d   1     -45.816  13.801  22.242  0.00  0.00     0.039 A 
ENDBRANCH  16  17
ENDBRANCH  14  16
ENDBRANCH   1  14
TORSDOF 6
ENDMDL
MODEL 9
REMARK VINA RESULT:      -3.1      8.088      9.611
REMARK  6 active torsions:
REMARK  status: ('A' for Active; 'I' for Inactive)
REMARK    1  A    between atoms: N_2  and  C_1 
REMARK    2  A    between atoms: N_3  and  C_1 
REMARK       I    between atoms: C_4  and  N_2 
REMARK    3  A    between atoms: C_5  and  N_3 
REMARK    4  A    between atoms: C_14  and  C_4 
REMARK    5  A    between atoms: C_8  and  O_10 
REMARK    6  A    between atoms: O_10  and  C_14 
ROOT
ATOM      1  N   UNL d   1     -39.350  14.720  18.254  0.00  0.00    -0.177 NA
ATOM      2  C   UNL d   1     -38.637  14.695  18.678  0.00  0.00     0.306 C 
ATOM      3  O   UNL d   1     -37.942  15.029  18.314  0.00  0.00    -0.263 OA
ENDROOT
BRANCH   2   4
ATOM      4  C   UNL d   1     -38.574  14.366  19.425  0.00  0.00     0.185 C 
BRANCH   4   5
ATOM      5  O   UNL d   1     -39.228  14.174  19.875  0.00  0.00    -0.300 OA
BRANCH   5   6
ATOM      6  C   UNL d   1     -39.186  14.149  20.679  0.00  0.00     0.106 A 
ATOM      7  C   UNL d   1     -39.890  14.028  21.142  0.00  0.00     0.057 A 
ATOM      8  C   UNL d   1     -39.817  14.006  21.972  0.00  0.00     0.009 A 
ATOM      9 BR   UNL d   1     -40.628  13.934  20.758  0.00  0.00    -0.047 Br
ATOM     10  C   UNL d   1     -39.132  14.093  22.348  0.00  0.00     0.001 A 
ATOM     11  C   UNL d   1     -38.422  14.215  21.878  0.00  0.00     0.002 A 
ATOM     12  C   UNL d   1     -39.079  14.068  23.179  0.00  0.00     0.000 C 
ATOM     13  C   UNL d   1     -38.488  14.237  21.060  0.00  0.00     0.025 A 
ENDBRANCH   5   6
ENDBRANCH   4   5
ENDBRANCH   2   4
BRANCH   1  14
ATOM     14  C   UNL d   1     -39.396  15.055  17.503  0.00  0.00     0.225 C 
ATOM     15  S   UNL d   1     -39.071  14.656  16.843  0.00  0.00    -0.037 SA
BRANCH  14  16
ATOM     16  N   UNL d   1     -39.766  15.785  17.414  0.00  0.00    -0.198 NA
BRANCH  16  17
ATOM     17  C   UNL d   1     -40.547  15.817  17.117  0.00  0.00     0.165 A 
ATOM     18  N   UNL d   1     -41.210  15.891  17.639  0.00  0.00    -0.225 NA
ATOM     19  C   UNL d   1     -41.975  15.922  17.338  0.00  0.00     0.101 A 
ATOM     20  C   UNL d   1     -42.085  15.880  16.521  0.00  0.00     0.021 A 
ATOM     21  C   UNL d   1     -41.430  15.809  16.019  0.00  0.00     0.005 A 
ATOM     22  C   UNL d   1     -40.678  15.778  16.309  0.00  0.00     0.039 A 
ENDBRANCH  16  17
ENDBRANCH  14  16
ENDBRANCH   1  14
TORSDOF 6
ENDMDL
