MODEL 1
REMARK VINA RESULT:      50.5      0.000      0.000
REMARK  6 active torsions:
REMARK  status: ('A' for Active; 'I' for Inactive)
REMARK    1  A    between atoms: C_3  and  C_1 
REMARK    2  A    between atoms: C_4  and  N_2 
REMARK       I    between atoms: N_14  and  C_3 
REMARK    3  A    between atoms: N_5  and  C_19 
REMARK    4  A    between atoms: O_18  and  C_13 
REMARK    5  A    between atoms: C_17  and  N_14 
REMARK    6  A    between atoms: C_19  and  C_17 
ROOT
ATOM      1  N   UNL d   1      58.411  49.639  50.519  0.00  0.00    -0.300 N 
ATOM      2  N   UNL d   1      59.993  49.627  50.984  0.00  0.00    -0.299 N 
ATOM      3  C   UNL d   1      59.001  49.563  49.942  0.00  0.00     0.100 A 
ATOM      4  C   UNL d   1      58.605  49.708  51.321  0.00  0.00     0.100 A 
ATOM      5  C   UNL d   1      59.799  49.558  50.182  0.00  0.00     0.100 A 
ATOM      6  C   UNL d   1      59.393  49.701  51.546  0.00  0.00     0.100 A 
ENDROOT
BRANCH   2   7
ATOM      7  C   UNL d   1      60.781  49.620  51.209  0.00  0.00     0.101 C 
BRANCH   7   8
ATOM      8  C   UNL d   1      61.142  48.933  51.469  0.00  0.00     0.121 C 
BRANCH   8   9
ATOM      9  N   UNL d   1      61.376  48.359  50.945  0.00  0.00    -0.205 NA
ATOM     10  C   UNL d   1      61.099  47.586  51.034  0.00  0.00     0.280 C 
ATOM     11  O   UNL d   1      60.589  47.399  51.646  0.00  0.00    -0.265 OA
BRANCH  10  12
ATOM     12  C   UNL d   1      61.338  47.002  50.502  0.00  0.00     0.065 A 
ATOM     13  C   UNL d   1      61.329  46.185  50.643  0.00  0.00     0.040 A 
ATOM     14  S   UNL d   1      61.614  45.815  49.962  0.00  0.00    -0.086 SA
ATOM     15  C   UNL d   1      61.792  46.384  49.417  0.00  0.00     0.036 A 
ATOM     16  C   UNL d   1      61.622  47.125  49.749  0.00  0.00     0.012 A 
ENDBRANCH  10  12
ENDBRANCH   8   9
ENDBRANCH   7   8
ENDBRANCH   2   7
BRANCH   1  17
ATOM     17  C   UNL d   1      57.621  49.644  50.280  0.00  0.00     0.086 A 
ATOM     18  C   UNL d   1      57.424  49.676  49.476  0.00  0.00     0.110 A 
ATOM     19  C   UNL d   1      56.636  49.681  49.251  0.00  0.00     0.026 A 
ATOM     20  C   UNL d   1      56.035  49.654  49.815  0.00  0.00     0.002 A 
ATOM     21  C   UNL d   1      56.231  49.622  50.620  0.00  0.00     0.002 A 
ATOM     22  C   UNL d   1      57.017  49.617  50.857  0.00  0.00     0.019 A 
BRANCH  18  23
ATOM     23  O   UNL d   1      58.013  49.703  48.908  0.00  0.00    -0.327 OA
ATOM     24  C   UNL d   1      58.604  49.121  48.888  0.00  0.00     0.181 C 
ENDBRANCH  18  23
ENDBRANCH   1  17
TORSDOF 6
ENDMDL
