MODEL 1
REMARK VINA RESULT:      -4.9      0.000      0.000
REMARK  2 active torsions:
REMARK  status: ('A' for Active; 'I' for Inactive)
REMARK    1  A    between atoms: N_8  and  C_7 
REMARK    2  A    between atoms: C_9  and  N_8 
ROOT
ATOM      1  N   UNL d   1      57.468   0.158  32.361  0.00  0.00    -0.245 NA
ENDROOT
BRANCH   1   2
ATOM      2  C   UNL d   1      57.540   0.285  31.555  0.00  0.00     0.093 A 
ATOM      3  C   UNL d   1      58.167   0.050  31.080  0.00  0.00     0.118 A 
ATOM      4  S   UNL d   1      57.998   0.298  30.307  0.00  0.00     0.213 S 
ATOM      5  C   UNL d   1      57.273   0.682  30.307  0.00  0.00     0.100 A 
ATOM      6  O   UNL d   1      57.772   0.570  29.564  0.00  0.00    -0.217 OA
ATOM      7  O   UNL d   1      58.710  -0.098  30.398  0.00  0.00    -0.217 OA
ATOM      8  C   UNL d   1      56.988   0.674  31.081  0.00  0.00     0.032 A 
ENDBRANCH   1   2
BRANCH   1   9
ATOM      9  C   UNL d   1      56.755  -0.128  32.666  0.00  0.00     0.082 A 
ATOM     10  C   UNL d   1      56.248   0.380  33.074  0.00  0.00     0.030 A 
ATOM     11  C   UNL d   1      55.545   0.101  33.375  0.00  0.00     0.059 A 
ATOM     12 CL   UNL d   1      54.985   0.527  33.790  0.00  0.00    -0.082 Cl
ATOM     13  C   UNL d   1      55.337  -0.692  33.273  0.00  0.00     0.011 A 
ATOM     14  C   UNL d   1      55.844  -1.200  32.866  0.00  0.00     0.002 A 
ATOM     15  C   UNL d   1      56.558  -0.915  32.560  0.00  0.00     0.019 A 
ENDBRANCH   1   9
TORSDOF 2
ENDMDL
MODEL 2
REMARK VINA RESULT:      -4.8      8.919      9.626
REMARK  2 active torsions:
REMARK  status: ('A' for Active; 'I' for Inactive)
REMARK    1  A    between atoms: N_8  and  C_7 
REMARK    2  A    between atoms: C_9  and  N_8 
ROOT
ATOM      1  N   UNL d   1      59.760  -8.017  36.170  0.00  0.00    -0.245 NA
ENDROOT
BRANCH   1   2
ATOM      2  C   UNL d   1      60.131  -7.288  36.150  0.00  0.00     0.093 A 
ATOM      3  C   UNL d   1      59.784  -6.571  35.950  0.00  0.00     0.118 A 
ATOM      4  S   UNL d   1      60.370  -5.987  36.007  0.00  0.00     0.213 S 
ATOM      5  C   UNL d   1      61.072  -6.342  36.241  0.00  0.00     0.100 A 
ATOM      6  O   UNL d   1      60.995  -5.457  36.083  0.00  0.00    -0.217 OA
ATOM      7  O   UNL d   1      59.631  -5.717  35.777  0.00  0.00    -0.217 OA
ATOM      8  C   UNL d   1      60.924  -7.149  36.330  0.00  0.00     0.032 A 
ENDBRANCH   1   2
BRANCH   1   9
ATOM      9  C   UNL d   1      59.976  -8.598  35.623  0.00  0.00     0.082 A 
ATOM     10  C   UNL d   1      59.568  -8.664  34.908  0.00  0.00     0.030 A 
ATOM     11  C   UNL d   1      59.779  -9.236  34.368  0.00  0.00     0.059 A 
ATOM     12 CL   UNL d   1      59.434  -9.374  33.640  0.00  0.00    -0.082 Cl
ATOM     13  C   UNL d   1      60.402  -9.752  34.535  0.00  0.00     0.011 A 
ATOM     14  C   UNL d   1      60.810  -9.686  35.249  0.00  0.00     0.002 A 
ATOM     15  C   UNL d   1      60.595  -9.105  35.797  0.00  0.00     0.019 A 
ENDBRANCH   1   9
TORSDOF 2
ENDMDL
MODEL 3
REMARK VINA RESULT:      -4.7      1.070      1.487
REMARK  2 active torsions:
REMARK  status: ('A' for Active; 'I' for Inactive)
REMARK    1  A    between atoms: N_8  and  C_7 
REMARK    2  A    between atoms: C_9  and  N_8 
ROOT
ATOM      1  N   UNL d   1      56.981   0.501  31.078  0.00  0.00    -0.245 NA
ENDROOT
BRANCH   1   2
ATOM      2  C   UNL d   1      57.728   0.372  30.768  0.00  0.00     0.093 A 
ATOM      3  C   UNL d   1      57.909  -0.084  30.110  0.00  0.00     0.118 A 
ATOM      4  S   UNL d   1      58.731  -0.053  30.005  0.00  0.00     0.213 S 
ATOM      5  C   UNL d   1      59.053   0.418  30.596  0.00  0.00     0.100 A 
ATOM      6  O   UNL d   1      59.550   0.018  29.958  0.00  0.00    -0.217 OA
ATOM      7  O   UNL d   1      58.327  -0.506  29.455  0.00  0.00    -0.217 OA
ATOM      8  C   UNL d   1      58.431   0.682  31.069  0.00  0.00     0.032 A 
ENDBRANCH   1   2
BRANCH   1   9
ATOM      9  C   UNL d   1      56.797   0.211  31.830  0.00  0.00     0.082 A 
ATOM     10  C   UNL d   1      56.452  -0.534  31.912  0.00  0.00     0.030 A 
ATOM     11  C   UNL d   1      56.270  -0.822  32.651  0.00  0.00     0.059 A 
ATOM     12 CL   UNL d   1      55.928  -1.544  32.827  0.00  0.00    -0.082 Cl
ATOM     13  C   UNL d   1      56.430  -0.368  33.322  0.00  0.00     0.011 A 
ATOM     14  C   UNL d   1      56.775   0.377  33.242  0.00  0.00     0.002 A 
ATOM     15  C   UNL d   1      56.960   0.668  32.489  0.00  0.00     0.019 A 
ENDBRANCH   1   9
TORSDOF 2
ENDMDL
MODEL 4
REMARK VINA RESULT:      -4.2      9.182      9.837
REMARK  2 active torsions:
REMARK  status: ('A' for Active; 'I' for Inactive)
REMARK    1  A    between atoms: N_8  and  C_7 
REMARK    2  A    between atoms: C_9  and  N_8 
ROOT
ATOM      1  N   UNL d   1      59.608  -9.224  35.279  0.00  0.00    -0.245 NA
ENDROOT
BRANCH   1   2
ATOM      2  C   UNL d   1      59.790  -9.382  34.497  0.00  0.00     0.093 A 
ATOM      3  C   UNL d   1      59.256  -9.440  33.875  0.00  0.00     0.118 A 
ATOM      4  S   UNL d   1      59.692  -9.606  33.189  0.00  0.00     0.213 S 
ATOM      5  C   UNL d   1      60.487  -9.649  33.388  0.00  0.00     0.100 A 
ATOM      6  O   UNL d   1      60.180  -9.768  32.547  0.00  0.00    -0.217 OA
ATOM      7  O   UNL d   1      58.881  -9.545  33.081  0.00  0.00    -0.217 OA
ATOM      8  C   UNL d   1      60.549  -9.510  34.198  0.00  0.00     0.032 A 
ENDBRANCH   1   2
BRANCH   1   9
ATOM      9  C   UNL d   1      59.876  -8.523  35.626  0.00  0.00     0.082 A 
ATOM     10  C   UNL d   1      59.402  -7.848  35.611  0.00  0.00     0.030 A 
ATOM     11  C   UNL d   1      59.664  -7.157  35.952  0.00  0.00     0.059 A 
ATOM     12 CL   UNL d   1      59.265  -6.444  35.985  0.00  0.00    -0.082 Cl
ATOM     13  C   UNL d   1      60.406  -7.130  36.315  0.00  0.00     0.011 A 
ATOM     14  C   UNL d   1      60.880  -7.804  36.330  0.00  0.00     0.002 A 
ATOM     15  C   UNL d   1      60.612  -8.507  35.983  0.00  0.00     0.019 A 
ENDBRANCH   1   9
TORSDOF 2
ENDMDL
MODEL 5
REMARK VINA RESULT:      -4.2      2.457      3.658
REMARK  2 active torsions:
REMARK  status: ('A' for Active; 'I' for Inactive)
REMARK    1  A    between atoms: N_8  and  C_7 
REMARK    2  A    between atoms: C_9  and  N_8 
ROOT
ATOM      1  N   UNL d   1      57.161   0.132  30.703  0.00  0.00    -0.245 NA
ENDROOT
BRANCH   1   2
ATOM      2  C   UNL d   1      57.010  -0.061  31.483  0.00  0.00     0.093 A 
ATOM      3  C   UNL d   1      56.658  -0.751  31.754  0.00  0.00     0.118 A 
ATOM      4  S   UNL d   1      56.619  -0.702  32.581  0.00  0.00     0.213 S 
ATOM      5  C   UNL d   1      56.944   0.014  32.817  0.00  0.00     0.100 A 
ATOM      6  O   UNL d   1      56.610  -0.591  33.397  0.00  0.00    -0.217 OA
ATOM      7  O   UNL d   1      56.313  -1.391  32.259  0.00  0.00    -0.217 OA
ATOM      8  C   UNL d   1      57.187   0.412  32.136  0.00  0.00     0.032 A 
ENDBRANCH   1   2
BRANCH   1   9
ATOM      9  C   UNL d   1      57.936   0.090  30.416  0.00  0.00     0.082 A 
ATOM     10  C   UNL d   1      58.167  -0.544  29.941  0.00  0.00     0.030 A 
ATOM     11  C   UNL d   1      58.929  -0.587  29.658  0.00  0.00     0.059 A 
ATOM     12 CL   UNL d   1      59.245  -1.174  29.185  0.00  0.00    -0.082 Cl
ATOM     13  C   UNL d   1      59.474   0.005  29.846  0.00  0.00     0.011 A 
ATOM     14  C   UNL d   1      59.244   0.639  30.321  0.00  0.00     0.002 A 
ATOM     15  C   UNL d   1      58.468   0.681  30.608  0.00  0.00     0.019 A 
ENDBRANCH   1   9
TORSDOF 2
ENDMDL
MODEL 6
REMARK VINA RESULT:      -4.1      3.085      3.749
REMARK  2 active torsions:
REMARK  status: ('A' for Active; 'I' for Inactive)
REMARK    1  A    between atoms: N_8  and  C_7 
REMARK    2  A    between atoms: C_9  and  N_8 
ROOT
ATOM      1  N   UNL d   1      56.336   0.654  33.587  0.00  0.00    -0.245 NA
ENDROOT
BRANCH   1   2
ATOM      2  C   UNL d   1      55.617   0.662  33.977  0.00  0.00     0.093 A 
ATOM      3  C   UNL d   1      55.505   0.665  34.791  0.00  0.00     0.118 A 
ATOM      4  S   UNL d   1      54.688   0.673  34.930  0.00  0.00     0.213 S 
ATOM      5  C   UNL d   1      54.300   0.676  34.207  0.00  0.00     0.100 A 
ATOM      6  O   UNL d   1      53.868   0.682  34.999  0.00  0.00    -0.217 OA
ATOM      7  O   UNL d   1      55.155   0.670  35.603  0.00  0.00    -0.217 OA
ATOM      8  C   UNL d   1      54.875   0.669  33.616  0.00  0.00     0.032 A 
ENDBRANCH   1   2
BRANCH   1   9
ATOM      9  C   UNL d   1      56.452   0.128  32.959  0.00  0.00     0.082 A 
ATOM     10  C   UNL d   1      56.704   0.410  32.226  0.00  0.00     0.030 A 
ATOM     11  C   UNL d   1      56.819  -0.106  31.607  0.00  0.00     0.059 A 
ATOM     12 CL   UNL d   1      57.066   0.082  30.850  0.00  0.00    -0.082 Cl
ATOM     13  C   UNL d   1      56.684  -0.914  31.712  0.00  0.00     0.011 A 
ATOM     14  C   UNL d   1      56.432  -1.197  32.445  0.00  0.00     0.002 A 
ATOM     15  C   UNL d   1      56.315  -0.671  33.073  0.00  0.00     0.019 A 
ENDBRANCH   1   9
TORSDOF 2
ENDMDL
MODEL 7
REMARK VINA RESULT:      -3.5      9.692     10.186
REMARK  2 active torsions:
REMARK  status: ('A' for Active; 'I' for Inactive)
REMARK    1  A    between atoms: N_8  and  C_7 
REMARK    2  A    between atoms: C_9  and  N_8 
ROOT
ATOM      1  N   UNL d   1      59.717  -9.422  35.106  0.00  0.00    -0.245 NA
ENDROOT
BRANCH   1   2
ATOM      2  C   UNL d   1      59.951  -8.720  35.456  0.00  0.00     0.093 A 
ATOM      3  C   UNL d   1      59.456  -8.115  35.709  0.00  0.00     0.118 A 
ATOM      4  S   UNL d   1      59.937  -7.518  36.027  0.00  0.00     0.213 S 
ATOM      5  C   UNL d   1      60.721  -7.755  35.970  0.00  0.00     0.100 A 
ATOM      6  O   UNL d   1      60.468  -6.966  36.327  0.00  0.00    -0.217 OA
ATOM      7  O   UNL d   1      59.132  -7.363  36.044  0.00  0.00    -0.217 OA
ATOM      8  C   UNL d   1      60.730  -8.500  35.616  0.00  0.00     0.032 A 
ENDBRANCH   1   2
BRANCH   1   9
ATOM      9  C   UNL d   1      59.698  -9.479  34.282  0.00  0.00     0.082 A 
ATOM     10  C   UNL d   1      60.400  -9.571  33.858  0.00  0.00     0.030 A 
ATOM     11  C   UNL d   1      60.383  -9.627  33.046  0.00  0.00     0.059 A 
ATOM     12 CL   UNL d   1      61.024  -9.719  32.547  0.00  0.00    -0.082 Cl
ATOM     13  C   UNL d   1      59.663  -9.591  32.644  0.00  0.00     0.011 A 
ATOM     14  C   UNL d   1      58.960  -9.499  33.066  0.00  0.00     0.002 A 
ATOM     15  C   UNL d   1      58.979  -9.442  33.892  0.00  0.00     0.019 A 
ENDBRANCH   1   9
TORSDOF 2
ENDMDL
