MODEL 1
REMARK VINA RESULT:       1.1      0.000      0.000
REMARK  4 active torsions:
REMARK  status: ('A' for Active; 'I' for Inactive)
REMARK    1  A    between atoms: C_11  and  N_2 
REMARK    2  A    between atoms: C_10  and  C_6 
REMARK    3  A    between atoms: C_16  and  C_9 
REMARK    4  A    between atoms: C_21  and  C_16 
ROOT
ATOM      1  C   UNL d   1      58.098  -1.240  30.284  0.00  0.00     0.143 A 
ATOM      2  N   UNL d   1      57.300  -0.909  31.323  0.00  0.00    -0.242 N 
ATOM      3  C   UNL d   1      57.972  -0.684  30.885  0.00  0.00     0.172 A 
ATOM      4  C   UNL d   1      57.012  -1.612  30.985  0.00  0.00     0.355 A 
ATOM      5  N   UNL d   1      57.504  -1.812  30.348  0.00  0.00    -0.187 NA
ATOM      6  C   UNL d   1      58.724  -1.157  29.767  0.00  0.00     0.163 A 
ATOM      7  N   UNL d   1      58.486  -0.035  30.965  0.00  0.00    -0.208 NA
ATOM      8  N   UNL d   1      59.240  -0.519  29.835  0.00  0.00    -0.220 NA
ATOM      9  C   UNL d   1      59.121   0.042  30.433  0.00  0.00     0.164 A 
ATOM     10  O   UNL d   1      56.347  -2.032  31.246  0.00  0.00    -0.244 OA
ENDROOT
BRANCH   2  11
ATOM     11  C   UNL d   1      56.984  -0.512  31.965  0.00  0.00     0.070 A 
ATOM     12  C   UNL d   1      57.080  -0.813  32.734  0.00  0.00     0.018 A 
ATOM     13  C   UNL d   1      56.767  -0.422  33.382  0.00  0.00     0.002 A 
ATOM     14  C   UNL d   1      56.355   0.278  33.252  0.00  0.00     0.000 A 
ATOM     15  C   UNL d   1      56.255   0.583  32.497  0.00  0.00     0.002 A 
ATOM     16  C   UNL d   1      56.033   0.682  33.905  0.00  0.00     0.000 C 
ATOM     17  C   UNL d   1      56.571   0.186  31.855  0.00  0.00     0.018 A 
ENDBRANCH   2  11
BRANCH   6  18
ATOM     18  C   UNL d   1      58.849  -1.713  29.167  0.00  0.00     0.316 C 
ATOM     19  O   UNL d   1      59.399  -2.324  29.265  0.00  0.00    -0.262 OA
ATOM     20  N   UNL d   1      58.413  -1.653  28.458  0.00  0.00    -0.101 N 
ENDBRANCH   6  18
BRANCH   9  21
ATOM     21  C   UNL d   1      59.637   0.682  30.504  0.00  0.00     0.039 C 
BRANCH  21  22
ATOM     22  C   UNL d   1      60.382   0.583  30.854  0.00  0.00     0.003 C 
ATOM     23  C   UNL d   1      61.041   0.465  30.372  0.00  0.00     0.000 C 
ATOM     24  C   UNL d   1      60.452   0.605  31.669  0.00  0.00     0.000 C 
ENDBRANCH  21  22
ENDBRANCH   9  21
TORSDOF 4
ENDMDL
MODEL 2
REMARK VINA RESULT:       2.3      1.541      2.517
REMARK  4 active torsions:
REMARK  status: ('A' for Active; 'I' for Inactive)
REMARK    1  A    between atoms: C_11  and  N_2 
REMARK    2  A    between atoms: C_10  and  C_6 
REMARK    3  A    between atoms: C_16  and  C_9 
REMARK    4  A    between atoms: C_21  and  C_16 
ROOT
ATOM      1  C   UNL d   1      59.385   0.368  31.354  0.00  0.00     0.143 A 
ATOM      2  N   UNL d   1      58.256   0.237  32.085  0.00  0.00    -0.242 N 
ATOM      3  C   UNL d   1      58.586   0.148  31.326  0.00  0.00     0.172 A 
ATOM      4  C   UNL d   1      58.861   0.515  32.584  0.00  0.00     0.355 A 
ATOM      5  N   UNL d   1      59.551   0.594  32.132  0.00  0.00    -0.187 NA
ATOM      6  C   UNL d   1      59.847   0.334  30.683  0.00  0.00     0.163 A 
ATOM      7  N   UNL d   1      58.251  -0.109  30.609  0.00  0.00    -0.208 NA
ATOM      8  N   UNL d   1      59.529   0.082  29.967  0.00  0.00    -0.220 NA
ATOM      9  C   UNL d   1      58.731  -0.140  29.931  0.00  0.00     0.164 A 
ATOM     10  O   UNL d   1      58.777   0.682  33.392  0.00  0.00    -0.244 OA
ENDROOT
BRANCH   2  11
ATOM     11  C   UNL d   1      57.482   0.080  32.299  0.00  0.00     0.070 A 
ATOM     12  C   UNL d   1      57.263  -0.678  32.559  0.00  0.00     0.018 A 
ATOM     13  C   UNL d   1      56.491  -0.844  32.775  0.00  0.00     0.002 A 
ATOM     14  C   UNL d   1      55.935  -0.239  32.728  0.00  0.00     0.000 A 
ATOM     15  C   UNL d   1      56.141   0.514  32.473  0.00  0.00     0.002 A 
ATOM     16  C   UNL d   1      55.148  -0.398  32.945  0.00  0.00     0.000 C 
ATOM     17  C   UNL d   1      56.917   0.670  32.259  0.00  0.00     0.018 A 
ENDBRANCH   2  11
BRANCH   6  18
ATOM     18  C   UNL d   1      60.645   0.554  30.712  0.00  0.00     0.316 C 
ATOM     19  O   UNL d   1      61.073   0.682  30.015  0.00  0.00    -0.262 OA
ATOM     20  N   UNL d   1      61.016   0.646  31.454  0.00  0.00    -0.101 N 
ENDBRANCH   6  18
BRANCH   9  21
ATOM     21  C   UNL d   1      58.408  -0.394  29.215  0.00  0.00     0.039 C 
BRANCH  21  22
ATOM     22  C   UNL d   1      58.500  -1.180  28.969  0.00  0.00     0.003 C 
ATOM     23  C   UNL d   1      57.887  -1.717  29.100  0.00  0.00     0.000 C 
ATOM     24  C   UNL d   1      59.195  -1.412  28.602  0.00  0.00     0.000 C 
ENDBRANCH  21  22
ENDBRANCH   9  21
TORSDOF 4
ENDMDL
MODEL 3
REMARK VINA RESULT:       2.7      1.394      3.581
REMARK  4 active torsions:
REMARK  status: ('A' for Active; 'I' for Inactive)
REMARK    1  A    between atoms: C_11  and  N_2 
REMARK    2  A    between atoms: C_10  and  C_6 
REMARK    3  A    between atoms: C_16  and  C_9 
REMARK    4  A    between atoms: C_21  and  C_16 
ROOT
ATOM      1  C   UNL d   1      56.752  -1.125  31.969  0.00  0.00     0.143 A 
ATOM      2  N   UNL d   1      57.618  -0.814  30.980  0.00  0.00    -0.242 N 
ATOM      3  C   UNL d   1      57.353  -0.602  31.741  0.00  0.00     0.172 A 
ATOM      4  C   UNL d   1      57.173  -1.474  30.740  0.00  0.00     0.355 A 
ATOM      5  N   UNL d   1      56.643  -1.662  31.350  0.00  0.00    -0.187 NA
ATOM      6  C   UNL d   1      56.389  -1.046  32.695  0.00  0.00     0.163 A 
ATOM      7  N   UNL d   1      57.590   0.008  32.253  0.00  0.00    -0.208 NA
ATOM      8  N   UNL d   1      56.614  -0.447  33.213  0.00  0.00    -0.220 NA
ATOM      9  C   UNL d   1      57.214   0.080  32.992  0.00  0.00     0.164 A 
ATOM     10  O   UNL d   1      57.253  -1.869  30.016  0.00  0.00    -0.244 OA
ENDROOT
BRANCH   2  11
ATOM     11  C   UNL d   1      58.206  -0.441  30.550  0.00  0.00     0.070 A 
ATOM     12  C   UNL d   1      58.941  -0.811  30.433  0.00  0.00     0.018 A 
ATOM     13  C   UNL d   1      59.534  -0.445  30.004  0.00  0.00     0.002 A 
ATOM     14  C   UNL d   1      59.385   0.301  29.691  0.00  0.00     0.000 A 
ATOM     15  C   UNL d   1      58.663   0.675  29.800  0.00  0.00     0.002 A 
ATOM     16  C   UNL d   1      59.983   0.680  29.254  0.00  0.00     0.000 C 
ATOM     17  C   UNL d   1      58.074   0.301  30.231  0.00  0.00     0.018 A 
ENDBRANCH   2  11
BRANCH   6  18
ATOM     18  C   UNL d   1      55.789  -1.569  32.923  0.00  0.00     0.316 C 
ATOM     19  O   UNL d   1      55.969  -2.340  33.163  0.00  0.00    -0.262 OA
ATOM     20  N   UNL d   1      54.995  -1.310  32.909  0.00  0.00    -0.101 N 
ENDBRANCH   6  18
BRANCH   9  21
ATOM     21  C   UNL d   1      57.442   0.682  33.508  0.00  0.00     0.039 C 
BRANCH  21  22
ATOM     22  C   UNL d   1      58.151   0.623  33.934  0.00  0.00     0.003 C 
ATOM     23  C   UNL d   1      58.124   0.541  34.754  0.00  0.00     0.000 C 
ATOM     24  C   UNL d   1      58.866   0.647  33.534  0.00  0.00     0.000 C 
ENDBRANCH  21  22
ENDBRANCH   9  21
TORSDOF 4
ENDMDL
MODEL 4
REMARK VINA RESULT:       3.6      8.775      9.351
REMARK  4 active torsions:
REMARK  status: ('A' for Active; 'I' for Inactive)
REMARK    1  A    between atoms: C_11  and  N_2 
REMARK    2  A    between atoms: C_10  and  C_6 
REMARK    3  A    between atoms: C_16  and  C_9 
REMARK    4  A    between atoms: C_21  and  C_16 
ROOT
ATOM      1  C   UNL d   1      57.734  -9.538  30.354  0.00  0.00     0.143 A 
ATOM      2  N   UNL d   1      58.471  -9.585  31.486  0.00  0.00    -0.242 N 
ATOM      3  C   UNL d   1      58.503  -9.619  30.655  0.00  0.00     0.172 A 
ATOM      4  C   UNL d   1      57.673  -9.483  31.697  0.00  0.00     0.355 A 
ATOM      5  N   UNL d   1      57.224  -9.455  31.000  0.00  0.00    -0.187 NA
ATOM      6  C   UNL d   1      57.601  -9.551  29.550  0.00  0.00     0.163 A 
ATOM      7  N   UNL d   1      59.144  -9.713  30.134  0.00  0.00    -0.208 NA
ATOM      8  N   UNL d   1      58.227  -9.644  29.023  0.00  0.00    -0.220 NA
ATOM      9  C   UNL d   1      58.999  -9.725  29.316  0.00  0.00     0.164 A 
ATOM     10  O   UNL d   1      57.386  -9.422  32.472  0.00  0.00    -0.244 OA
ENDROOT
BRANCH   2  11
ATOM     11  C   UNL d   1      59.106  -9.642  31.999  0.00  0.00     0.070 A 
ATOM     12  C   UNL d   1      59.880  -9.707  31.703  0.00  0.00     0.018 A 
ATOM     13  C   UNL d   1      60.522  -9.764  32.208  0.00  0.00     0.002 A 
ATOM     14  C   UNL d   1      60.380  -9.756  33.019  0.00  0.00     0.000 A 
ATOM     15  C   UNL d   1      59.620  -9.692  33.321  0.00  0.00     0.002 A 
ATOM     16  C   UNL d   1      61.026  -9.814  33.541  0.00  0.00     0.000 C 
ATOM     17  C   UNL d   1      58.984  -9.636  32.808  0.00  0.00     0.018 A 
ENDBRANCH   2  11
BRANCH   6  18
ATOM     18  C   UNL d   1      56.833  -9.471  29.250  0.00  0.00     0.316 C 
ATOM     19  O   UNL d   1      56.184  -9.763  29.671  0.00  0.00    -0.262 OA
ATOM     20  N   UNL d   1      56.719  -9.091  28.516  0.00  0.00    -0.101 N 
ENDBRANCH   6  18
BRANCH   9  21
ATOM     21  C   UNL d   1      59.628  -9.818  28.791  0.00  0.00     0.039 C 
BRANCH  21  22
ATOM     22  C   UNL d   1      60.119  -9.176  28.607  0.00  0.00     0.003 C 
ATOM     23  C   UNL d   1      59.788  -8.424  28.530  0.00  0.00     0.000 C 
ATOM     24  C   UNL d   1      60.923  -9.296  28.506  0.00  0.00     0.000 C 
ENDBRANCH  21  22
ENDBRANCH   9  21
TORSDOF 4
ENDMDL
MODEL 5
REMARK VINA RESULT:       3.6      2.168      4.527
REMARK  4 active torsions:
REMARK  status: ('A' for Active; 'I' for Inactive)
REMARK    1  A    between atoms: C_11  and  N_2 
REMARK    2  A    between atoms: C_10  and  C_6 
REMARK    3  A    between atoms: C_16  and  C_9 
REMARK    4  A    between atoms: C_21  and  C_16 
ROOT
ATOM      1  C   UNL d   1      58.095   0.673  33.135  0.00  0.00     0.143 A 
ATOM      2  N   UNL d   1      58.375   0.674  31.813  0.00  0.00    -0.242 N 
ATOM      3  C   UNL d   1      57.762   0.671  32.376  0.00  0.00     0.172 A 
ATOM      4  C   UNL d   1      59.093   0.678  32.233  0.00  0.00     0.355 A 
ATOM      5  N   UNL d   1      58.917   0.678  33.043  0.00  0.00    -0.187 NA
ATOM      6  C   UNL d   1      57.618   0.671  33.796  0.00  0.00     0.163 A 
ATOM      7  N   UNL d   1      56.935   0.666  32.286  0.00  0.00    -0.208 NA
ATOM      8  N   UNL d   1      56.799   0.667  33.722  0.00  0.00    -0.220 NA
ATOM      9  C   UNL d   1      56.457   0.664  32.966  0.00  0.00     0.164 A 
ATOM     10  O   UNL d   1      59.848   0.682  31.891  0.00  0.00    -0.244 OA
ENDROOT
BRANCH   2  11
ATOM     11  C   UNL d   1      58.287   0.673  30.999  0.00  0.00     0.070 A 
ATOM     12  C   UNL d   1      57.529   0.674  30.659  0.00  0.00     0.018 A 
ATOM     13  C   UNL d   1      57.431   0.673  29.846  0.00  0.00     0.002 A 
ATOM     14  C   UNL d   1      58.105   0.671  29.373  0.00  0.00     0.000 A 
ATOM     15  C   UNL d   1      58.858   0.670  29.699  0.00  0.00     0.002 A 
ATOM     16  C   UNL d   1      58.015   0.670  28.546  0.00  0.00     0.000 C 
ATOM     17  C   UNL d   1      58.946   0.671  30.514  0.00  0.00     0.018 A 
ENDBRANCH   2  11
BRANCH   6  18
ATOM     18  C   UNL d   1      57.952   0.674  34.554  0.00  0.00     0.316 C 
ATOM     19  O   UNL d   1      58.774   0.671  34.653  0.00  0.00    -0.262 OA
ATOM     20  N   UNL d   1      57.451   0.679  35.221  0.00  0.00    -0.101 N 
ENDBRANCH   6  18
BRANCH   9  21
ATOM     21  C   UNL d   1      55.636   0.660  32.888  0.00  0.00     0.039 C 
BRANCH  21  22
ATOM     22  C   UNL d   1      55.175   0.134  33.334  0.00  0.00     0.003 C 
ATOM     23  C   UNL d   1      54.683   0.432  33.926  0.00  0.00     0.000 C 
ATOM     24  C   UNL d   1      55.215  -0.669  33.181  0.00  0.00     0.000 C 
ENDBRANCH  21  22
ENDBRANCH   9  21
TORSDOF 4
ENDMDL
