MODEL 1
REMARK VINA RESULT:      -5.8      0.000      0.000
REMARK  4 active torsions:
REMARK  status: ('A' for Active; 'I' for Inactive)
REMARK       I    between atoms: N_2  and  C_1 
REMARK    1  A    between atoms: C_4  and  C_1 
REMARK    2  A    between atoms: C_14  and  N_3 
REMARK    3  A    between atoms: C_5  and  C_6 
REMARK    4  A    between atoms: C_17  and  C_14 
ROOT
ATOM      1  C   UNL d   1     -40.436  14.192  18.577  0.00  0.00     0.265 C 
ATOM      2  N   UNL d   1     -40.286  14.587  19.277  0.00  0.00    -0.269 N 
ATOM      3  N   UNL d   1     -39.992  15.378  20.687  0.00  0.00    -0.300 N 
ATOM      4  O   UNL d   1     -41.083  13.688  18.526  0.00  0.00    -0.267 OA
ATOM      5  C   UNL d   1     -39.645  15.092  19.340  0.00  0.00     0.102 A 
ATOM      6  C   UNL d   1     -40.791  14.476  19.932  0.00  0.00     0.102 A 
ATOM      7  C   UNL d   1     -40.640  14.872  20.632  0.00  0.00     0.100 A 
ATOM      8  C   UNL d   1     -39.501  15.487  20.049  0.00  0.00     0.100 A 
ENDROOT
BRANCH   1   9
ATOM      9  C   UNL d   1     -39.932  14.304  17.922  0.00  0.00     0.057 A 
ATOM     10  C   UNL d   1     -40.070  14.915  17.403  0.00  0.00     0.004 A 
ATOM     11  C   UNL d   1     -39.566  15.027  16.748  0.00  0.00    -0.004 A 
ATOM     12  C   UNL d   1     -38.937  14.523  16.630  0.00  0.00    -0.023 A 
ATOM     13  C   UNL d   1     -38.793  13.904  17.152  0.00  0.00    -0.004 A 
ATOM     14  C   UNL d   1     -39.297  13.792  17.807  0.00  0.00     0.004 A 
BRANCH  12  15
ATOM     15  C   UNL d   1     -38.440  14.633  15.984  0.00  0.00     0.019 C 
ATOM     16  C   UNL d   1     -38.445  15.446  16.118  0.00  0.00     0.004 C 
ATOM     17  C   UNL d   1     -37.939  14.743  15.335  0.00  0.00     0.004 C 
ATOM     18  C   UNL d   1     -38.434  13.810  15.849  0.00  0.00     0.004 C 
ENDBRANCH  12  15
ENDBRANCH   1   9
BRANCH   3  19
ATOM     19  C   UNL d   1     -39.835  15.778  21.386  0.00  0.00     0.080 C 
BRANCH  19  20
ATOM     20  C   UNL d   1     -39.252  15.511  21.898  0.00  0.00     0.018 A 
ATOM     21  C   UNL d   1     -39.374  14.827  22.374  0.00  0.00     0.002 A 
ATOM     22  C   UNL d   1     -38.780  14.572  22.881  0.00  0.00     0.000 A 
ATOM     23  C   UNL d   1     -38.057  14.987  22.927  0.00  0.00     0.000 A 
ATOM     24  C   UNL d   1     -37.940  15.662  22.455  0.00  0.00     0.000 A 
ATOM     25  C   UNL d   1     -38.536  15.922  21.943  0.00  0.00     0.002 A 
ENDBRANCH  19  20
ENDBRANCH   3  19
TORSDOF 4
ENDMDL
MODEL 2
REMARK VINA RESULT:      -5.5      8.076      9.956
REMARK  4 active torsions:
REMARK  status: ('A' for Active; 'I' for Inactive)
REMARK       I    between atoms: N_2  and  C_1 
REMARK    1  A    between atoms: C_4  and  C_1 
REMARK    2  A    between atoms: C_14  and  N_3 
REMARK    3  A    between atoms: C_5  and  C_6 
REMARK    4  A    between atoms: C_17  and  C_14 
ROOT
ATOM      1  C   UNL d   1     -48.649  11.868  22.925  0.00  0.00     0.265 C 
ATOM      2  N   UNL d   1     -47.847  11.975  23.035  0.00  0.00    -0.269 N 
ATOM      3  N   UNL d   1     -46.231  12.181  23.256  0.00  0.00    -0.300 N 
ATOM      4  O   UNL d   1     -48.969  11.112  22.971  0.00  0.00    -0.267 OA
ATOM      5  C   UNL d   1     -47.517  12.723  22.992  0.00  0.00     0.102 A 
ATOM      6  C   UNL d   1     -47.359  11.317  23.191  0.00  0.00     0.102 A 
ATOM      7  C   UNL d   1     -46.554  11.424  23.301  0.00  0.00     0.100 A 
ATOM      8  C   UNL d   1     -46.706  12.821  23.104  0.00  0.00     0.100 A 
ENDROOT
BRANCH   1   9
ATOM      9  C   UNL d   1     -49.137  12.526  22.769  0.00  0.00     0.057 A 
ATOM     10  C   UNL d   1     -49.462  12.947  23.386  0.00  0.00     0.004 A 
ATOM     11  C   UNL d   1     -49.949  13.605  23.230  0.00  0.00    -0.004 A 
ATOM     12  C   UNL d   1     -50.100  13.825  22.460  0.00  0.00    -0.023 A 
ATOM     13  C   UNL d   1     -49.774  13.403  21.833  0.00  0.00    -0.004 A 
ATOM     14  C   UNL d   1     -49.286  12.745  21.990  0.00  0.00     0.004 A 
BRANCH  12  15
ATOM     15  C   UNL d   1     -50.581  14.474  22.306  0.00  0.00     0.019 C 
ATOM     16  C   UNL d   1     -51.016  14.024  21.770  0.00  0.00     0.004 C 
ATOM     17  C   UNL d   1     -51.064  15.126  22.151  0.00  0.00     0.004 C 
ATOM     18  C   UNL d   1     -50.140  14.929  22.849  0.00  0.00     0.004 C 
ENDBRANCH  12  15
ENDBRANCH   1   9
BRANCH   3  19
ATOM     19  C   UNL d   1     -45.426  12.295  23.365  0.00  0.00     0.080 C 
BRANCH  19  20
ATOM     20  C   UNL d   1     -44.939  12.466  22.727  0.00  0.00     0.018 A 
ATOM     21  C   UNL d   1     -45.091  13.131  22.232  0.00  0.00     0.002 A 
ATOM     22  C   UNL d   1     -44.594  13.288  21.597  0.00  0.00     0.000 A 
ATOM     23  C   UNL d   1     -43.940  12.793  21.439  0.00  0.00     0.000 A 
ATOM     24  C   UNL d   1     -43.793  12.138  21.929  0.00  0.00     0.000 A 
ATOM     25  C   UNL d   1     -44.292  11.976  22.571  0.00  0.00     0.002 A 
ENDBRANCH  19  20
ENDBRANCH   3  19
TORSDOF 4
ENDMDL
MODEL 3
REMARK VINA RESULT:      -5.0      8.605     10.319
REMARK  4 active torsions:
REMARK  status: ('A' for Active; 'I' for Inactive)
REMARK       I    between atoms: N_2  and  C_1 
REMARK    1  A    between atoms: C_4  and  C_1 
REMARK    2  A    between atoms: C_14  and  N_3 
REMARK    3  A    between atoms: C_5  and  C_6 
REMARK    4  A    between atoms: C_17  and  C_14 
ROOT
ATOM      1  C   UNL d   1     -47.993  11.712  22.962  0.00  0.00     0.265 C 
ATOM      2  N   UNL d   1     -48.663  12.149  23.127  0.00  0.00    -0.269 N 
ATOM      3  N   UNL d   1     -50.016  13.021  23.461  0.00  0.00    -0.300 N 
ATOM      4  O   UNL d   1     -48.027  10.891  22.985  0.00  0.00    -0.267 OA
ATOM      5  C   UNL d   1     -48.641  12.967  23.107  0.00  0.00     0.102 A 
ATOM      6  C   UNL d   1     -49.376  11.759  23.318  0.00  0.00     0.102 A 
ATOM      7  C   UNL d   1     -50.047  12.198  23.484  0.00  0.00     0.100 A 
ATOM      8  C   UNL d   1     -49.323  13.400  23.275  0.00  0.00     0.100 A 
ENDROOT
BRANCH   1   9
ATOM      9  C   UNL d   1     -47.281  12.102  22.771  0.00  0.00     0.057 A 
ATOM     10  C   UNL d   1     -47.205  12.480  22.054  0.00  0.00     0.004 A 
ATOM     11  C   UNL d   1     -46.493  12.870  21.863  0.00  0.00    -0.004 A 
ATOM     12  C   UNL d   1     -45.875  12.871  22.394  0.00  0.00    -0.023 A 
ATOM     13  C   UNL d   1     -45.948  12.491  23.121  0.00  0.00    -0.004 A 
ATOM     14  C   UNL d   1     -46.660  12.101  23.311  0.00  0.00     0.004 A 
BRANCH  12  15
ATOM     15  C   UNL d   1     -45.174  13.256  22.206  0.00  0.00     0.019 C 
ATOM     16  C   UNL d   1     -45.524  13.981  22.379  0.00  0.00     0.004 C 
ATOM     17  C   UNL d   1     -44.467  13.642  22.017  0.00  0.00     0.004 C 
ATOM     18  C   UNL d   1     -44.818  12.521  22.032  0.00  0.00     0.004 C 
ENDBRANCH  12  15
ENDBRANCH   1   9
BRANCH   3  19
ATOM     19  C   UNL d   1     -50.685  13.466  23.626  0.00  0.00     0.080 C 
BRANCH  19  20
ATOM     20  C   UNL d   1     -50.811  14.184  23.250  0.00  0.00     0.018 A 
ATOM     21  C   UNL d   1     -50.940  14.221  22.418  0.00  0.00     0.002 A 
ATOM     22  C   UNL d   1     -51.064  14.948  22.057  0.00  0.00     0.000 A 
ATOM     23  C   UNL d   1     -51.064  15.650  22.509  0.00  0.00     0.000 A 
ATOM     24  C   UNL d   1     -50.936  15.611  23.329  0.00  0.00     0.000 A 
ATOM     25  C   UNL d   1     -50.810  14.880  23.698  0.00  0.00     0.002 A 
ENDBRANCH  19  20
ENDBRANCH   3  19
TORSDOF 4
ENDMDL
MODEL 4
REMARK VINA RESULT:      -5.0      7.871      9.869
REMARK  4 active torsions:
REMARK  status: ('A' for Active; 'I' for Inactive)
REMARK       I    between atoms: N_2  and  C_1 
REMARK    1  A    between atoms: C_4  and  C_1 
REMARK    2  A    between atoms: C_14  and  N_3 
REMARK    3  A    between atoms: C_5  and  C_6 
REMARK    4  A    between atoms: C_17  and  C_14 
ROOT
ATOM      1  C   UNL d   1     -46.270  13.684  22.762  0.00  0.00     0.265 C 
ATOM      2  N   UNL d   1     -47.075  13.797  22.847  0.00  0.00    -0.269 N 
ATOM      3  N   UNL d   1     -48.693  14.032  23.016  0.00  0.00    -0.300 N 
ATOM      4  O   UNL d   1     -45.796  14.308  22.514  0.00  0.00    -0.267 OA
ATOM      5  C   UNL d   1     -47.557  13.182  23.092  0.00  0.00     0.102 A 
ATOM      6  C   UNL d   1     -47.408  14.543  22.683  0.00  0.00     0.102 A 
ATOM      7  C   UNL d   1     -48.215  14.656  22.769  0.00  0.00     0.100 A 
ATOM      8  C   UNL d   1     -48.368  13.305  23.176  0.00  0.00     0.100 A 
ENDROOT
BRANCH   1   9
ATOM      9  C   UNL d   1     -45.937  12.937  22.925  0.00  0.00     0.057 A 
ATOM     10  C   UNL d   1     -46.234  12.484  23.534  0.00  0.00     0.004 A 
ATOM     11  C   UNL d   1     -45.901  11.738  23.698  0.00  0.00    -0.004 A 
ATOM     12  C   UNL d   1     -45.279  11.463  23.249  0.00  0.00    -0.023 A 
ATOM     13  C   UNL d   1     -44.975  11.917  22.633  0.00  0.00    -0.004 A 
ATOM     14  C   UNL d   1     -45.309  12.664  22.469  0.00  0.00     0.004 A 
BRANCH  12  15
ATOM     15  C   UNL d   1     -44.951  10.727  23.410  0.00  0.00     0.019 C 
ATOM     16  C   UNL d   1     -45.703  10.421  23.547  0.00  0.00     0.004 C 
ATOM     17  C   UNL d   1     -44.620   9.987  23.573  0.00  0.00     0.004 C 
ATOM     18  C   UNL d   1     -44.189  11.037  23.272  0.00  0.00     0.004 C 
ENDBRANCH  12  15
ENDBRANCH   1   9
BRANCH   3  19
ATOM     19  C   UNL d   1     -49.501  14.138  23.104  0.00  0.00     0.080 C 
BRANCH  19  20
ATOM     20  C   UNL d   1     -50.015  13.959  22.490  0.00  0.00     0.018 A 
ATOM     21  C   UNL d   1     -50.087  13.171  22.201  0.00  0.00     0.002 A 
ATOM     22  C   UNL d   1     -50.605  13.008  21.585  0.00  0.00     0.000 A 
ATOM     23  C   UNL d   1     -51.060  13.618  21.243  0.00  0.00     0.000 A 
ATOM     24  C   UNL d   1     -50.987  14.395  21.530  0.00  0.00     0.000 A 
ATOM     25  C   UNL d   1     -50.466  14.564  22.151  0.00  0.00     0.002 A 
ENDBRANCH  19  20
ENDBRANCH   3  19
TORSDOF 4
ENDMDL
MODEL 5
REMARK VINA RESULT:      -4.3      1.361      2.045
REMARK  4 active torsions:
REMARK  status: ('A' for Active; 'I' for Inactive)
REMARK       I    between atoms: N_2  and  C_1 
REMARK    1  A    between atoms: C_4  and  C_1 
REMARK    2  A    between atoms: C_14  and  N_3 
REMARK    3  A    between atoms: C_5  and  C_6 
REMARK    4  A    between atoms: C_17  and  C_14 
ROOT
ATOM      1  C   UNL d   1     -39.072  13.793  18.429  0.00  0.00     0.265 C 
ATOM      2  N   UNL d   1     -38.790  14.109  19.128  0.00  0.00    -0.269 N 
ATOM      3  N   UNL d   1     -38.218  14.737  20.535  0.00  0.00    -0.300 N 
ATOM      4  O   UNL d   1     -38.811  13.053  18.182  0.00  0.00    -0.267 OA
ATOM      5  C   UNL d   1     -39.043  14.844  19.383  0.00  0.00     0.102 A 
ATOM      6  C   UNL d   1     -38.241  13.679  19.585  0.00  0.00     0.102 A 
ATOM      7  C   UNL d   1     -37.959  13.996  20.285  0.00  0.00     0.100 A 
ATOM      8  C   UNL d   1     -38.753  15.155  20.090  0.00  0.00     0.100 A 
ENDROOT
BRANCH   1   9
ATOM      9  C   UNL d   1     -39.621  14.223  17.972  0.00  0.00     0.057 A 
ATOM     10  C   UNL d   1     -40.418  14.157  18.126  0.00  0.00     0.004 A 
ATOM     11  C   UNL d   1     -40.967  14.587  17.669  0.00  0.00    -0.004 A 
ATOM     12  C   UNL d   1     -40.705  15.072  17.070  0.00  0.00    -0.023 A 
ATOM     13  C   UNL d   1     -39.901  15.142  16.910  0.00  0.00    -0.004 A 
ATOM     14  C   UNL d   1     -39.352  14.712  17.367  0.00  0.00     0.004 A 
BRANCH  12  15
ATOM     15  C   UNL d   1     -41.247  15.496  16.619  0.00  0.00     0.019 C 
ATOM     16  C   UNL d   1     -41.600  15.776  17.308  0.00  0.00     0.004 C 
ATOM     17  C   UNL d   1     -41.791  15.922  16.166  0.00  0.00     0.004 C 
ATOM     18  C   UNL d   1     -40.888  15.211  15.921  0.00  0.00     0.004 C 
ENDBRANCH  12  15
ENDBRANCH   1   9
BRANCH   3  19
ATOM     19  C   UNL d   1     -37.940  15.060  21.236  0.00  0.00     0.080 C 
BRANCH  19  20
ATOM     20  C   UNL d   1     -38.199  14.773  21.959  0.00  0.00     0.018 A 
ATOM     21  C   UNL d   1     -38.424  15.299  22.578  0.00  0.00     0.002 A 
ATOM     22  C   UNL d   1     -38.682  14.996  23.297  0.00  0.00     0.000 A 
ATOM     23  C   UNL d   1     -38.723  14.171  23.417  0.00  0.00     0.000 A 
ATOM     24  C   UNL d   1     -38.501  13.654  22.804  0.00  0.00     0.000 A 
ATOM     25  C   UNL d   1     -38.240  13.956  22.078  0.00  0.00     0.002 A 
ENDBRANCH  19  20
ENDBRANCH   3  19
TORSDOF 4
ENDMDL
MODEL 6
REMARK VINA RESULT:      -4.0      7.537      9.431
REMARK  4 active torsions:
REMARK  status: ('A' for Active; 'I' for Inactive)
REMARK       I    between atoms: N_2  and  C_1 
REMARK    1  A    between atoms: C_4  and  C_1 
REMARK    2  A    between atoms: C_14  and  N_3 
REMARK    3  A    between atoms: C_5  and  C_6 
REMARK    4  A    between atoms: C_17  and  C_14 
ROOT
ATOM      1  C   UNL d   1     -47.229  14.066  22.919  0.00  0.00     0.265 C 
ATOM      2  N   UNL d   1     -46.592  13.589  22.737  0.00  0.00    -0.269 N 
ATOM      3  N   UNL d   1     -45.305  12.633  22.374  0.00  0.00    -0.300 N 
ATOM      4  O   UNL d   1     -47.101  14.802  23.262  0.00  0.00    -0.267 OA
ATOM      5  C   UNL d   1     -46.708  12.854  22.394  0.00  0.00     0.102 A 
ATOM      6  C   UNL d   1     -45.817  13.850  22.901  0.00  0.00     0.102 A 
ATOM      7  C   UNL d   1     -45.179  13.371  22.719  0.00  0.00     0.100 A 
ATOM      8  C   UNL d   1     -46.059  12.378  22.214  0.00  0.00     0.100 A 
ENDROOT
BRANCH   1   9
ATOM      9  C   UNL d   1     -48.004  13.805  22.754  0.00  0.00     0.057 A 
ATOM     10  C   UNL d   1     -48.402  13.348  23.299  0.00  0.00     0.004 A 
ATOM     11  C   UNL d   1     -49.177  13.087  23.135  0.00  0.00    -0.004 A 
ATOM     12  C   UNL d   1     -49.533  13.288  22.430  0.00  0.00    -0.023 A 
ATOM     13  C   UNL d   1     -49.134  13.749  21.877  0.00  0.00    -0.004 A 
ATOM     14  C   UNL d   1     -48.359  14.010  22.041  0.00  0.00     0.004 A 
BRANCH  12  15
ATOM     15  C   UNL d   1     -50.296  13.030  22.268  0.00  0.00     0.019 C 
ATOM     16  C   UNL d   1     -50.096  12.937  21.474  0.00  0.00     0.004 C 
ATOM     17  C   UNL d   1     -51.064  12.770  22.106  0.00  0.00     0.004 C 
ATOM     18  C   UNL d   1     -50.498  13.124  23.072  0.00  0.00     0.004 C 
ENDBRANCH  12  15
ENDBRANCH   1   9
BRANCH   3  19
ATOM     19  C   UNL d   1     -44.670  12.148  22.189  0.00  0.00     0.080 C 
BRANCH  19  20
ATOM     20  C   UNL d   1     -44.454  11.535  22.689  0.00  0.00     0.018 A 
ATOM     21  C   UNL d   1     -45.035  11.097  23.115  0.00  0.00     0.002 A 
ATOM     22  C   UNL d   1     -44.802  10.486  23.612  0.00  0.00     0.000 A 
ATOM     23  C   UNL d   1     -43.993  10.296  23.698  0.00  0.00     0.000 A 
ATOM     24  C   UNL d   1     -43.422  10.730  23.277  0.00  0.00     0.000 A 
ATOM     25  C   UNL d   1     -43.653  11.346  22.774  0.00  0.00     0.002 A 
ENDBRANCH  19  20
ENDBRANCH   3  19
TORSDOF 4
ENDMDL
MODEL 7
REMARK VINA RESULT:      -3.8      5.492      7.623
REMARK  4 active torsions:
REMARK  status: ('A' for Active; 'I' for Inactive)
REMARK       I    between atoms: N_2  and  C_1 
REMARK    1  A    between atoms: C_4  and  C_1 
REMARK    2  A    between atoms: C_14  and  N_3 
REMARK    3  A    between atoms: C_5  and  C_6 
REMARK    4  A    between atoms: C_17  and  C_14 
ROOT
ATOM      1  C   UNL d   1     -45.503  12.552  22.907  0.00  0.00     0.265 C 
ATOM      2  N   UNL d   1     -44.862  12.620  22.405  0.00  0.00    -0.269 N 
ATOM      3  N   UNL d   1     -43.569  12.751  21.399  0.00  0.00    -0.300 N 
ATOM      4  O   UNL d   1     -45.499  11.977  23.495  0.00  0.00    -0.267 OA
ATOM      5  C   UNL d   1     -44.854  13.189  21.816  0.00  0.00     0.102 A 
ATOM      6  C   UNL d   1     -44.210  12.107  22.493  0.00  0.00     0.102 A 
ATOM      7  C   UNL d   1     -43.568  12.176  21.989  0.00  0.00     0.100 A 
ATOM      8  C   UNL d   1     -44.203  13.250  21.313  0.00  0.00     0.100 A 
ENDROOT
BRANCH   1   9
ATOM      9  C   UNL d   1     -46.154  13.065  22.819  0.00  0.00     0.057 A 
ATOM     10  C   UNL d   1     -46.139  13.803  23.163  0.00  0.00     0.004 A 
ATOM     11  C   UNL d   1     -46.791  14.316  23.075  0.00  0.00    -0.004 A 
ATOM     12  C   UNL d   1     -47.440  14.077  22.646  0.00  0.00    -0.023 A 
ATOM     13  C   UNL d   1     -47.460  13.332  22.296  0.00  0.00    -0.004 A 
ATOM     14  C   UNL d   1     -46.808  12.819  22.384  0.00  0.00     0.004 A 
BRANCH  12  15
ATOM     15  C   UNL d   1     -48.083  14.583  22.559  0.00  0.00     0.019 C 
ATOM     16  C   UNL d   1     -47.571  15.199  22.364  0.00  0.00     0.004 C 
ATOM     17  C   UNL d   1     -48.729  15.092  22.472  0.00  0.00     0.004 C 
ATOM     18  C   UNL d   1     -48.600  13.960  22.757  0.00  0.00     0.004 C 
ENDBRANCH  12  15
ENDBRANCH   1   9
BRANCH   3  19
ATOM     19  C   UNL d   1     -42.928  12.825  20.891  0.00  0.00     0.080 C 
BRANCH  19  20
ATOM     20  C   UNL d   1     -42.328  13.361  21.052  0.00  0.00     0.018 A 
ATOM     21  C   UNL d   1     -42.388  14.165  20.809  0.00  0.00     0.002 A 
ATOM     22  C   UNL d   1     -41.778  14.689  20.978  0.00  0.00     0.000 A 
ATOM     23  C   UNL d   1     -41.100  14.429  21.390  0.00  0.00     0.000 A 
ATOM     24  C   UNL d   1     -41.044  13.634  21.630  0.00  0.00     0.000 A 
ATOM     25  C   UNL d   1     -41.657  13.103  21.461  0.00  0.00     0.002 A 
ENDBRANCH  19  20
ENDBRANCH   3  19
TORSDOF 4
ENDMDL
