MODEL 1
REMARK VINA RESULT:      37.7      0.000      0.000
REMARK  6 active torsions:
REMARK  status: ('A' for Active; 'I' for Inactive)
REMARK    1  A    between atoms: N_8  and  C_2 
REMARK    2  A    between atoms: N_7  and  C_3 
REMARK    3  A    between atoms: N_10  and  C_6 
REMARK    4  A    between atoms: C_9  and  N_11 
REMARK    5  A    between atoms: N_13  and  C_9 
REMARK    6  A    between atoms: N_11  and  N_10 
ROOT
ATOM      1  N   UNL d   1      45.933 -17.564  43.890  0.00  0.00     0.133 NA
ATOM      2  C   UNL d   1      46.105 -18.272  43.583  0.00  0.00     0.766 A 
ATOM      3  C   UNL d   1      45.985 -16.881  43.450  0.00  0.00     0.766 A 
ATOM      4  N   UNL d   1      46.225 -16.935  42.662  0.00  0.00     0.135 NA
ATOM      5  N   UNL d   1      46.355 -18.329  42.760  0.00  0.00     0.135 NA
ATOM      6  C   UNL d   1      46.412 -17.660  42.309  0.00  0.00     0.798 A 
ENDROOT
BRANCH   2   7
ATOM      7  N   UNL d   1      46.053 -18.955  44.023  0.00  0.00    -0.132 N 
ATOM      8  C   UNL d   1      45.390 -19.067  44.502  0.00  0.00     0.125 A 
ATOM      9  C   UNL d   1      45.321 -19.753  44.955  0.00  0.00     0.142 A 
ATOM     10  O   UNL d   1      45.913 -20.328  44.930  0.00  0.00    -0.300 OA
ATOM     11  C   UNL d   1      46.575 -20.216  44.451  0.00  0.00     0.142 A 
ATOM     12  C   UNL d   1      46.646 -19.530  43.997  0.00  0.00     0.125 A 
ENDBRANCH   2   7
BRANCH   3  13
ATOM     13  N   UNL d   1      45.811 -16.145  43.754  0.00  0.00    -0.132 N 
ATOM     14  C   UNL d   1      46.166 -15.463  43.488  0.00  0.00     0.125 A 
ATOM     15  C   UNL d   1      45.992 -14.728  43.793  0.00  0.00     0.142 A 
ATOM     16  O   UNL d   1      45.432 -14.672  44.396  0.00  0.00    -0.300 OA
ATOM     17  C   UNL d   1      45.047 -15.352  44.695  0.00  0.00     0.142 A 
ATOM     18  C   UNL d   1      45.251 -16.090  44.358  0.00  0.00     0.125 A 
ENDBRANCH   3  13
BRANCH   6  19
ATOM     19  N   UNL d   1      46.646 -17.713  41.538  0.00  0.00     0.050 NA
BRANCH  19  20
ATOM     20  N   UNL d   1      46.574 -18.411  41.128  0.00  0.00    -0.101 NA
BRANCH  20  21
ATOM     21  C   UNL d   1      46.327 -18.416  40.341  0.00  0.00     0.241 C 
ATOM     22  S   UNL d   1      45.946 -17.780  40.015  0.00  0.00    -0.035 SA
BRANCH  21  23
ATOM     23  N   UNL d   1      46.470 -19.078  39.873  0.00  0.00    -0.213 NA
ATOM     24  C   UNL d   1      46.337 -19.837  40.167  0.00  0.00     0.122 C 
ENDBRANCH  21  23
ENDBRANCH  20  21
ENDBRANCH  19  20
ENDBRANCH   6  19
TORSDOF 6
ENDMDL
MODEL 2
REMARK VINA RESULT:      38.5      0.571      3.250
REMARK  6 active torsions:
REMARK  status: ('A' for Active; 'I' for Inactive)
REMARK    1  A    between atoms: N_8  and  C_2 
REMARK    2  A    between atoms: N_7  and  C_3 
REMARK    3  A    between atoms: N_10  and  C_6 
REMARK    4  A    between atoms: C_9  and  N_11 
REMARK    5  A    between atoms: N_13  and  C_9 
REMARK    6  A    between atoms: N_11  and  N_10 
ROOT
ATOM      1  N   UNL d   1      45.944 -17.467  43.840  0.00  0.00     0.133 NA
ATOM      2  C   UNL d   1      45.830 -16.782  43.461  0.00  0.00     0.766 A 
ATOM      3  C   UNL d   1      46.101 -18.159  43.440  0.00  0.00     0.766 A 
ATOM      4  N   UNL d   1      46.142 -18.138  42.617  0.00  0.00     0.135 NA
ATOM      5  N   UNL d   1      45.873 -16.761  42.600  0.00  0.00     0.135 NA
ATOM      6  C   UNL d   1      46.028 -17.440  42.187  0.00  0.00     0.798 A 
ENDROOT
BRANCH   2   7
ATOM      7  N   UNL d   1      45.672 -16.090  43.860  0.00  0.00    -0.132 N 
ATOM      8  C   UNL d   1      46.058 -15.400  43.623  0.00  0.00     0.125 A 
ATOM      9  C   UNL d   1      45.910 -14.690  44.017  0.00  0.00     0.142 A 
ATOM     10  O   UNL d   1      45.378 -14.669  44.647  0.00  0.00    -0.300 OA
ATOM     11  C   UNL d   1      44.993 -15.359  44.884  0.00  0.00     0.142 A 
ATOM     12  C   UNL d   1      45.140 -16.070  44.491  0.00  0.00     0.125 A 
ENDBRANCH   2   7
BRANCH   3  13
ATOM     13  N   UNL d   1      46.220 -18.869  43.819  0.00  0.00    -0.132 N 
ATOM     14  C   UNL d   1      46.521 -18.922  44.575  0.00  0.00     0.125 A 
ATOM     15  C   UNL d   1      46.640 -19.633  44.954  0.00  0.00     0.142 A 
ATOM     16  O   UNL d   1      46.448 -20.329  44.556  0.00  0.00    -0.300 OA
ATOM     17  C   UNL d   1      46.137 -20.315  43.779  0.00  0.00     0.142 A 
ATOM     18  C   UNL d   1      46.028 -19.566  43.422  0.00  0.00     0.125 A 
ENDBRANCH   3  13
BRANCH   6  19
ATOM     19  N   UNL d   1      46.068 -17.420  41.382  0.00  0.00     0.050 NA
BRANCH  19  20
ATOM     20  N   UNL d   1      46.380 -18.043  40.964  0.00  0.00    -0.101 NA
BRANCH  20  21
ATOM     21  C   UNL d   1      45.909 -18.489  40.454  0.00  0.00     0.241 C 
ATOM     22  S   UNL d   1      45.422 -18.135  39.913  0.00  0.00    -0.035 SA
BRANCH  21  23
ATOM     23  N   UNL d   1      45.932 -19.311  40.492  0.00  0.00    -0.213 NA
ATOM     24  C   UNL d   1      46.647 -19.717  40.413  0.00  0.00     0.122 C 
ENDBRANCH  21  23
ENDBRANCH  20  21
ENDBRANCH  19  20
ENDBRANCH   6  19
TORSDOF 6
ENDMDL
