MODEL 1
REMARK VINA RESULT:      34.9      0.000      0.000
REMARK  3 active torsions:
REMARK  status: ('A' for Active; 'I' for Inactive)
REMARK    1  A    between atoms: S_5  and  C_1 
REMARK    2  A    between atoms: N_3  and  C_2 
REMARK    3  A    between atoms: C_4  and  S_5 
ROOT
ATOM      1  C   UNL d   1     -51.844  24.802  33.503  0.00  0.00     0.140 A 
ATOM      2  C   UNL d   1     -52.395  24.359  33.877  0.00  0.00     0.188 A 
ATOM      3  N   UNL d   1     -51.115  24.504  33.306  0.00  0.00    -0.216 NA
ATOM      4  C   UNL d   1     -52.217  23.563  34.074  0.00  0.00     0.209 A 
ATOM      5  N   UNL d   1     -51.500  23.265  33.882  0.00  0.00    -0.202 NA
ATOM      6  C   UNL d   1     -50.937  23.708  33.503  0.00  0.00     0.201 A 
ATOM      7  N   UNL d   1     -52.635  23.192  34.370  0.00  0.00    -0.125 N 
ENDROOT
BRANCH   1   8
ATOM      8  S   UNL d   1     -52.021  25.598  33.307  0.00  0.00    -0.028 SA
BRANCH   8   9
ATOM      9  C   UNL d   1     -51.419  26.199  33.388  0.00  0.00     0.196 A 
ATOM     10  N   UNL d   1     -50.627  25.982  33.454  0.00  0.00    -0.221 NA
ATOM     11  C   UNL d   1     -50.075  26.601  33.531  0.00  0.00     0.085 A 
ATOM     12  C   UNL d   1     -49.243  26.355  33.599  0.00  0.00     0.021 C 
ATOM     13  C   UNL d   1     -50.287  27.379  33.544  0.00  0.00     0.038 A 
ATOM     14  C   UNL d   1     -51.063  27.588  33.480  0.00  0.00     0.085 A 
ATOM     15  N   UNL d   1     -51.662  26.975  33.398  0.00  0.00    -0.221 NA
ATOM     16  C   UNL d   1     -51.279  28.385  33.494  0.00  0.00     0.021 C 
ENDBRANCH   8   9
ENDBRANCH   1   8
BRANCH   2  17
ATOM     17  N   UNL d   1     -53.123  24.657  34.074  0.00  0.00    -0.108 N 
ATOM     18  O   UNL d   1     -53.485  24.591  34.841  0.00  0.00    -0.532 OA
ATOM     19  O   UNL d   1     -53.617  25.071  33.541  0.00  0.00    -0.532 OA
ENDBRANCH   2  17
TORSDOF 3
ENDMDL
MODEL 2
REMARK VINA RESULT:      35.4      1.226      2.026
REMARK  3 active torsions:
REMARK  status: ('A' for Active; 'I' for Inactive)
REMARK    1  A    between atoms: S_5  and  C_1 
REMARK    2  A    between atoms: N_3  and  C_2 
REMARK    3  A    between atoms: C_4  and  S_5 
ROOT
ATOM      1  C   UNL d   1     -51.635  25.504  33.320  0.00  0.00     0.140 A 
ATOM      2  C   UNL d   1     -51.977  24.781  33.321  0.00  0.00     0.188 A 
ATOM      3  N   UNL d   1     -52.074  26.187  33.315  0.00  0.00    -0.216 NA
ATOM      4  C   UNL d   1     -52.814  24.724  33.316  0.00  0.00     0.209 A 
ATOM      5  N   UNL d   1     -53.251  25.393  33.311  0.00  0.00    -0.202 NA
ATOM      6  C   UNL d   1     -52.911  26.129  33.311  0.00  0.00     0.201 A 
ATOM      7  N   UNL d   1     -53.110  24.164  33.317  0.00  0.00    -0.125 N 
ENDROOT
BRANCH   1   8
ATOM      8  S   UNL d   1     -50.798  25.562  33.324  0.00  0.00    -0.028 SA
BRANCH   8   9
ATOM      9  C   UNL d   1     -50.427  26.325  33.426  0.00  0.00     0.196 A 
ATOM     10  N   UNL d   1     -50.865  27.014  33.317  0.00  0.00    -0.221 NA
ATOM     11  C   UNL d   1     -50.462  27.734  33.427  0.00  0.00     0.085 A 
ATOM     12  C   UNL d   1     -50.939  28.453  33.309  0.00  0.00     0.021 C 
ATOM     13  C   UNL d   1     -49.682  27.775  33.629  0.00  0.00     0.038 A 
ATOM     14  C   UNL d   1     -49.256  27.099  33.735  0.00  0.00     0.085 A 
ATOM     15  N   UNL d   1     -49.639  26.335  33.630  0.00  0.00    -0.221 NA
ATOM     16  C   UNL d   1     -48.457  27.141  33.942  0.00  0.00     0.021 C 
ENDBRANCH   8   9
ENDBRANCH   1   8
BRANCH   2  17
ATOM     17  N   UNL d   1     -51.538  24.099  33.326  0.00  0.00    -0.108 N 
ATOM     18  O   UNL d   1     -50.688  24.067  33.329  0.00  0.00    -0.532 OA
ATOM     19  O   UNL d   1     -51.871  23.331  33.328  0.00  0.00    -0.532 OA
ENDBRANCH   2  17
TORSDOF 3
ENDMDL
