MODEL 1
REMARK VINA RESULT:      -3.4      0.000      0.000
REMARK  4 active torsions:
REMARK  status: ('A' for Active; 'I' for Inactive)
REMARK    1  A    between atoms: S_9  and  C_3 
REMARK    2  A    between atoms: C_12  and  S_9 
REMARK    3  A    between atoms: C_11  and  C_12 
REMARK    4  A    between atoms: O_16  and  C_11 
ROOT
ATOM      1  C   UNL d   1      57.236   0.678  33.780  0.00  0.00     0.155 A 
ATOM      2  C   UNL d   1      56.629   0.675  33.216  0.00  0.00     0.107 A 
ATOM      3  C   UNL d   1      57.605   0.674  32.175  0.00  0.00     0.182 A 
ATOM      4  N   UNL d   1      58.207   0.677  32.731  0.00  0.00    -0.250 N 
ATOM      5  N   UNL d   1      56.815   0.673  32.407  0.00  0.00    -0.220 NA
ATOM      6  C   UNL d   1      58.020   0.679  33.539  0.00  0.00     0.285 A 
ATOM      7  N   UNL d   1      56.890   0.679  34.528  0.00  0.00    -0.239 NA
ATOM      8  C   UNL d   1      55.908   0.675  33.610  0.00  0.00     0.037 A 
ATOM      9  C   UNL d   1      56.067   0.678  34.429  0.00  0.00     0.083 A 
ATOM     10  O   UNL d   1      58.634   0.681  34.098  0.00  0.00    -0.265 OA
ATOM     11  C   UNL d   1      58.998   0.678  32.486  0.00  0.00     0.104 C 
ATOM     12  C   UNL d   1      55.129   0.673  33.345  0.00  0.00     0.003 A 
ATOM     13  C   UNL d   1      55.444   0.678  34.973  0.00  0.00     0.019 A 
ATOM     14  C   UNL d   1      54.506   0.673  33.889  0.00  0.00     0.000 A 
ATOM     15  C   UNL d   1      54.665   0.676  34.698  0.00  0.00     0.002 A 
ENDROOT
BRANCH   3  16
ATOM     16  S   UNL d   1      57.793   0.672  31.371  0.00  0.00    -0.044 SA
BRANCH  16  17
ATOM     17  C   UNL d   1      57.569   0.039  30.892  0.00  0.00     0.095 C 
ATOM     18  C   UNL d   1      57.329  -0.670  31.233  0.00  0.00     0.013 C 
BRANCH  17  19
ATOM     19  C   UNL d   1      57.590   0.124  30.072  0.00  0.00     0.302 C 
ATOM     20  O   UNL d   1      57.087   0.640  29.701  0.00  0.00    -0.259 OA
BRANCH  19  21
ATOM     21  O   UNL d   1      58.126  -0.320  29.621  0.00  0.00    -0.295 OA
ATOM     22  C   UNL d   1      58.254  -0.132  28.823  0.00  0.00     0.185 C 
ENDBRANCH  19  21
ENDBRANCH  17  19
ENDBRANCH  16  17
ENDBRANCH   3  16
TORSDOF 4
ENDMDL
MODEL 2
REMARK VINA RESULT:      -3.0      2.468      3.812
REMARK  4 active torsions:
REMARK  status: ('A' for Active; 'I' for Inactive)
REMARK    1  A    between atoms: S_9  and  C_3 
REMARK    2  A    between atoms: C_12  and  S_9 
REMARK    3  A    between atoms: C_11  and  C_12 
REMARK    4  A    between atoms: O_16  and  C_11 
ROOT
ATOM      1  C   UNL d   1      58.477  -0.003  30.250  0.00  0.00     0.155 A 
ATOM      2  C   UNL d   1      58.026  -0.682  30.399  0.00  0.00     0.107 A 
ATOM      3  C   UNL d   1      58.670  -1.341  29.310  0.00  0.00     0.182 A 
ATOM      4  N   UNL d   1      59.117  -0.671  29.160  0.00  0.00    -0.250 N 
ATOM      5  N   UNL d   1      58.124  -1.356  29.925  0.00  0.00    -0.220 NA
ATOM      6  C   UNL d   1      59.019   0.003  29.635  0.00  0.00     0.285 A 
ATOM      7  N   UNL d   1      58.265   0.572  30.802  0.00  0.00    -0.239 NA
ATOM      8  C   UNL d   1      57.535  -0.532  31.041  0.00  0.00     0.037 A 
ATOM      9  C   UNL d   1      57.681   0.249  31.295  0.00  0.00     0.083 A 
ATOM     10  O   UNL d   1      59.475   0.679  29.479  0.00  0.00    -0.265 OA
ATOM     11  C   UNL d   1      59.664  -0.666  28.538  0.00  0.00     0.104 C 
ATOM     12  C   UNL d   1      56.976  -0.991  31.432  0.00  0.00     0.003 A 
ATOM     13  C   UNL d   1      57.265   0.562  31.938  0.00  0.00     0.019 A 
ATOM     14  C   UNL d   1      56.560  -0.678  32.075  0.00  0.00     0.000 A 
ATOM     15  C   UNL d   1      56.705   0.094  32.324  0.00  0.00     0.002 A 
ENDROOT
BRANCH   3  16
ATOM     16  S   UNL d   1      58.769  -2.011  28.836  0.00  0.00    -0.044 SA
BRANCH  16  17
ATOM     17  C   UNL d   1      59.195  -2.659  29.116  0.00  0.00     0.095 C 
ATOM     18  C   UNL d   1      59.716  -2.569  29.746  0.00  0.00     0.013 C 
BRANCH  17  19
ATOM     19  C   UNL d   1      59.094  -3.395  28.758  0.00  0.00     0.302 C 
ATOM     20  O   UNL d   1      59.733  -3.874  28.617  0.00  0.00    -0.259 OA
BRANCH  19  21
ATOM     21  O   UNL d   1      58.336  -3.650  28.539  0.00  0.00    -0.295 OA
ATOM     22  C   UNL d   1      58.173  -4.461  28.474  0.00  0.00     0.185 C 
ENDBRANCH  19  21
ENDBRANCH  17  19
ENDBRANCH  16  17
ENDBRANCH   3  16
TORSDOF 4
ENDMDL
MODEL 3
REMARK VINA RESULT:      -2.5      1.521      4.054
REMARK  4 active torsions:
REMARK  status: ('A' for Active; 'I' for Inactive)
REMARK    1  A    between atoms: S_9  and  C_3 
REMARK    2  A    between atoms: C_12  and  S_9 
REMARK    3  A    between atoms: C_11  and  C_12 
REMARK    4  A    between atoms: O_16  and  C_11 
ROOT
ATOM      1  C   UNL d   1      58.764   0.682  31.275  0.00  0.00     0.155 A 
ATOM      2  C   UNL d   1      58.023   0.682  30.904  0.00  0.00     0.107 A 
ATOM      3  C   UNL d   1      57.391   0.682  32.183  0.00  0.00     0.182 A 
ATOM      4  N   UNL d   1      58.122   0.682  32.552  0.00  0.00    -0.250 N 
ATOM      5  N   UNL d   1      57.332   0.681  31.362  0.00  0.00    -0.220 NA
ATOM      6  C   UNL d   1      58.814   0.682  32.093  0.00  0.00     0.285 A 
ATOM      7  N   UNL d   1      59.344   0.682  30.689  0.00  0.00    -0.239 NA
ATOM      8  C   UNL d   1      58.140   0.681  30.091  0.00  0.00     0.037 A 
ATOM      9  C   UNL d   1      58.963   0.682  29.953  0.00  0.00     0.083 A 
ATOM     10  O   UNL d   1      59.553   0.682  32.473  0.00  0.00    -0.265 OA
ATOM     11  C   UNL d   1      58.170   0.682  33.379  0.00  0.00     0.104 C 
ATOM     12  C   UNL d   1      57.619   0.681  29.454  0.00  0.00     0.003 A 
ATOM     13  C   UNL d   1      59.254   0.682  29.178  0.00  0.00     0.019 A 
ATOM     14  C   UNL d   1      57.910   0.681  28.680  0.00  0.00     0.000 A 
ATOM     15  C   UNL d   1      58.724   0.681  28.546  0.00  0.00     0.002 A 
ENDROOT
BRANCH   3  16
ATOM     16  S   UNL d   1      56.703   0.681  32.641  0.00  0.00    -0.044 SA
BRANCH  16  17
ATOM     17  C   UNL d   1      56.210   0.021  32.651  0.00  0.00     0.095 C 
ATOM     18  C   UNL d   1      56.303  -0.573  32.089  0.00  0.00     0.013 C 
BRANCH  17  19
ATOM     19  C   UNL d   1      55.624  -0.038  33.229  0.00  0.00     0.302 C 
ATOM     20  O   UNL d   1      55.581  -0.693  33.704  0.00  0.00    -0.259 OA
BRANCH  19  21
ATOM     21  O   UNL d   1      55.074   0.574  33.327  0.00  0.00    -0.295 OA
ATOM     22  C   UNL d   1      54.440   0.484  33.855  0.00  0.00     0.185 C 
ENDBRANCH  19  21
ENDBRANCH  17  19
ENDBRANCH  16  17
ENDBRANCH   3  16
TORSDOF 4
ENDMDL
MODEL 4
REMARK VINA RESULT:      -1.6      1.159      1.648
REMARK  4 active torsions:
REMARK  status: ('A' for Active; 'I' for Inactive)
REMARK    1  A    between atoms: S_9  and  C_3 
REMARK    2  A    between atoms: C_12  and  S_9 
REMARK    3  A    between atoms: C_11  and  C_12 
REMARK    4  A    between atoms: O_16  and  C_11 
ROOT
ATOM      1  C   UNL d   1      58.294   0.662  32.591  0.00  0.00     0.155 A 
ATOM      2  C   UNL d   1      57.706   0.653  32.007  0.00  0.00     0.107 A 
ATOM      3  C   UNL d   1      58.715   0.662  30.999  0.00  0.00     0.182 A 
ATOM      4  N   UNL d   1      59.299   0.671  31.574  0.00  0.00    -0.250 N 
ATOM      5  N   UNL d   1      57.919   0.653  31.205  0.00  0.00    -0.220 NA
ATOM      6  C   UNL d   1      59.085   0.671  32.377  0.00  0.00     0.285 A 
ATOM      7  N   UNL d   1      57.923   0.661  33.327  0.00  0.00    -0.239 NA
ATOM      8  C   UNL d   1      56.972   0.646  32.377  0.00  0.00     0.037 A 
ATOM      9  C   UNL d   1      57.104   0.650  33.201  0.00  0.00     0.083 A 
ATOM     10  O   UNL d   1      59.680   0.680  32.956  0.00  0.00    -0.265 OA
ATOM     11  C   UNL d   1      60.098   0.680  31.356  0.00  0.00     0.104 C 
ATOM     12  C   UNL d   1      56.203   0.635  32.086  0.00  0.00     0.003 A 
ATOM     13  C   UNL d   1      56.463   0.644  33.724  0.00  0.00     0.019 A 
ATOM     14  C   UNL d   1      55.562   0.630  32.609  0.00  0.00     0.000 A 
ATOM     15  C   UNL d   1      55.694   0.634  33.423  0.00  0.00     0.002 A 
ENDROOT
BRANCH   3  16
ATOM     16  S   UNL d   1      58.930   0.661  30.201  0.00  0.00    -0.044 SA
BRANCH  16  17
ATOM     17  C   UNL d   1      58.403   0.388  29.629  0.00  0.00     0.095 C 
ATOM     18  C   UNL d   1      57.622   0.647  29.630  0.00  0.00     0.013 C 
BRANCH  17  19
ATOM     19  C   UNL d   1      58.667  -0.144  29.057  0.00  0.00     0.302 C 
ATOM     20  O   UNL d   1      59.233   0.076  28.520  0.00  0.00    -0.259 OA
BRANCH  19  21
ATOM     21  O   UNL d   1      58.354  -0.912  29.028  0.00  0.00    -0.295 OA
ATOM     22  C   UNL d   1      58.702  -1.485  28.539  0.00  0.00     0.185 C 
ENDBRANCH  19  21
ENDBRANCH  17  19
ENDBRANCH  16  17
ENDBRANCH   3  16
TORSDOF 4
ENDMDL
