MODEL 1
REMARK VINA RESULT:     116.4      0.000      0.000
REMARK  4 active torsions:
REMARK  status: ('A' for Active; 'I' for Inactive)
REMARK    1  A    between atoms: N_10  and  C_5 
REMARK    2  A    between atoms: C_12  and  N_6 
REMARK    3  A    between atoms: C_19  and  N_11 
REMARK    4  A    between atoms: C_20  and  C_12 
ROOT
ATOM      1  C   UNL d   1     -55.025-101.859 -44.291  0.00  0.00     0.191 A 
ATOM      2  C   UNL d   1     -55.107-101.067 -44.049  0.00  0.00     0.173 A 
ATOM      3  N   UNL d   1     -55.098-102.324 -43.611  0.00  0.00    -0.042 NA
ATOM      4  N   UNL d   1     -54.893-102.041 -45.113  0.00  0.00    -0.240 N 
ATOM      5  C   UNL d   1     -55.227-101.814 -42.936  0.00  0.00     0.722 A 
ATOM      6  N   UNL d   1     -55.226-101.059 -43.249  0.00  0.00    -0.133 N 
ATOM      7  N   UNL d   1     -54.930-100.676 -45.409  0.00  0.00    -0.223 N 
ATOM      8  C   UNL d   1     -54.844-101.472 -45.672  0.00  0.00     0.343 A 
ATOM      9  C   UNL d   1     -55.057-100.485 -44.623  0.00  0.00     0.288 A 
ATOM     10  O   UNL d   1     -54.714-101.651 -46.478  0.00  0.00    -0.245 OA
ATOM     11  O   UNL d   1     -55.137 -99.690 -44.399  0.00  0.00    -0.265 OA
ATOM     12  C   UNL d   1     -54.813-102.818 -45.340  0.00  0.00     0.105 C 
ATOM     13  C   UNL d   1     -54.886-100.037 -45.962  0.00  0.00     0.107 C 
ENDROOT
BRANCH   5  14
ATOM     14  N   UNL d   1     -55.336-102.008 -42.121  0.00  0.00    -0.136 N 
ATOM     15  C   UNL d   1     -54.719-101.845 -41.578  0.00  0.00     0.117 A 
ATOM     16  C   UNL d   1     -54.826-102.038 -40.768  0.00  0.00     0.100 A 
ATOM     17  N   UNL d   1     -55.545-102.390 -40.506  0.00  0.00    -0.301 N 
ATOM     18  C   UNL d   1     -56.153-102.547 -41.063  0.00  0.00     0.100 A 
ATOM     19  C   UNL d   1     -56.055-102.358 -41.871  0.00  0.00     0.117 A 
BRANCH  17  20
ATOM     20  C   UNL d   1     -55.577-102.552 -39.692  0.00  0.00     0.064 A 
ATOM     21  C   UNL d   1     -54.877-102.617 -39.252  0.00  0.00     0.018 A 
ATOM     22  C   UNL d   1     -54.918-102.777 -38.444  0.00  0.00     0.002 A 
ATOM     23  C   UNL d   1     -55.655-102.873 -38.073  0.00  0.00     0.000 A 
ATOM     24  C   UNL d   1     -56.359-102.808 -38.515  0.00  0.00     0.002 A 
ATOM     25  C   UNL d   1     -56.319-102.647 -39.323  0.00  0.00     0.018 A 
ENDBRANCH  17  20
ENDBRANCH   5  14
BRANCH   6  26
ATOM     26  C   UNL d   1     -55.307-100.295 -43.001  0.00  0.00     0.098 C 
BRANCH  26  27
ATOM     27  C   UNL d   1     -55.998 -99.907 -43.126  0.00  0.00     0.018 A 
ATOM     28  C   UNL d   1     -56.591-100.276 -43.489  0.00  0.00     0.002 A 
ATOM     29  C   UNL d   1     -57.284 -99.894 -43.616  0.00  0.00     0.000 A 
ATOM     30  C   UNL d   1     -57.992-100.091 -43.961  0.00  0.00     0.000 C 
ATOM     31  C   UNL d   1     -57.379 -99.133 -43.376  0.00  0.00     0.000 A 
ATOM     32  C   UNL d   1     -56.760 -98.761 -43.002  0.00  0.00     0.000 A 
ATOM     33  C   UNL d   1     -56.080 -99.143 -42.879  0.00  0.00     0.002 A 
ENDBRANCH  26  27
ENDBRANCH   6  26
TORSDOF 4
ENDMDL
