MODEL 1
REMARK VINA RESULT:       4.1      0.000      0.000
REMARK  2 active torsions:
REMARK  status: ('A' for Active; 'I' for Inactive)
REMARK    1  A    between atoms: C_5  and  CA_2 
REMARK    2  A    between atoms: C_4  and  CA_3 
ROOT
ATOM      1  N   UNL d   1     -52.148  25.124  33.376  0.00  0.00    -0.233 NA
ATOM      2  CA  UNL d   1     -52.280  24.310  33.383  0.00  0.00     0.146 A 
ATOM      3  CA  UNL d   1     -51.385  25.422  33.338  0.00  0.00     0.146 A 
ATOM      4  C   UNL d   1     -50.737  24.900  33.307  0.00  0.00     0.025 A 
ATOM      5  C   UNL d   1     -51.633  23.788  33.352  0.00  0.00     0.025 A 
ATOM      6  C   UNL d   1     -50.859  24.084  33.314  0.00  0.00     0.004 A 
ENDROOT
BRANCH   2   7
ATOM      7  C   UNL d   1     -53.046  24.008  33.422  0.00  0.00     0.229 C 
ATOM      8  O   UNL d   1     -53.173  23.211  33.581  0.00  0.00    -0.643 OA
ATOM      9  OXT UNL d   1     -53.714  24.478  33.306  0.00  0.00    -0.643 OA
ENDBRANCH   2   7
BRANCH   3  10
ATOM     10  C   UNL d   1     -51.256  26.233  33.330  0.00  0.00     0.229 C 
ATOM     11  O   UNL d   1     -51.871  26.774  33.340  0.00  0.00    -0.643 OA
ATOM     12  OXT UNL d   1     -50.481  26.552  33.311  0.00  0.00    -0.643 OA
ENDBRANCH   3  10
TORSDOF 2
ENDMDL
MODEL 2
REMARK VINA RESULT:       5.4      0.547      2.618
REMARK  2 active torsions:
REMARK  status: ('A' for Active; 'I' for Inactive)
REMARK    1  A    between atoms: C_5  and  CA_2 
REMARK    2  A    between atoms: C_4  and  CA_3 
ROOT
ATOM      1  N   UNL d   1     -52.573  24.841  33.424  0.00  0.00    -0.233 NA
ATOM      2  CA  UNL d   1     -51.762  24.982  33.370  0.00  0.00     0.146 A 
ATOM      3  CA  UNL d   1     -52.865  24.074  33.421  0.00  0.00     0.146 A 
ATOM      4  C   UNL d   1     -52.339  23.432  33.361  0.00  0.00     0.025 A 
ATOM      5  C   UNL d   1     -51.236  24.340  33.310  0.00  0.00     0.025 A 
ATOM      6  C   UNL d   1     -51.526  23.563  33.306  0.00  0.00     0.004 A 
ENDROOT
BRANCH   2   7
ATOM      7  C   UNL d   1     -51.467  25.752  33.373  0.00  0.00     0.229 C 
ATOM      8  O   UNL d   1     -50.656  25.887  33.376  0.00  0.00    -0.643 OA
ATOM      9  OXT UNL d   1     -51.958  26.415  33.373  0.00  0.00    -0.643 OA
ENDBRANCH   2   7
BRANCH   3  10
ATOM     10  C   UNL d   1     -53.672  23.937  33.475  0.00  0.00     0.229 C 
ATOM     11  O   UNL d   1     -54.226  24.517  33.308  0.00  0.00    -0.643 OA
ATOM     12  OXT UNL d   1     -53.974  23.190  33.708  0.00  0.00    -0.643 OA
ENDBRANCH   3  10
TORSDOF 2
ENDMDL
MODEL 3
REMARK VINA RESULT:       7.0      1.043      3.009
REMARK  2 active torsions:
REMARK  status: ('A' for Active; 'I' for Inactive)
REMARK    1  A    between atoms: C_5  and  CA_2 
REMARK    2  A    between atoms: C_4  and  CA_3 
ROOT
ATOM      1  N   UNL d   1     -50.920  24.957  33.369  0.00  0.00    -0.233 NA
ATOM      2  CA  UNL d   1     -50.966  25.780  33.381  0.00  0.00     0.146 A 
ATOM      3  CA  UNL d   1     -51.602  24.501  33.333  0.00  0.00     0.146 A 
ATOM      4  C   UNL d   1     -52.346  24.872  33.308  0.00  0.00     0.025 A 
ATOM      5  C   UNL d   1     -51.711  26.151  33.356  0.00  0.00     0.025 A 
ATOM      6  C   UNL d   1     -52.403  25.695  33.319  0.00  0.00     0.004 A 
ENDROOT
BRANCH   2   7
ATOM      7  C   UNL d   1     -50.283  26.239  33.417  0.00  0.00     0.229 C 
ATOM      8  O   UNL d   1     -50.331  27.049  33.557  0.00  0.00    -0.643 OA
ATOM      9  OXT UNL d   1     -49.528  25.921  33.318  0.00  0.00    -0.643 OA
ENDBRANCH   2   7
BRANCH   3  10
ATOM     10  C   UNL d   1     -51.553  23.682  33.321  0.00  0.00     0.229 C 
ATOM     11  O   UNL d   1     -50.835  23.286  33.323  0.00  0.00    -0.643 OA
ATOM     12  OXT UNL d   1     -52.241  23.203  33.306  0.00  0.00    -0.643 OA
ENDBRANCH   3  10
TORSDOF 2
ENDMDL
