MODEL 1
REMARK VINA RESULT:      -4.7      0.000      0.000
REMARK  4 active torsions:
REMARK  status: ('A' for Active; 'I' for Inactive)
REMARK    1  A    between atoms: C_2  and  N_1 
REMARK       I    between atoms: C_3  and  N_1 
REMARK    2  A    between atoms: C_6  and  C_3 
REMARK    3  A    between atoms: O_7  and  C_6 
REMARK    4  A    between atoms: C_9  and  O_7 
ROOT
ATOM      1  C   UNL d   1      57.352   0.227  31.399  0.00  0.00     0.158 C 
ATOM      2  C   UNL d   1      57.719   0.516  32.068  0.00  0.00     0.032 C 
ENDROOT
BRANCH   1   3
ATOM      3  C   UNL d   1      57.731   0.270  30.669  0.00  0.00     0.304 C 
ATOM      4  N   UNL d   1      58.456  -0.094  30.557  0.00  0.00    -0.181 NA
ATOM      5  O   UNL d   1      57.377   0.682  30.048  0.00  0.00    -0.263 OA
BRANCH   4   6
ATOM      6  C   UNL d   1      58.835  -0.052  29.827  0.00  0.00     0.197 A 
ATOM      7  N   UNL d   1      59.214   0.617  29.516  0.00  0.00    -0.219 NA
ATOM      8  C   UNL d   1      59.517   0.418  28.777  0.00  0.00     0.108 A 
ATOM      9  C   UNL d   1      59.326  -0.380  28.627  0.00  0.00     0.059 A 
ATOM     10  S   UNL d   1      58.906  -0.665  29.276  0.00  0.00    -0.046 SA
ENDBRANCH   4   6
ENDBRANCH   1   3
BRANCH   1  11
ATOM     11  O   UNL d   1      56.601  -0.109  31.458  0.00  0.00    -0.302 OA
BRANCH  11  12
ATOM     12  C   UNL d   1      56.248  -0.209  32.196  0.00  0.00     0.100 A 
ATOM     13  C   UNL d   1      56.258  -0.953  32.565  0.00  0.00     0.025 A 
ATOM     14  C   UNL d   1      55.903  -1.046  33.306  0.00  0.00     0.002 A 
ATOM     15  C   UNL d   1      55.539  -0.408  33.681  0.00  0.00     0.000 A 
ATOM     16  C   UNL d   1      55.527   0.331  33.318  0.00  0.00     0.002 A 
ATOM     17  C   UNL d   1      55.881   0.436  32.574  0.00  0.00     0.025 A 
ENDBRANCH  11  12
ENDBRANCH   1  11
TORSDOF 4
ENDMDL
MODEL 2
REMARK VINA RESULT:      -4.6      1.215      1.834
REMARK  4 active torsions:
REMARK  status: ('A' for Active; 'I' for Inactive)
REMARK    1  A    between atoms: C_2  and  N_1 
REMARK       I    between atoms: C_3  and  N_1 
REMARK    2  A    between atoms: C_6  and  C_3 
REMARK    3  A    between atoms: O_7  and  C_6 
REMARK    4  A    between atoms: C_9  and  O_7 
ROOT
ATOM      1  C   UNL d   1      56.251  -0.354  32.426  0.00  0.00     0.158 C 
ATOM      2  C   UNL d   1      55.980  -1.022  32.808  0.00  0.00     0.032 C 
ENDROOT
BRANCH   1   3
ATOM      3  C   UNL d   1      56.798  -0.421  31.814  0.00  0.00     0.304 C 
ATOM      4  N   UNL d   1      57.132   0.248  31.482  0.00  0.00    -0.181 NA
ATOM      5  O   UNL d   1      57.010  -1.168  31.535  0.00  0.00    -0.263 OA
BRANCH   4   6
ATOM      6  C   UNL d   1      57.679   0.182  30.870  0.00  0.00     0.197 A 
ATOM      7  N   UNL d   1      57.562  -0.225  30.157  0.00  0.00    -0.219 NA
ATOM      8  C   UNL d   1      58.246  -0.151  29.706  0.00  0.00     0.108 A 
ATOM      9  C   UNL d   1      58.794   0.304  30.141  0.00  0.00     0.059 A 
ATOM     10  S   UNL d   1      58.440   0.507  30.857  0.00  0.00    -0.046 SA
ENDBRANCH   4   6
ENDBRANCH   1   3
BRANCH   1  11
ATOM     11  O   UNL d   1      55.973   0.389  32.656  0.00  0.00    -0.302 OA
BRANCH  11  12
ATOM     12  C   UNL d   1      55.607   0.486  33.386  0.00  0.00     0.100 A 
ATOM     13  C   UNL d   1      56.065   0.553  34.076  0.00  0.00     0.025 A 
ATOM     14  C   UNL d   1      55.690   0.650  34.807  0.00  0.00     0.002 A 
ATOM     15  C   UNL d   1      54.867   0.682  34.857  0.00  0.00     0.000 A 
ATOM     16  C   UNL d   1      54.410   0.616  34.175  0.00  0.00     0.002 A 
ATOM     17  C   UNL d   1      54.776   0.518  33.436  0.00  0.00     0.025 A 
ENDBRANCH  11  12
ENDBRANCH   1  11
TORSDOF 4
ENDMDL
MODEL 3
REMARK VINA RESULT:      -3.8      1.462      4.224
REMARK  4 active torsions:
REMARK  status: ('A' for Active; 'I' for Inactive)
REMARK    1  A    between atoms: C_2  and  N_1 
REMARK       I    between atoms: C_3  and  N_1 
REMARK    2  A    between atoms: C_6  and  C_3 
REMARK    3  A    between atoms: O_7  and  C_6 
REMARK    4  A    between atoms: C_9  and  O_7 
ROOT
ATOM      1  C   UNL d   1      57.939   0.298  30.658  0.00  0.00     0.158 C 
ATOM      2  C   UNL d   1      58.654   0.590  30.923  0.00  0.00     0.032 C 
ENDROOT
BRANCH   1   3
ATOM      3  C   UNL d   1      57.291   0.270  31.166  0.00  0.00     0.304 C 
ATOM      4  N   UNL d   1      57.327  -0.165  31.859  0.00  0.00    -0.181 NA
ATOM      5  O   UNL d   1      56.603   0.682  30.974  0.00  0.00    -0.263 OA
BRANCH   4   6
ATOM      6  C   UNL d   1      56.680  -0.193  32.367  0.00  0.00     0.197 A 
ATOM      7  N   UNL d   1      56.398   0.435  32.829  0.00  0.00    -0.219 NA
ATOM      8  C   UNL d   1      55.745   0.167  33.252  0.00  0.00     0.108 A 
ATOM      9  C   UNL d   1      55.619  -0.633  33.053  0.00  0.00     0.059 A 
ATOM     10  S   UNL d   1      56.197  -0.851  32.509  0.00  0.00    -0.046 SA
ENDBRANCH   4   6
ENDBRANCH   1   3
BRANCH   1  11
ATOM     11  O   UNL d   1      57.869   0.032  29.880  0.00  0.00    -0.302 OA
BRANCH  11  12
ATOM     12  C   UNL d   1      58.543  -0.127  29.435  0.00  0.00     0.100 A 
ATOM     13  C   UNL d   1      58.901   0.477  28.991  0.00  0.00     0.025 A 
ATOM     14  C   UNL d   1      59.578   0.311  28.546  0.00  0.00     0.002 A 
ATOM     15  C   UNL d   1      59.900  -0.449  28.539  0.00  0.00     0.000 A 
ATOM     16  C   UNL d   1      59.548  -1.051  28.977  0.00  0.00     0.002 A 
ATOM     17  C   UNL d   1      58.868  -0.894  29.428  0.00  0.00     0.025 A 
ENDBRANCH  11  12
ENDBRANCH   1  11
TORSDOF 4
ENDMDL
