MODEL 1
REMARK VINA RESULT:      -7.7      0.000      0.000
REMARK  4 active torsions:
REMARK  status: ('A' for Active; 'I' for Inactive)
REMARK    1  A    between atoms: C_20  and  C_4 
REMARK    2  A    between atoms: C_8  and  C_9 
REMARK       I    between atoms: C_9  and  N_18 
REMARK    3  A    between atoms: N_18  and  C_21 
REMARK    4  A    between atoms: C_21  and  C_20 
ROOT
ATOM      1  N   UNL d   1     -49.477  12.405  23.237  0.00  0.00    -0.208 NA
ATOM      2  C   UNL d   1     -49.316  13.213  23.098  0.00  0.00     0.085 A 
ATOM      3  C   UNL d   1     -48.854  11.879  23.374  0.00  0.00     0.279 A 
ATOM      4  C   UNL d   1     -48.068  12.157  23.373  0.00  0.00     0.059 A 
ATOM      5  C   UNL d   1     -47.914  12.958  23.235  0.00  0.00     0.006 A 
ATOM      6  C   UNL d   1     -48.536  13.480  23.099  0.00  0.00     0.018 A 
ATOM      7  C   UNL d   1     -49.946  13.731  22.961  0.00  0.00     0.018 A 
ATOM      8  O   UNL d   1     -49.010  11.083  23.511  0.00  0.00    -0.265 OA
ATOM      9  C   UNL d   1     -49.791  14.528  22.824  0.00  0.00     0.002 A 
ATOM     10  C   UNL d   1     -48.383  14.284  22.960  0.00  0.00     0.002 A 
ATOM     11  C   UNL d   1     -49.004  14.806  22.823  0.00  0.00     0.000 A 
ATOM     12  C   UNL d   1     -50.721  13.449  22.963  0.00  0.00     0.002 C 
ATOM     13  C   UNL d   1     -50.412  15.050  22.687  0.00  0.00     0.000 C 
ENDROOT
BRANCH   4  14
ATOM     14  C   UNL d   1     -47.454  11.633  23.510  0.00  0.00     0.026 C 
BRANCH  14  15
ATOM     15  C   UNL d   1     -46.678  11.845  23.357  0.00  0.00     0.102 C 
BRANCH  15  16
ATOM     16  N   UNL d   1     -46.062  11.301  23.438  0.00  0.00    -0.206 NA
ATOM     17  C   UNL d   1     -45.287  11.515  23.248  0.00  0.00     0.285 C 
ATOM     18  O   UNL d   1     -45.122  12.272  22.975  0.00  0.00    -0.265 OA
BRANCH  17  19
ATOM     19  C   UNL d   1     -44.676  10.964  23.333  0.00  0.00     0.087 A 
ATOM     20  S   UNL d   1     -44.737  10.233  23.692  0.00  0.00    -0.082 SA
ATOM     21  C   UNL d   1     -44.016   9.863  23.661  0.00  0.00     0.036 A 
ATOM     22  C   UNL d   1     -43.488  10.372  23.272  0.00  0.00     0.008 A 
ATOM     23  C   UNL d   1     -43.899  11.056  23.069  0.00  0.00     0.012 A 
ENDBRANCH  17  19
ENDBRANCH  15  16
ENDBRANCH  14  15
ENDBRANCH   4  14
TORSDOF 4
ENDMDL
MODEL 2
REMARK VINA RESULT:      -7.6      1.066      1.607
REMARK  4 active torsions:
REMARK  status: ('A' for Active; 'I' for Inactive)
REMARK    1  A    between atoms: C_20  and  C_4 
REMARK    2  A    between atoms: C_8  and  C_9 
REMARK       I    between atoms: C_9  and  N_18 
REMARK    3  A    between atoms: N_18  and  C_21 
REMARK    4  A    between atoms: C_21  and  C_20 
ROOT
ATOM      1  N   UNL d   1     -48.083  14.504  22.627  0.00  0.00    -0.208 NA
ATOM      2  C   UNL d   1     -48.765  14.059  22.812  0.00  0.00     0.085 A 
ATOM      3  C   UNL d   1     -47.333  14.182  22.758  0.00  0.00     0.279 A 
ATOM      4  C   UNL d   1     -47.260  13.414  23.076  0.00  0.00     0.059 A 
ATOM      5  C   UNL d   1     -47.939  12.978  23.258  0.00  0.00     0.006 A 
ATOM      6  C   UNL d   1     -48.685  13.300  23.126  0.00  0.00     0.018 A 
ATOM      7  C   UNL d   1     -49.511  14.390  22.677  0.00  0.00     0.018 A 
ATOM      8  O   UNL d   1     -46.660  14.618  22.576  0.00  0.00    -0.265 OA
ATOM      9  C   UNL d   1     -50.185  13.954  22.859  0.00  0.00     0.002 A 
ATOM     10  C   UNL d   1     -49.366  12.863  23.309  0.00  0.00     0.002 A 
ATOM     11  C   UNL d   1     -50.112  13.186  23.177  0.00  0.00     0.000 A 
ATOM     12  C   UNL d   1     -49.575  15.150  22.363  0.00  0.00     0.002 C 
ATOM     13  C   UNL d   1     -50.930  14.276  22.728  0.00  0.00     0.000 C 
ENDROOT
BRANCH   4  14
ATOM     14  C   UNL d   1     -46.516  13.099  23.205  0.00  0.00     0.026 C 
BRANCH  14  15
ATOM     15  C   UNL d   1     -46.416  12.297  23.339  0.00  0.00     0.102 C 
BRANCH  15  16
ATOM     16  N   UNL d   1     -45.665  11.953  23.337  0.00  0.00    -0.206 NA
ATOM     17  C   UNL d   1     -45.580  11.133  23.389  0.00  0.00     0.285 C 
ATOM     18  O   UNL d   1     -46.243  10.651  23.443  0.00  0.00    -0.265 OA
BRANCH  17  19
ATOM     19  C   UNL d   1     -44.824  10.798  23.386  0.00  0.00     0.087 A 
ATOM     20  S   UNL d   1     -44.622  10.071  23.698  0.00  0.00    -0.082 SA
ATOM     21  C   UNL d   1     -43.828   9.946  23.583  0.00  0.00     0.036 A 
ATOM     22  C   UNL d   1     -43.523  10.611  23.190  0.00  0.00     0.008 A 
ATOM     23  C   UNL d   1     -44.143  11.139  23.068  0.00  0.00     0.012 A 
ENDBRANCH  17  19
ENDBRANCH  15  16
ENDBRANCH  14  15
ENDBRANCH   4  14
TORSDOF 4
ENDMDL
MODEL 3
REMARK VINA RESULT:      -7.3      2.049      5.428
REMARK  4 active torsions:
REMARK  status: ('A' for Active; 'I' for Inactive)
REMARK    1  A    between atoms: C_20  and  C_4 
REMARK    2  A    between atoms: C_8  and  C_9 
REMARK       I    between atoms: C_9  and  N_18 
REMARK    3  A    between atoms: N_18  and  C_21 
REMARK    4  A    between atoms: C_21  and  C_20 
ROOT
ATOM      1  N   UNL d   1     -45.127  12.759  22.599  0.00  0.00    -0.208 NA
ATOM      2  C   UNL d   1     -45.324  12.037  22.969  0.00  0.00     0.085 A 
ATOM      3  C   UNL d   1     -45.682  13.371  22.568  0.00  0.00     0.279 A 
ATOM      4  C   UNL d   1     -46.437  13.264  22.907  0.00  0.00     0.059 A 
ATOM      5  C   UNL d   1     -46.627  12.547  23.272  0.00  0.00     0.006 A 
ATOM      6  C   UNL d   1     -46.072  11.939  23.302  0.00  0.00     0.018 A 
ATOM      7  C   UNL d   1     -44.761  11.432  22.995  0.00  0.00     0.018 A 
ATOM      8  O   UNL d   1     -45.491  14.084  22.204  0.00  0.00    -0.265 OA
ATOM      9  C   UNL d   1     -44.952  10.718  23.359  0.00  0.00     0.002 A 
ATOM     10  C   UNL d   1     -46.262  11.219  23.668  0.00  0.00     0.002 A 
ATOM     11  C   UNL d   1     -45.707  10.611  23.698  0.00  0.00     0.000 A 
ATOM     12  C   UNL d   1     -44.017  11.545  22.658  0.00  0.00     0.002 C 
ATOM     13  C   UNL d   1     -44.398  10.111  23.389  0.00  0.00     0.000 C 
ENDROOT
BRANCH   4  14
ATOM     14  C   UNL d   1     -46.984  13.872  22.874  0.00  0.00     0.026 C 
BRANCH  14  15
ATOM     15  C   UNL d   1     -47.769  13.723  22.693  0.00  0.00     0.102 C 
BRANCH  15  16
ATOM     16  N   UNL d   1     -48.369  14.233  22.940  0.00  0.00    -0.206 NA
ATOM     17  C   UNL d   1     -49.093  14.250  22.542  0.00  0.00     0.285 C 
ATOM     18  O   UNL d   1     -49.223  13.760  21.896  0.00  0.00    -0.265 OA
BRANCH  17  19
ATOM     19  C   UNL d   1     -49.689  14.765  22.796  0.00  0.00     0.087 A 
ATOM     20  S   UNL d   1     -50.476  14.731  22.580  0.00  0.00    -0.082 SA
ATOM     21  C   UNL d   1     -50.877  15.332  22.948  0.00  0.00     0.036 A 
ATOM     22  C   UNL d   1     -50.331  15.755  23.408  0.00  0.00     0.008 A 
ATOM     23  C   UNL d   1     -49.593  15.401  23.313  0.00  0.00     0.012 A 
ENDBRANCH  17  19
ENDBRANCH  15  16
ENDBRANCH  14  15
ENDBRANCH   4  14
TORSDOF 4
ENDMDL
MODEL 4
REMARK VINA RESULT:      -6.9      1.705      2.259
REMARK  4 active torsions:
REMARK  status: ('A' for Active; 'I' for Inactive)
REMARK    1  A    between atoms: C_20  and  C_4 
REMARK    2  A    between atoms: C_8  and  C_9 
REMARK       I    between atoms: C_9  and  N_18 
REMARK    3  A    between atoms: N_18  and  C_21 
REMARK    4  A    between atoms: C_21  and  C_20 
ROOT
ATOM      1  N   UNL d   1     -48.952  13.962  22.950  0.00  0.00    -0.208 NA
ATOM      2  C   UNL d   1     -49.200  13.205  23.200  0.00  0.00     0.085 A 
ATOM      3  C   UNL d   1     -48.149  14.111  22.822  0.00  0.00     0.279 A 
ATOM      4  C   UNL d   1     -47.590  13.503  22.943  0.00  0.00     0.059 A 
ATOM      5  C   UNL d   1     -47.841  12.755  23.190  0.00  0.00     0.006 A 
ATOM      6  C   UNL d   1     -48.641  12.610  23.317  0.00  0.00     0.018 A 
ATOM      7  C   UNL d   1     -50.006  13.067  23.325  0.00  0.00     0.018 A 
ATOM      8  O   UNL d   1     -47.901  14.855  22.575  0.00  0.00    -0.265 OA
ATOM      9  C   UNL d   1     -50.254  12.321  23.571  0.00  0.00     0.002 A 
ATOM     10  C   UNL d   1     -48.895  11.860  23.565  0.00  0.00     0.002 A 
ATOM     11  C   UNL d   1     -49.695  11.714  23.692  0.00  0.00     0.000 A 
ATOM     12  C   UNL d   1     -50.553  13.672  23.203  0.00  0.00     0.002 C 
ATOM     13  C   UNL d   1     -51.054  12.176  23.698  0.00  0.00     0.000 C 
ENDROOT
BRANCH   4  14
ATOM     14  C   UNL d   1     -46.795  13.654  22.815  0.00  0.00     0.026 C 
BRANCH  14  15
ATOM     15  C   UNL d   1     -46.246  13.046  22.813  0.00  0.00     0.102 C 
BRANCH  15  16
ATOM     16  N   UNL d   1     -45.555  13.096  22.365  0.00  0.00    -0.206 NA
ATOM     17  C   UNL d   1     -44.931  12.572  22.501  0.00  0.00     0.285 C 
ATOM     18  O   UNL d   1     -44.992  11.995  23.082  0.00  0.00    -0.265 OA
BRANCH  17  19
ATOM     19  C   UNL d   1     -44.241  12.629  22.047  0.00  0.00     0.087 A 
ATOM     20  S   UNL d   1     -43.586  12.146  22.110  0.00  0.00    -0.082 SA
ATOM     21  C   UNL d   1     -43.030  12.384  21.568  0.00  0.00     0.036 A 
ATOM     22  C   UNL d   1     -43.342  13.032  21.154  0.00  0.00     0.008 A 
ATOM     23  C   UNL d   1     -44.095  13.183  21.453  0.00  0.00     0.012 A 
ENDBRANCH  17  19
ENDBRANCH  15  16
ENDBRANCH  14  15
ENDBRANCH   4  14
TORSDOF 4
ENDMDL
MODEL 5
REMARK VINA RESULT:      -6.3      1.753      2.019
REMARK  4 active torsions:
REMARK  status: ('A' for Active; 'I' for Inactive)
REMARK    1  A    between atoms: C_20  and  C_4 
REMARK    2  A    between atoms: C_8  and  C_9 
REMARK       I    between atoms: C_9  and  N_18 
REMARK    3  A    between atoms: N_18  and  C_21 
REMARK    4  A    between atoms: C_21  and  C_20 
ROOT
ATOM      1  N   UNL d   1     -48.438  13.182  23.332  0.00  0.00    -0.208 NA
ATOM      2  C   UNL d   1     -48.697  13.926  23.057  0.00  0.00     0.085 A 
ATOM      3  C   UNL d   1     -47.633  12.994  23.314  0.00  0.00     0.279 A 
ATOM      4  C   UNL d   1     -47.083  13.548  23.021  0.00  0.00     0.059 A 
ATOM      5  C   UNL d   1     -47.345  14.284  22.749  0.00  0.00     0.006 A 
ATOM      6  C   UNL d   1     -48.147  14.470  22.768  0.00  0.00     0.018 A 
ATOM      7  C   UNL d   1     -49.504  14.105  23.079  0.00  0.00     0.018 A 
ATOM      8  O   UNL d   1     -47.375  12.261  23.585  0.00  0.00    -0.265 OA
ATOM      9  C   UNL d   1     -49.763  14.839  22.808  0.00  0.00     0.002 A 
ATOM     10  C   UNL d   1     -48.411  15.207  22.496  0.00  0.00     0.002 A 
ATOM     11  C   UNL d   1     -49.213  15.393  22.515  0.00  0.00     0.000 A 
ATOM     12  C   UNL d   1     -50.042  13.552  23.370  0.00  0.00     0.002 C 
ATOM     13  C   UNL d   1     -50.565  15.023  22.827  0.00  0.00     0.000 C 
ENDROOT
BRANCH   4  14
ATOM     14  C   UNL d   1     -46.287  13.358  23.005  0.00  0.00     0.026 C 
BRANCH  14  15
ATOM     15  C   UNL d   1     -45.892  13.263  22.293  0.00  0.00     0.102 C 
BRANCH  15  16
ATOM     16  N   UNL d   1     -45.070  13.182  22.268  0.00  0.00    -0.206 NA
ATOM     17  C   UNL d   1     -44.701  12.875  21.597  0.00  0.00     0.285 C 
ATOM     18  O   UNL d   1     -45.147  12.646  20.946  0.00  0.00    -0.265 OA
BRANCH  17  19
ATOM     19  C   UNL d   1     -43.877  12.797  21.580  0.00  0.00     0.087 A 
ATOM     20  S   UNL d   1     -43.359  13.276  21.169  0.00  0.00    -0.082 SA
ATOM     21  C   UNL d   1     -42.601  13.016  21.297  0.00  0.00     0.036 A 
ATOM     22  C   UNL d   1     -42.642  12.358  21.802  0.00  0.00     0.008 A 
ATOM     23  C   UNL d   1     -43.436  12.223  21.977  0.00  0.00     0.012 A 
ENDBRANCH  17  19
ENDBRANCH  15  16
ENDBRANCH  14  15
ENDBRANCH   4  14
TORSDOF 4
ENDMDL
MODEL 6
REMARK VINA RESULT:      -5.5      8.388     10.328
REMARK  4 active torsions:
REMARK  status: ('A' for Active; 'I' for Inactive)
REMARK    1  A    between atoms: C_20  and  C_4 
REMARK    2  A    between atoms: C_8  and  C_9 
REMARK       I    between atoms: C_9  and  N_18 
REMARK    3  A    between atoms: N_18  and  C_21 
REMARK    4  A    between atoms: C_21  and  C_20 
ROOT
ATOM      1  N   UNL d   1     -40.854  14.520  19.381  0.00  0.00    -0.208 NA
ATOM      2  C   UNL d   1     -40.287  14.974  19.793  0.00  0.00     0.085 A 
ATOM      3  C   UNL d   1     -40.770  14.397  18.568  0.00  0.00     0.279 A 
ATOM      4  C   UNL d   1     -40.120  14.726  18.162  0.00  0.00     0.059 A 
ATOM      5  C   UNL d   1     -39.561  15.175  18.575  0.00  0.00     0.006 A 
ATOM      6  C   UNL d   1     -39.647  15.296  19.385  0.00  0.00     0.018 A 
ATOM      7  C   UNL d   1     -40.380  15.091  20.606  0.00  0.00     0.018 A 
ATOM      8  O   UNL d   1     -41.327  13.950  18.159  0.00  0.00    -0.265 OA
ATOM      9  C   UNL d   1     -39.822  15.538  21.016  0.00  0.00     0.002 A 
ATOM     10  C   UNL d   1     -39.087  15.746  19.801  0.00  0.00     0.002 A 
ATOM     11  C   UNL d   1     -39.172  15.868  20.611  0.00  0.00     0.000 A 
ATOM     12  C   UNL d   1     -41.025  14.762  21.001  0.00  0.00     0.002 C 
ATOM     13  C   UNL d   1     -39.908  15.660  21.825  0.00  0.00     0.000 C 
ENDROOT
BRANCH   4  14
ATOM     14  C   UNL d   1     -40.041  14.602  17.357  0.00  0.00     0.026 C 
BRANCH  14  15
ATOM     15  C   UNL d   1     -39.357  14.273  17.047  0.00  0.00     0.102 C 
BRANCH  15  16
ATOM     16  N   UNL d   1     -39.116  14.437  16.275  0.00  0.00    -0.206 NA
ATOM     17  C   UNL d   1     -38.534  13.977  15.912  0.00  0.00     0.285 C 
ATOM     18  O   UNL d   1     -38.190  13.350  16.316  0.00  0.00    -0.265 OA
BRANCH  17  19
ATOM     19  C   UNL d   1     -38.299  14.148  15.138  0.00  0.00     0.087 A 
ATOM     20  S   UNL d   1     -38.160  14.893  14.833  0.00  0.00    -0.082 SA
ATOM     21  C   UNL d   1     -37.940  14.824  14.055  0.00  0.00     0.036 A 
ATOM     22  C   UNL d   1     -37.940  14.016  13.864  0.00  0.00     0.008 A 
ATOM     23  C   UNL d   1     -38.164  13.597  14.538  0.00  0.00     0.012 A 
ENDBRANCH  17  19
ENDBRANCH  15  16
ENDBRANCH  14  15
ENDBRANCH   4  14
TORSDOF 4
ENDMDL
MODEL 7
REMARK VINA RESULT:      -5.4      8.910      9.980
REMARK  4 active torsions:
REMARK  status: ('A' for Active; 'I' for Inactive)
REMARK    1  A    between atoms: C_20  and  C_4 
REMARK    2  A    between atoms: C_8  and  C_9 
REMARK       I    between atoms: C_9  and  N_18 
REMARK    3  A    between atoms: N_18  and  C_21 
REMARK    4  A    between atoms: C_21  and  C_20 
ROOT
ATOM      1  N   UNL d   1     -39.901  14.996  17.884  0.00  0.00    -0.208 NA
ATOM      2  C   UNL d   1     -39.357  14.488  17.506  0.00  0.00     0.085 A 
ATOM      3  C   UNL d   1     -40.040  14.920  18.696  0.00  0.00     0.279 A 
ATOM      4  C   UNL d   1     -39.636  14.335  19.133  0.00  0.00     0.059 A 
ATOM      5  C   UNL d   1     -39.098  13.835  18.753  0.00  0.00     0.006 A 
ATOM      6  C   UNL d   1     -38.961  13.913  17.945  0.00  0.00     0.018 A 
ATOM      7  C   UNL d   1     -39.224  14.573  16.694  0.00  0.00     0.018 A 
ATOM      8  O   UNL d   1     -40.575  15.419  19.071  0.00  0.00    -0.265 OA
ATOM      9  C   UNL d   1     -38.688  14.073  16.318  0.00  0.00     0.002 A 
ATOM     10  C   UNL d   1     -38.422  13.411  17.563  0.00  0.00     0.002 A 
ATOM     11  C   UNL d   1     -38.285  13.489  16.755  0.00  0.00     0.000 A 
ATOM     12  C   UNL d   1     -39.627  15.153  16.268  0.00  0.00     0.002 C 
ATOM     13  C   UNL d   1     -38.551  14.152  15.510  0.00  0.00     0.000 C 
ENDROOT
BRANCH   4  14
ATOM     14  C   UNL d   1     -39.777  14.263  19.936  0.00  0.00     0.026 C 
BRANCH  14  15
ATOM     15  C   UNL d   1     -39.207  14.477  20.484  0.00  0.00     0.102 C 
BRANCH  15  16
ATOM     16  N   UNL d   1     -39.077  14.028  21.164  0.00  0.00    -0.206 NA
ATOM     17  C   UNL d   1     -38.629  14.332  21.787  0.00  0.00     0.285 C 
ATOM     18  O   UNL d   1     -38.306  15.086  21.736  0.00  0.00    -0.265 OA
BRANCH  17  19
ATOM     19  C   UNL d   1     -38.504  13.875  22.466  0.00  0.00     0.087 A 
ATOM     20  S   UNL d   1     -38.903  13.950  23.174  0.00  0.00    -0.082 SA
ATOM     21  C   UNL d   1     -38.618  13.400  23.698  0.00  0.00     0.036 A 
ATOM     22  C   UNL d   1     -38.025  12.966  23.310  0.00  0.00     0.008 A 
ATOM     23  C   UNL d   1     -37.955  13.263  22.544  0.00  0.00     0.012 A 
ENDBRANCH  17  19
ENDBRANCH  15  16
ENDBRANCH  14  15
ENDBRANCH   4  14
TORSDOF 4
ENDMDL
