MODEL 1
REMARK VINA RESULT:      -4.9      0.000      0.000
REMARK  2 active torsions:
REMARK  status: ('A' for Active; 'I' for Inactive)
REMARK    1  A    between atoms: C_7  and  C_5 
REMARK    2  A    between atoms: C_8  and  C_7 
ROOT
ATOM      1  C   UNL d   1      56.397  -0.872  33.003  0.00  0.00     0.046 C 
ENDROOT
BRANCH   1   2
ATOM      2  C   UNL d   1      56.725  -0.623  32.303  0.00  0.00     0.205 A 
ATOM      3  N   UNL d   1      56.642  -1.046  31.622  0.00  0.00    -0.120 NA
ATOM      4  N   UNL d   1      57.041  -0.636  31.022  0.00  0.00    -0.109 NA
ATOM      5  C   UNL d   1      57.357   0.034  31.370  0.00  0.00     0.262 A 
ATOM      6  O   UNL d   1      57.177   0.051  32.124  0.00  0.00    -0.260 OA
ATOM      7  S   UNL d   1      57.813   0.624  30.972  0.00  0.00    -0.029 SA
ENDBRANCH   1   2
BRANCH   1   8
ATOM      8  C   UNL d   1      55.921  -0.336  33.461  0.00  0.00     0.004 A 
ATOM      9  C   UNL d   1      56.245   0.167  34.029  0.00  0.00     0.000 A 
ATOM     10  C   UNL d   1      55.773   0.682  34.466  0.00  0.00     0.000 A 
ATOM     11  C   UNL d   1      54.960   0.682  34.318  0.00  0.00     0.000 A 
ATOM     12  C   UNL d   1      54.618   0.189  33.756  0.00  0.00     0.000 A 
ATOM     13  C   UNL d   1      55.132  -0.339  33.314  0.00  0.00     0.000 A 
ENDBRANCH   1   8
TORSDOF 2
ENDMDL
MODEL 2
REMARK VINA RESULT:      -4.4      1.343      2.024
REMARK  2 active torsions:
REMARK  status: ('A' for Active; 'I' for Inactive)
REMARK    1  A    between atoms: C_7  and  C_5 
REMARK    2  A    between atoms: C_8  and  C_7 
ROOT
ATOM      1  C   UNL d   1      56.886   0.522  31.265  0.00  0.00     0.046 C 
ENDROOT
BRANCH   1   2
ATOM      2  C   UNL d   1      57.620   0.413  30.936  0.00  0.00     0.205 A 
ATOM      3  N   UNL d   1      57.723  -0.018  30.262  0.00  0.00    -0.120 NA
ATOM      4  N   UNL d   1      58.532  -0.016  30.084  0.00  0.00    -0.109 NA
ATOM      5  C   UNL d   1      58.897   0.425  30.670  0.00  0.00     0.262 A 
ATOM      6  O   UNL d   1      58.369   0.682  31.176  0.00  0.00    -0.260 OA
ATOM      7  S   UNL d   1      59.726   0.581  30.721  0.00  0.00    -0.029 SA
ENDBRANCH   1   2
BRANCH   1   8
ATOM      8  C   UNL d   1      56.650   0.053  31.935  0.00  0.00     0.004 A 
ATOM      9  C   UNL d   1      56.503  -0.757  31.876  0.00  0.00     0.000 A 
ATOM     10  C   UNL d   1      56.275  -1.200  32.532  0.00  0.00     0.000 A 
ATOM     11  C   UNL d   1      56.196  -0.809  33.255  0.00  0.00     0.000 A 
ATOM     12  C   UNL d   1      56.337  -0.003  33.335  0.00  0.00     0.000 A 
ATOM     13  C   UNL d   1      56.574   0.437  32.636  0.00  0.00     0.000 A 
ENDBRANCH   1   8
TORSDOF 2
ENDMDL
MODEL 3
REMARK VINA RESULT:      -4.3      2.488      3.315
REMARK  2 active torsions:
REMARK  status: ('A' for Active; 'I' for Inactive)
REMARK    1  A    between atoms: C_7  and  C_5 
REMARK    2  A    between atoms: C_8  and  C_7 
ROOT
ATOM      1  C   UNL d   1      55.136   0.431  33.434  0.00  0.00     0.046 C 
ENDROOT
BRANCH   1   2
ATOM      2  C   UNL d   1      55.204   0.518  34.239  0.00  0.00     0.205 A 
ATOM      3  N   UNL d   1      54.557   0.606  34.712  0.00  0.00    -0.120 NA
ATOM      4  N   UNL d   1      54.826   0.680  35.492  0.00  0.00    -0.109 NA
ATOM      5  C   UNL d   1      55.642   0.634  35.462  0.00  0.00     0.262 A 
ATOM      6  O   UNL d   1      55.875   0.538  34.728  0.00  0.00    -0.260 OA
ATOM      7  S   UNL d   1      56.161   0.681  36.127  0.00  0.00    -0.029 SA
ENDBRANCH   1   2
BRANCH   1   8
ATOM      8  C   UNL d   1      55.676  -0.078  33.018  0.00  0.00     0.004 A 
ATOM      9  C   UNL d   1      55.639  -0.901  33.075  0.00  0.00     0.000 A 
ATOM     10  C   UNL d   1      56.169  -1.383  32.667  0.00  0.00     0.000 A 
ATOM     11  C   UNL d   1      56.741  -1.018  32.196  0.00  0.00     0.000 A 
ATOM     12  C   UNL d   1      56.795  -0.201  32.126  0.00  0.00     0.000 A 
ATOM     13  C   UNL d   1      56.231   0.281  32.562  0.00  0.00     0.000 A 
ENDBRANCH   1   8
TORSDOF 2
ENDMDL
MODEL 4
REMARK VINA RESULT:      -4.1      8.742      9.320
REMARK  2 active torsions:
REMARK  status: ('A' for Active; 'I' for Inactive)
REMARK    1  A    between atoms: C_7  and  C_5 
REMARK    2  A    between atoms: C_8  and  C_7 
ROOT
ATOM      1  C   UNL d   1      59.975  -8.659  35.672  0.00  0.00     0.046 C 
ENDROOT
BRANCH   1   2
ATOM      2  C   UNL d   1      60.019  -8.888  34.894  0.00  0.00     0.205 A 
ATOM      3  N   UNL d   1      59.361  -9.083  34.471  0.00  0.00    -0.120 NA
ATOM      4  N   UNL d   1      59.606  -9.287  33.706  0.00  0.00    -0.109 NA
ATOM      5  C   UNL d   1      60.421  -9.206  33.694  0.00  0.00     0.262 A 
ATOM      6  O   UNL d   1      60.674  -8.972  34.389  0.00  0.00    -0.260 OA
ATOM      7  S   UNL d   1      60.919  -9.355  33.027  0.00  0.00    -0.029 SA
ENDBRANCH   1   2
BRANCH   1   8
ATOM      8  C   UNL d   1      60.040  -7.835  35.874  0.00  0.00     0.004 A 
ATOM      9  C   UNL d   1      59.399  -7.317  35.823  0.00  0.00     0.000 A 
ATOM     10  C   UNL d   1      59.475  -6.521  36.021  0.00  0.00     0.000 A 
ATOM     11  C   UNL d   1      60.215  -6.253  36.273  0.00  0.00     0.000 A 
ATOM     12  C   UNL d   1      60.865  -6.752  36.330  0.00  0.00     0.000 A 
ATOM     13  C   UNL d   1      60.760  -7.579  36.118  0.00  0.00     0.000 A 
ENDBRANCH   1   8
TORSDOF 2
ENDMDL
MODEL 5
REMARK VINA RESULT:      -2.9      3.834      5.396
REMARK  2 active torsions:
REMARK  status: ('A' for Active; 'I' for Inactive)
REMARK    1  A    between atoms: C_7  and  C_5 
REMARK    2  A    between atoms: C_8  and  C_7 
ROOT
ATOM      1  C   UNL d   1      59.288  -0.898  28.530  0.00  0.00     0.046 C 
ENDROOT
BRANCH   1   2
ATOM      2  C   UNL d   1      58.827  -0.438  29.017  0.00  0.00     0.205 A 
ATOM      3  N   UNL d   1      58.118  -0.143  28.774  0.00  0.00    -0.120 NA
ATOM      4  N   UNL d   1      57.801   0.295  29.402  0.00  0.00    -0.109 NA
ATOM      5  C   UNL d   1      58.341   0.247  30.015  0.00  0.00     0.262 A 
ATOM      6  O   UNL d   1      58.950  -0.183  29.798  0.00  0.00    -0.260 OA
ATOM      7  S   UNL d   1      58.256   0.610  30.773  0.00  0.00    -0.029 SA
ENDBRANCH   1   2
BRANCH   1   8
ATOM      8  C   UNL d   1      59.391  -1.724  28.705  0.00  0.00     0.004 A 
ATOM      9  C   UNL d   1      58.788  -2.277  28.593  0.00  0.00     0.000 A 
ATOM     10  C   UNL d   1      58.901  -3.075  28.766  0.00  0.00     0.000 A 
ATOM     11  C   UNL d   1      59.638  -3.309  29.055  0.00  0.00     0.000 A 
ATOM     12  C   UNL d   1      60.251  -2.774  29.173  0.00  0.00     0.000 A 
ATOM     13  C   UNL d   1      60.109  -1.947  28.986  0.00  0.00     0.000 A 
ENDBRANCH   1   8
TORSDOF 2
ENDMDL
MODEL 6
REMARK VINA RESULT:      -2.3      4.312      5.167
REMARK  2 active torsions:
REMARK  status: ('A' for Active; 'I' for Inactive)
REMARK    1  A    between atoms: C_7  and  C_5 
REMARK    2  A    between atoms: C_8  and  C_7 
ROOT
ATOM      1  C   UNL d   1      59.386  -0.924  28.539  0.00  0.00     0.046 C 
ENDROOT
BRANCH   1   2
ATOM      2  C   UNL d   1      59.519  -1.711  28.693  0.00  0.00     0.205 A 
ATOM      3  N   UNL d   1      58.924  -2.254  28.667  0.00  0.00    -0.120 NA
ATOM      4  N   UNL d   1      59.251  -2.993  28.849  0.00  0.00    -0.109 NA
ATOM      5  C   UNL d   1      60.049  -2.867  28.982  0.00  0.00     0.262 A 
ATOM      6  O   UNL d   1      60.217  -2.115  28.892  0.00  0.00    -0.260 OA
ATOM      7  S   UNL d   1      60.612  -3.463  29.187  0.00  0.00    -0.029 SA
ENDBRANCH   1   2
BRANCH   1   8
ATOM      8  C   UNL d   1      59.273  -0.382  29.185  0.00  0.00     0.004 A 
ATOM      9  C   UNL d   1      58.574  -0.357  29.623  0.00  0.00     0.000 A 
ATOM     10  C   UNL d   1      58.477   0.173  30.247  0.00  0.00     0.000 A 
ATOM     11  C   UNL d   1      59.103   0.682  30.424  0.00  0.00     0.000 A 
ATOM     12  C   UNL d   1      59.808   0.673  30.000  0.00  0.00     0.000 A 
ATOM     13  C   UNL d   1      59.884   0.111  29.354  0.00  0.00     0.000 A 
ENDBRANCH   1   8
TORSDOF 2
ENDMDL
