MODEL 1
REMARK VINA RESULT:      55.3      0.000      0.000
REMARK  5 active torsions:
REMARK  status: ('A' for Active; 'I' for Inactive)
REMARK    1  A    between atoms: C_4  and  S_1 
REMARK    2  A    between atoms: N_5  and  S_1 
REMARK       I    between atoms: N_2  and  C_3 
REMARK    3  A    between atoms: C_3  and  C_6 
REMARK    4  A    between atoms: C_16  and  N_5 
REMARK    5  A    between atoms: C_19  and  C_16 
ROOT
ATOM      1  C   UNL d   1      13.702  14.797  -4.707  0.00  0.00     0.057 A 
ATOM      2  C   UNL d   1      13.994  14.072  -4.981  0.00  0.00     0.005 A 
ATOM      3  C   UNL d   1      13.151  14.807  -4.090  0.00  0.00     0.005 A 
ATOM      4  C   UNL d   1      13.184  13.380  -4.024  0.00  0.00     0.020 A 
ATOM      5  C   UNL d   1      13.732  13.363  -4.636  0.00  0.00     0.002 A 
ATOM      6  C   UNL d   1      12.891  14.097  -3.748  0.00  0.00     0.002 A 
ENDROOT
BRANCH   4   7
ATOM      7  C   UNL d   1      12.926  12.677  -3.684  0.00  0.00     0.112 C 
BRANCH   7   8
ATOM      8  N   UNL d   1      13.458  12.079  -3.507  0.00  0.00    -0.157 NA
BRANCH   8   9
ATOM      9  S   UNL d   1      13.774  12.009  -2.753  0.00  0.00     0.285 S 
ATOM     10  O   UNL d   1      14.532  12.024  -3.069  0.00  0.00    -0.198 OA
ATOM     11  O   UNL d   1      13.007  11.995  -2.434  0.00  0.00    -0.198 OA
BRANCH   9  12
ATOM     12  C   UNL d   1      14.093  11.939  -1.994  0.00  0.00     0.105 A 
ATOM     13  C   UNL d   1      13.602  11.853  -1.348  0.00  0.00     0.012 A 
ATOM     14  C   UNL d   1      13.924  11.783  -0.587  0.00  0.00     0.001 A 
ATOM     15  C   UNL d   1      12.773  11.837  -1.462  0.00  0.00     0.001 C 
ATOM     16  C   UNL d   1      14.734  11.800  -0.482  0.00  0.00     0.000 A 
ATOM     17  C   UNL d   1      15.242  11.886  -1.131  0.00  0.00     0.001 A 
ATOM     18  C   UNL d   1      14.912  11.956  -1.892  0.00  0.00     0.013 A 
ATOM     19  C   UNL d   1      16.060  11.904  -1.029  0.00  0.00     0.000 C 
ENDBRANCH   9  12
ENDBRANCH   8   9
ENDBRANCH   7   8
ENDBRANCH   4   7
BRANCH   1  20
ATOM     20  C   UNL d   1      13.960  15.500  -5.047  0.00  0.00     0.265 C 
ATOM     21  N   UNL d   1      14.372  16.060  -4.586  0.00  0.00    -0.273 N 
ATOM     22  C   UNL d   1      14.631  16.766  -4.927  0.00  0.00     0.067 A 
ATOM     23  C   UNL d   1      14.519  15.909  -3.793  0.00  0.00     0.083 A 
ATOM     24  C   UNL d   1      14.483  16.919  -5.726  0.00  0.00     0.019 C 
ATOM     25  C   UNL d   1      15.038  17.318  -4.470  0.00  0.00     0.018 A 
ATOM     26  C   UNL d   1      15.178  17.156  -3.681  0.00  0.00     0.003 A 
ATOM     27  C   UNL d   1      14.921  16.457  -3.342  0.00  0.00     0.019 A 
ATOM     28  O   UNL d   1      13.811  15.649  -5.844  0.00  0.00    -0.267 OA
ENDBRANCH   1  20
TORSDOF 5
ENDMDL
MODEL 2
REMARK VINA RESULT:      56.0      1.864      2.988
REMARK  5 active torsions:
REMARK  status: ('A' for Active; 'I' for Inactive)
REMARK    1  A    between atoms: C_4  and  S_1 
REMARK    2  A    between atoms: N_5  and  S_1 
REMARK       I    between atoms: N_2  and  C_3 
REMARK    3  A    between atoms: C_3  and  C_6 
REMARK    4  A    between atoms: C_16  and  N_5 
REMARK    5  A    between atoms: C_19  and  C_16 
ROOT
ATOM      1  C   UNL d   1      14.352  17.380  -5.234  0.00  0.00     0.057 A 
ATOM      2  C   UNL d   1      14.053  16.881  -5.824  0.00  0.00     0.005 A 
ATOM      3  C   UNL d   1      14.279  17.160  -4.440  0.00  0.00     0.005 A 
ATOM      4  C   UNL d   1      13.616  15.954  -4.825  0.00  0.00     0.020 A 
ATOM      5  C   UNL d   1      13.685  16.166  -5.615  0.00  0.00     0.002 A 
ATOM      6  C   UNL d   1      13.911  16.446  -4.234  0.00  0.00     0.002 A 
ENDROOT
BRANCH   4   7
ATOM      7  C   UNL d   1      13.252  15.246  -4.620  0.00  0.00     0.112 C 
BRANCH   7   8
ATOM      8  N   UNL d   1      13.532  14.532  -4.910  0.00  0.00    -0.157 NA
BRANCH   8   9
ATOM      9  S   UNL d   1      13.473  13.847  -4.462  0.00  0.00     0.285 S 
ATOM     10  O   UNL d   1      14.155  13.557  -4.817  0.00  0.00    -0.198 OA
ATOM     11  O   UNL d   1      12.784  14.141  -4.104  0.00  0.00    -0.198 OA
BRANCH   9  12
ATOM     12  C   UNL d   1      13.416  13.156  -4.012  0.00  0.00     0.105 A 
ATOM     13  C   UNL d   1      13.067  12.489  -4.328  0.00  0.00     0.012 A 
ATOM     14  C   UNL d   1      13.010  11.796  -3.876  0.00  0.00     0.001 A 
ATOM     15  C   UNL d   1      12.769  12.512  -5.110  0.00  0.00     0.001 C 
ATOM     16  C   UNL d   1      13.303  11.780  -3.114  0.00  0.00     0.000 A 
ATOM     17  C   UNL d   1      13.659  12.451  -2.783  0.00  0.00     0.001 A 
ATOM     18  C   UNL d   1      13.713  13.143  -3.242  0.00  0.00     0.013 A 
ATOM     19  C   UNL d   1      13.955  12.437  -2.014  0.00  0.00     0.000 C 
ENDBRANCH   9  12
ENDBRANCH   8   9
ENDBRANCH   7   8
ENDBRANCH   4   7
BRANCH   1  20
ATOM     20  C   UNL d   1      14.716  18.088  -5.439  0.00  0.00     0.265 C 
ATOM     21  N   UNL d   1      14.266  18.712  -5.759  0.00  0.00    -0.273 N 
ATOM     22  C   UNL d   1      14.632  19.423  -5.966  0.00  0.00     0.067 A 
ATOM     23  C   UNL d   1      13.458  18.619  -5.870  0.00  0.00     0.083 A 
ATOM     24  C   UNL d   1      15.446  19.518  -5.854  0.00  0.00     0.019 C 
ATOM     25  C   UNL d   1      14.185  20.039  -6.282  0.00  0.00     0.018 A 
ATOM     26  C   UNL d   1      13.381  19.933  -6.388  0.00  0.00     0.003 A 
ATOM     27  C   UNL d   1      13.017  19.229  -6.184  0.00  0.00     0.019 A 
ATOM     28  O   UNL d   1      15.529  18.179  -5.326  0.00  0.00    -0.267 OA
ENDBRANCH   1  20
TORSDOF 5
ENDMDL
