MODEL 1
REMARK VINA RESULT:      -2.9      0.000      0.000
REMARK  2 active torsions:
REMARK  status: ('A' for Active; 'I' for Inactive)
REMARK       I    between atoms: C_2  and  N_1 
REMARK    1  A    between atoms: C_4  and  C_2 
REMARK    2  A    between atoms: C_6  and  C_7 
ROOT
ATOM      1  C   UNL d   1      31.129  16.806 -24.517  0.00  0.00     0.057 A 
ATOM      2  C   UNL d   1      32.179  18.085 -24.383  0.00  0.00    -0.023 A 
ATOM      3  C   UNL d   1      31.652  16.842 -23.871  0.00  0.00     0.004 A 
ATOM      4  C   UNL d   1      31.117  17.384 -25.090  0.00  0.00     0.004 A 
ATOM      5  C   UNL d   1      32.190  17.506 -23.810  0.00  0.00    -0.004 A 
ATOM      6  C   UNL d   1      31.655  18.048 -25.029  0.00  0.00    -0.004 A 
ENDROOT
BRANCH   1   7
ATOM      7  C   UNL d   1      30.609  16.173 -24.584  0.00  0.00     0.267 C 
ATOM      8  N   UNL d   1      29.821  16.261 -24.315  0.00  0.00    -0.240 N 
ATOM      9  C   UNL d   1      29.558  16.981 -23.981  0.00  0.00     0.267 A 
ATOM     10  C   UNL d   1      29.364  15.577 -24.419  0.00  0.00     0.086 A 
ATOM     11  O   UNL d   1      30.167  17.623 -23.938  0.00  0.00    -0.267 OA
ATOM     12  C   UNL d   1      28.824  17.201 -23.682  0.00  0.00     0.061 A 
ATOM     13  C   UNL d   1      28.124  16.708 -23.645  0.00  0.00     0.005 A 
ATOM     14  C   UNL d   1      28.037  15.981 -23.875  0.00  0.00     0.002 A 
ATOM     15  C   UNL d   1      28.572  15.453 -24.224  0.00  0.00     0.019 A 
ATOM     16  O   UNL d   1      30.849  15.471 -24.905  0.00  0.00    -0.267 OA
ENDBRANCH   1   7
BRANCH   2  17
ATOM     17  C   UNL d   1      32.701  18.719 -24.314  0.00  0.00     0.019 C 
ATOM     18  C   UNL d   1      32.863  18.513 -23.536  0.00  0.00     0.004 C 
ATOM     19  C   UNL d   1      33.222  19.354 -24.250  0.00  0.00     0.004 C 
ATOM     20  C   UNL d   1      32.537  18.926 -25.097  0.00  0.00     0.004 C 
ENDBRANCH   2  17
TORSDOF 2
ENDMDL
MODEL 2
REMARK VINA RESULT:      -2.8      1.245      1.969
REMARK  2 active torsions:
REMARK  status: ('A' for Active; 'I' for Inactive)
REMARK       I    between atoms: C_2  and  N_1 
REMARK    1  A    between atoms: C_4  and  C_2 
REMARK    2  A    between atoms: C_6  and  C_7 
ROOT
ATOM      1  C   UNL d   1      32.604  17.556 -24.010  0.00  0.00     0.057 A 
ATOM      2  C   UNL d   1      32.921  19.039 -23.334  0.00  0.00    -0.023 A 
ATOM      3  C   UNL d   1      32.613  18.234 -24.492  0.00  0.00     0.004 A 
ATOM      4  C   UNL d   1      32.748  17.600 -23.210  0.00  0.00     0.004 A 
ATOM      5  C   UNL d   1      32.777  18.995 -24.135  0.00  0.00    -0.004 A 
ATOM      6  C   UNL d   1      32.912  18.361 -22.852  0.00  0.00    -0.004 A 
ENDROOT
BRANCH   1   7
ATOM      7  C   UNL d   1      32.448  16.822 -24.344  0.00  0.00     0.267 C 
ATOM      8  N   UNL d   1      31.654  16.607 -24.505  0.00  0.00    -0.240 N 
ATOM      9  C   UNL d   1      31.023  17.128 -24.332  0.00  0.00     0.267 A 
ATOM     10  C   UNL d   1      31.584  15.852 -24.841  0.00  0.00     0.086 A 
ATOM     11  O   UNL d   1      31.260  17.902 -23.973  0.00  0.00    -0.267 OA
ATOM     12  C   UNL d   1      30.212  17.046 -24.436  0.00  0.00     0.061 A 
ATOM     13  C   UNL d   1      29.810  16.365 -24.768  0.00  0.00     0.005 A 
ATOM     14  C   UNL d   1      30.113  15.709 -25.028  0.00  0.00     0.002 A 
ATOM     15  C   UNL d   1      30.900  15.454 -25.073  0.00  0.00     0.019 A 
ATOM     16  O   UNL d   1      33.047  16.308 -24.517  0.00  0.00    -0.267 OA
ENDBRANCH   1   7
BRANCH   2  17
ATOM     17  C   UNL d   1      33.078  19.777 -23.002  0.00  0.00     0.019 C 
ATOM     18  C   UNL d   1      32.917  19.484 -22.252  0.00  0.00     0.004 C 
ATOM     19  C   UNL d   1      33.236  20.516 -22.675  0.00  0.00     0.004 C 
ATOM     20  C   UNL d   1      33.240  20.072 -23.757  0.00  0.00     0.004 C 
ENDBRANCH   2  17
TORSDOF 2
ENDMDL
MODEL 3
REMARK VINA RESULT:      -2.2      2.269      4.361
REMARK  2 active torsions:
REMARK  status: ('A' for Active; 'I' for Inactive)
REMARK       I    between atoms: C_2  and  N_1 
REMARK    1  A    between atoms: C_4  and  C_2 
REMARK    2  A    between atoms: C_6  and  C_7 
ROOT
ATOM      1  C   UNL d   1      32.634  18.678 -23.940  0.00  0.00     0.057 A 
ATOM      2  C   UNL d   1      32.268  17.058 -23.910  0.00  0.00    -0.023 A 
ATOM      3  C   UNL d   1      31.840  18.434 -24.001  0.00  0.00     0.004 A 
ATOM      4  C   UNL d   1      33.241  18.139 -23.865  0.00  0.00     0.004 A 
ATOM      5  C   UNL d   1      31.661  17.597 -23.985  0.00  0.00    -0.004 A 
ATOM      6  C   UNL d   1      33.062  17.302 -23.849  0.00  0.00    -0.004 A 
ENDROOT
BRANCH   1   7
ATOM      7  C   UNL d   1      32.815  19.478 -23.954  0.00  0.00     0.267 C 
ATOM      8  N   UNL d   1      32.921  19.887 -23.231  0.00  0.00    -0.240 N 
ATOM      9  C   UNL d   1      32.844  19.492 -22.498  0.00  0.00     0.267 A 
ATOM     10  C   UNL d   1      33.101  20.689 -23.335  0.00  0.00     0.086 A 
ATOM     11  O   UNL d   1      32.648  18.630 -22.552  0.00  0.00    -0.267 OA
ATOM     12  C   UNL d   1      32.920  19.766 -21.726  0.00  0.00     0.061 A 
ATOM     13  C   UNL d   1      33.106  20.569 -21.490  0.00  0.00     0.005 A 
ATOM     14  C   UNL d   1      33.237  21.181 -21.934  0.00  0.00     0.002 A 
ATOM     15  C   UNL d   1      33.241  21.264 -22.759  0.00  0.00     0.019 A 
ATOM     16  O   UNL d   1      32.893  19.874 -24.655  0.00  0.00    -0.267 OA
ENDBRANCH   1   7
BRANCH   2  17
ATOM     17  C   UNL d   1      32.084  16.255 -23.896  0.00  0.00     0.019 C 
ATOM     18  C   UNL d   1      32.882  16.061 -23.903  0.00  0.00     0.004 C 
ATOM     19  C   UNL d   1      31.894  15.453 -23.882  0.00  0.00     0.004 C 
ATOM     20  C   UNL d   1      31.281  16.450 -23.890  0.00  0.00     0.004 C 
ENDBRANCH   2  17
TORSDOF 2
ENDMDL
MODEL 4
REMARK VINA RESULT:      -2.0      5.480      7.299
REMARK  2 active torsions:
REMARK  status: ('A' for Active; 'I' for Inactive)
REMARK       I    between atoms: C_2  and  N_1 
REMARK    1  A    between atoms: C_4  and  C_2 
REMARK    2  A    between atoms: C_6  and  C_7 
ROOT
ATOM      1  C   UNL d   1      32.438  22.414 -20.696  0.00  0.00     0.057 A 
ATOM      2  C   UNL d   1      32.759  21.200 -21.783  0.00  0.00    -0.023 A 
ATOM      3  C   UNL d   1      32.006  21.703 -20.659  0.00  0.00     0.004 A 
ATOM      4  C   UNL d   1      33.018  22.531 -21.255  0.00  0.00     0.004 A 
ATOM      5  C   UNL d   1      32.178  21.083 -21.223  0.00  0.00    -0.004 A 
ATOM      6  C   UNL d   1      33.191  21.911 -21.820  0.00  0.00    -0.004 A 
ENDROOT
BRANCH   1   7
ATOM      7  C   UNL d   1      32.279  23.015 -20.159  0.00  0.00     0.267 C 
ATOM      8  N   UNL d   1      32.531  22.930 -19.365  0.00  0.00    -0.240 N 
ATOM      9  C   UNL d   1      32.941  22.246 -19.114  0.00  0.00     0.267 A 
ATOM     10  C   UNL d   1      32.332  23.580 -18.890  0.00  0.00     0.086 A 
ATOM     11  O   UNL d   1      33.080  21.637 -19.741  0.00  0.00    -0.267 OA
ATOM     12  C   UNL d   1      33.241  22.036 -18.377  0.00  0.00     0.061 A 
ATOM     13  C   UNL d   1      33.196  22.505 -17.660  0.00  0.00     0.005 A 
ATOM     14  C   UNL d   1      32.877  23.195 -17.558  0.00  0.00     0.002 A 
ATOM     15  C   UNL d   1      32.485  23.697 -18.088  0.00  0.00     0.019 A 
ATOM     16  O   UNL d   1      31.884  23.682 -20.387  0.00  0.00    -0.267 OA
ENDBRANCH   1   7
BRANCH   2  17
ATOM     17  C   UNL d   1      32.917  20.596 -22.320  0.00  0.00     0.019 C 
ATOM     18  C   UNL d   1      33.190  21.142 -22.869  0.00  0.00     0.004 C 
ATOM     19  C   UNL d   1      33.072  19.988 -22.854  0.00  0.00     0.004 C 
ATOM     20  C   UNL d   1      32.642  20.046 -21.768  0.00  0.00     0.004 C 
ENDBRANCH   2  17
TORSDOF 2
ENDMDL
MODEL 5
REMARK VINA RESULT:      -1.2      2.265      4.326
REMARK  2 active torsions:
REMARK  status: ('A' for Active; 'I' for Inactive)
REMARK       I    between atoms: C_2  and  N_1 
REMARK    1  A    between atoms: C_4  and  C_2 
REMARK    2  A    between atoms: C_6  and  C_7 
ROOT
ATOM      1  C   UNL d   1      32.598  18.312 -23.341  0.00  0.00     0.057 A 
ATOM      2  C   UNL d   1      32.269  16.877 -24.111  0.00  0.00    -0.023 A 
ATOM      3  C   UNL d   1      31.808  18.059 -23.419  0.00  0.00     0.004 A 
ATOM      4  C   UNL d   1      33.218  17.872 -23.634  0.00  0.00     0.004 A 
ATOM      5  C   UNL d   1      31.648  17.318 -23.817  0.00  0.00    -0.004 A 
ATOM      6  C   UNL d   1      33.057  17.131 -24.032  0.00  0.00    -0.004 A 
ENDROOT
BRANCH   1   7
ATOM      7  C   UNL d   1      32.761  19.021 -22.960  0.00  0.00     0.267 C 
ATOM      8  N   UNL d   1      32.891  19.710 -23.418  0.00  0.00    -0.240 N 
ATOM      9  C   UNL d   1      32.858  19.685 -24.253  0.00  0.00     0.267 A 
ATOM     10  C   UNL d   1      33.049  20.381 -22.957  0.00  0.00     0.086 A 
ATOM     11  O   UNL d   1      32.678  18.891 -24.601  0.00  0.00    -0.267 OA
ATOM     12  C   UNL d   1      32.964  20.276 -24.816  0.00  0.00     0.061 A 
ATOM     13  C   UNL d   1      33.143  21.099 -24.658  0.00  0.00     0.005 A 
ATOM     14  C   UNL d   1      33.240  21.447 -23.980  0.00  0.00     0.002 A 
ATOM     15  C   UNL d   1      33.204  21.152 -23.207  0.00  0.00     0.019 A 
ATOM     16  O   UNL d   1      32.797  19.061 -22.154  0.00  0.00    -0.267 OA
ENDBRANCH   1   7
BRANCH   2  17
ATOM     17  C   UNL d   1      32.102  16.166 -24.492  0.00  0.00     0.019 C 
ATOM     18  C   UNL d   1      31.343  16.426 -24.666  0.00  0.00     0.004 C 
ATOM     19  C   UNL d   1      31.941  15.453 -24.872  0.00  0.00     0.004 C 
ATOM     20  C   UNL d   1      32.866  15.905 -24.317  0.00  0.00     0.004 C 
ENDBRANCH   2  17
TORSDOF 2
ENDMDL
MODEL 6
REMARK VINA RESULT:      -1.2      3.593      5.153
REMARK  2 active torsions:
REMARK  status: ('A' for Active; 'I' for Inactive)
REMARK       I    between atoms: C_2  and  N_1 
REMARK    1  A    between atoms: C_4  and  C_2 
REMARK    2  A    between atoms: C_6  and  C_7 
ROOT
ATOM      1  C   UNL d   1      32.832  20.483 -21.757  0.00  0.00     0.057 A 
ATOM      2  C   UNL d   1      32.466  22.036 -21.296  0.00  0.00    -0.023 A 
ATOM      3  C   UNL d   1      33.241  21.121 -22.101  0.00  0.00     0.004 A 
ATOM      4  C   UNL d   1      32.253  20.599 -21.196  0.00  0.00     0.004 A 
ATOM      5  C   UNL d   1      33.046  21.918 -21.857  0.00  0.00    -0.004 A 
ATOM      6  C   UNL d   1      32.058  21.397 -20.952  0.00  0.00    -0.004 A 
ENDROOT
BRANCH   1   7
ATOM      7  C   UNL d   1      33.013  19.715 -21.985  0.00  0.00     0.267 C 
ATOM      8  N   UNL d   1      32.992  19.514 -22.798  0.00  0.00    -0.240 N 
ATOM      9  C   UNL d   1      32.791  20.082 -23.377  0.00  0.00     0.267 A 
ATOM     10  C   UNL d   1      33.187  18.721 -22.941  0.00  0.00     0.086 A 
ATOM     11  O   UNL d   1      32.607  20.891 -23.066  0.00  0.00    -0.267 OA
ATOM     12  C   UNL d   1      32.733  20.023 -24.195  0.00  0.00     0.061 A 
ATOM     13  C   UNL d   1      32.875  19.318 -24.662  0.00  0.00     0.005 A 
ATOM     14  C   UNL d   1      33.080  18.618 -24.424  0.00  0.00     0.002 A 
ATOM     15  C   UNL d   1      33.226  18.323 -23.663  0.00  0.00     0.019 A 
ATOM     16  O   UNL d   1      33.209  19.154 -21.437  0.00  0.00    -0.267 OA
ENDBRANCH   1   7
BRANCH   2  17
ATOM     17  C   UNL d   1      32.287  22.807 -21.069  0.00  0.00     0.019 C 
ATOM     18  C   UNL d   1      32.103  23.003 -21.845  0.00  0.00     0.004 C 
ATOM     19  C   UNL d   1      32.109  23.577 -20.837  0.00  0.00     0.004 C 
ATOM     20  C   UNL d   1      32.472  22.610 -20.288  0.00  0.00     0.004 C 
ENDBRANCH   2  17
TORSDOF 2
ENDMDL
MODEL 7
REMARK VINA RESULT:      -1.2      5.801      7.494
REMARK  2 active torsions:
REMARK  status: ('A' for Active; 'I' for Inactive)
REMARK       I    between atoms: C_2  and  N_1 
REMARK    1  A    between atoms: C_4  and  C_2 
REMARK    2  A    between atoms: C_6  and  C_7 
ROOT
ATOM      1  C   UNL d   1      32.504  22.969 -20.305  0.00  0.00     0.057 A 
ATOM      2  C   UNL d   1      32.488  23.225 -18.664  0.00  0.00    -0.023 A 
ATOM      3  C   UNL d   1      32.027  22.490 -19.819  0.00  0.00     0.004 A 
ATOM      4  C   UNL d   1      32.967  23.563 -19.996  0.00  0.00     0.004 A 
ATOM      5  C   UNL d   1      32.025  22.629 -18.974  0.00  0.00    -0.004 A 
ATOM      6  C   UNL d   1      32.965  23.702 -19.151  0.00  0.00    -0.004 A 
ENDROOT
BRANCH   1   7
ATOM      7  C   UNL d   1      32.512  22.843 -21.117  0.00  0.00     0.267 C 
ATOM      8  N   UNL d   1      32.726  22.089 -21.411  0.00  0.00    -0.240 N 
ATOM      9  C   UNL d   1      32.931  21.466 -20.892  0.00  0.00     0.267 A 
ATOM     10  C   UNL d   1      32.709  22.046 -22.239  0.00  0.00     0.086 A 
ATOM     11  O   UNL d   1      32.902  21.667 -20.030  0.00  0.00    -0.267 OA
ATOM     12  C   UNL d   1      33.157  20.689 -21.042  0.00  0.00     0.061 A 
ATOM     13  C   UNL d   1      33.237  20.327 -21.815  0.00  0.00     0.005 A 
ATOM     14  C   UNL d   1      33.119  20.639 -22.506  0.00  0.00     0.002 A 
ATOM     15  C   UNL d   1      32.883  21.403 -22.725  0.00  0.00     0.019 A 
ATOM     16  O   UNL d   1      32.317  23.435 -21.631  0.00  0.00    -0.267 OA
ENDBRANCH   1   7
BRANCH   2  17
ATOM     17  C   UNL d   1      32.478  23.349 -17.850  0.00  0.00     0.019 C 
ATOM     18  C   UNL d   1      33.236  23.041 -17.783  0.00  0.00     0.004 C 
ATOM     19  C   UNL d   1      32.463  23.476 -17.036  0.00  0.00     0.004 C 
ATOM     20  C   UNL d   1      31.715  23.659 -17.917  0.00  0.00     0.004 C 
ENDBRANCH   2  17
TORSDOF 2
ENDMDL
MODEL 8
REMARK VINA RESULT:      -0.9      1.093      1.461
REMARK  2 active torsions:
REMARK  status: ('A' for Active; 'I' for Inactive)
REMARK       I    between atoms: C_2  and  N_1 
REMARK    1  A    between atoms: C_4  and  C_2 
REMARK    2  A    between atoms: C_6  and  C_7 
ROOT
ATOM      1  C   UNL d   1      30.628  16.343 -23.607  0.00  0.00     0.057 A 
ATOM      2  C   UNL d   1      31.940  17.037 -24.354  0.00  0.00    -0.023 A 
ATOM      3  C   UNL d   1      31.119  15.878 -24.093  0.00  0.00     0.004 A 
ATOM      4  C   UNL d   1      30.775  17.135 -23.487  0.00  0.00     0.004 A 
ATOM      5  C   UNL d   1      31.793  16.244 -24.474  0.00  0.00    -0.004 A 
ATOM      6  C   UNL d   1      31.449  17.501 -23.868  0.00  0.00    -0.004 A 
ENDROOT
BRANCH   1   7
ATOM      7  C   UNL d   1      29.980  16.001 -23.238  0.00  0.00     0.267 C 
ATOM      8  N   UNL d   1      29.252  15.955 -23.649  0.00  0.00    -0.240 N 
ATOM      9  C   UNL d   1      29.178  16.252 -24.427  0.00  0.00     0.267 A 
ATOM     10  C   UNL d   1      28.650  15.596 -23.206  0.00  0.00     0.086 A 
ATOM     11  O   UNL d   1      29.914  16.608 -24.768  0.00  0.00    -0.267 OA
ATOM     12  C   UNL d   1      28.534  16.272 -24.939  0.00  0.00     0.061 A 
ATOM     13  C   UNL d   1      27.748  15.972 -24.774  0.00  0.00     0.005 A 
ATOM     14  C   UNL d   1      27.487  15.634 -24.136  0.00  0.00     0.002 A 
ATOM     15  C   UNL d   1      27.867  15.454 -23.422  0.00  0.00     0.019 A 
ATOM     16  O   UNL d   1      30.036  15.710 -22.486  0.00  0.00    -0.267 OA
ENDBRANCH   1   7
BRANCH   2  17
ATOM     17  C   UNL d   1      32.591  17.378 -24.726  0.00  0.00     0.019 C 
ATOM     18  C   UNL d   1      32.863  16.637 -24.951  0.00  0.00     0.004 C 
ATOM     19  C   UNL d   1      33.241  17.724 -25.096  0.00  0.00     0.004 C 
ATOM     20  C   UNL d   1      32.317  18.124 -24.499  0.00  0.00     0.004 C 
ENDBRANCH   2  17
TORSDOF 2
ENDMDL
MODEL 9
REMARK VINA RESULT:      -0.7      3.816      5.578
REMARK  2 active torsions:
REMARK  status: ('A' for Active; 'I' for Inactive)
REMARK       I    between atoms: C_2  and  N_1 
REMARK    1  A    between atoms: C_4  and  C_2 
REMARK    2  A    between atoms: C_6  and  C_7 
ROOT
ATOM      1  C   UNL d   1      33.042  21.554 -22.407  0.00  0.00     0.057 A 
ATOM      2  C   UNL d   1      32.857  22.369 -20.972  0.00  0.00    -0.023 A 
ATOM      3  C   UNL d   1      32.750  21.150 -21.740  0.00  0.00     0.004 A 
ATOM      4  C   UNL d   1      33.241  22.343 -22.375  0.00  0.00     0.004 A 
ATOM      5  C   UNL d   1      32.658  21.579 -21.004  0.00  0.00    -0.004 A 
ATOM      6  C   UNL d   1      33.149  22.771 -21.640  0.00  0.00    -0.004 A 
ENDROOT
BRANCH   1   7
ATOM      7  C   UNL d   1      33.134  21.151 -23.117  0.00  0.00     0.267 C 
ATOM      8  N   UNL d   1      33.123  20.314 -23.116  0.00  0.00    -0.240 N 
ATOM      9  C   UNL d   1      33.020  19.885 -22.406  0.00  0.00     0.267 A 
ATOM     10  C   UNL d   1      33.221  19.987 -23.872  0.00  0.00     0.086 A 
ATOM     11  O   UNL d   1      32.927  20.378 -21.676  0.00  0.00    -0.267 OA
ATOM     12  C   UNL d   1      32.990  19.075 -22.263  0.00  0.00     0.061 A 
ATOM     13  C   UNL d   1      33.062  18.455 -22.851  0.00  0.00     0.005 A 
ATOM     14  C   UNL d   1      33.166  18.521 -23.608  0.00  0.00     0.002 A 
ATOM     15  C   UNL d   1      33.241  19.192 -24.090  0.00  0.00     0.019 A 
ATOM     16  O   UNL d   1      33.234  21.552 -23.812  0.00  0.00    -0.267 OA
ENDBRANCH   1   7
BRANCH   2  17
ATOM     17  C   UNL d   1      32.764  22.770 -20.259  0.00  0.00     0.019 C 
ATOM     18  C   UNL d   1      33.233  22.216 -19.874  0.00  0.00     0.004 C 
ATOM     19  C   UNL d   1      32.668  23.176 -19.548  0.00  0.00     0.004 C 
ATOM     20  C   UNL d   1      32.293  23.328 -20.646  0.00  0.00     0.004 C 
ENDBRANCH   2  17
TORSDOF 2
ENDMDL
