MODEL 1
REMARK VINA RESULT:      -1.6      0.000      0.000
REMARK  9 active torsions:
REMARK  status: ('A' for Active; 'I' for Inactive)
REMARK    1  A    between atoms: C_5  and  C_1 
REMARK    2  A    between atoms: N_6  and  C_2 
REMARK    3  A    between atoms: C_7  and  C_5 
REMARK    4  A    between atoms: C_8  and  C_5 
REMARK    5  A    between atoms: O_13  and  C_7 
REMARK    6  A    between atoms: C_17  and  N_12 
REMARK    7  A    between atoms: C_20  and  O_13 
REMARK    8  A    between atoms: C_21  and  C_17 
REMARK    9  A    between atoms: C_24  and  C_20 
ROOT
ATOM      1  C   UNL d   1     -40.463  14.893  20.740  0.00  0.00     0.117 A 
ATOM      2  C   UNL d   1     -40.562  14.394  21.385  0.00  0.00     0.145 A 
ATOM      3  N   UNL d   1     -39.984  14.356  21.978  0.00  0.00    -0.230 NA
ATOM      4  N   UNL d   1     -39.781  15.359  20.682  0.00  0.00    -0.241 NA
ATOM      5  C   UNL d   1     -39.302  14.823  21.920  0.00  0.00     0.100 A 
ATOM      6  C   UNL d   1     -39.205  15.326  21.264  0.00  0.00     0.099 A 
ATOM      7  C   UNL d   1     -38.722  14.788  22.509  0.00  0.00     0.021 A 
ATOM      8  C   UNL d   1     -38.530  15.787  21.208  0.00  0.00     0.021 A 
ATOM      9  C   UNL d   1     -38.050  15.253  22.444  0.00  0.00     0.002 A 
ATOM     10  C   UNL d   1     -37.946  15.757  21.793  0.00  0.00     0.002 A 
ENDROOT
BRANCH   2  11
ATOM     11  N   UNL d   1     -41.285  14.001  21.298  0.00  0.00    -0.189 NA
ATOM     12  C   UNL d   1     -41.818  13.602  21.360  0.00  0.00     0.076 A 
ATOM     13  C   UNL d   1     -42.686  13.517  20.800  0.00  0.00     0.093 A 
ATOM     14  N   UNL d   1     -43.029  12.867  21.303  0.00  0.00    -0.301 N 
ATOM     15  C   UNL d   1     -42.512  13.282  21.209  0.00  0.00     0.093 A 
ATOM     16  C   UNL d   1     -41.576  13.398  21.784  0.00  0.00     0.076 A 
BRANCH  14  17
ATOM     17  C   UNL d   1     -43.526  12.280  21.614  0.00  0.00     0.080 C 
BRANCH  17  18
ATOM     18  C   UNL d   1     -44.265  12.488  21.915  0.00  0.00     0.018 A 
ATOM     19  C   UNL d   1     -44.759  12.981  21.481  0.00  0.00     0.002 A 
ATOM     20  C   UNL d   1     -45.497  13.187  21.786  0.00  0.00     0.000 A 
ATOM     21  C   UNL d   1     -45.738  12.899  22.522  0.00  0.00     0.000 A 
ATOM     22  C   UNL d   1     -45.237  12.405  22.951  0.00  0.00     0.000 A 
ATOM     23  C   UNL d   1     -44.499  12.200  22.647  0.00  0.00     0.002 A 
ENDBRANCH  17  18
ENDBRANCH  14  17
ENDBRANCH   2  11
BRANCH   1  24
ATOM     24  C   UNL d   1     -41.123  14.811  20.248  0.00  0.00     0.104 C 
BRANCH  24  25
ATOM     25  C   UNL d   1     -41.129  14.457  19.492  0.00  0.00     0.303 C 
ATOM     26  O   UNL d   1     -41.507  13.733  19.380  0.00  0.00    -0.259 OA
BRANCH  25  27
ATOM     27  O   UNL d   1     -40.754  14.836  18.859  0.00  0.00    -0.271 OA
BRANCH  27  28
ATOM     28  C   UNL d   1     -40.785  14.510  18.102  0.00  0.00     0.126 C 
BRANCH  28  29
ATOM     29  C   UNL d   1     -40.469  14.919  17.460  0.00  0.00     0.025 C 
ATOM     30  C   UNL d   1     -40.859  15.578  17.162  0.00  0.00     0.002 C 
ATOM     31  C   UNL d   1     -39.762  14.665  17.116  0.00  0.00     0.002 C 
ENDBRANCH  28  29
ENDBRANCH  27  28
ENDBRANCH  25  27
ENDBRANCH  24  25
BRANCH  24  32
ATOM     32  C   UNL d   1     -41.773  15.138  20.632  0.00  0.00     0.129 C 
ATOM     33  N   UNL d   1     -42.050  15.919  20.558  0.00  0.00    -0.146 N 
ENDBRANCH  24  32
ENDBRANCH   1  24
TORSDOF 9
ENDMDL
MODEL 2
REMARK VINA RESULT:       0.3      3.929      8.107
REMARK  9 active torsions:
REMARK  status: ('A' for Active; 'I' for Inactive)
REMARK    1  A    between atoms: C_5  and  C_1 
REMARK    2  A    between atoms: N_6  and  C_2 
REMARK    3  A    between atoms: C_7  and  C_5 
REMARK    4  A    between atoms: C_8  and  C_5 
REMARK    5  A    between atoms: O_13  and  C_7 
REMARK    6  A    between atoms: C_17  and  N_12 
REMARK    7  A    between atoms: C_20  and  O_13 
REMARK    8  A    between atoms: C_21  and  C_17 
REMARK    9  A    between atoms: C_24  and  C_20 
ROOT
ATOM      1  C   UNL d   1     -48.684  12.889  22.372  0.00  0.00     0.117 A 
ATOM      2  C   UNL d   1     -48.215  12.343  22.768  0.00  0.00     0.145 A 
ATOM      3  N   UNL d   1     -48.564  11.729  23.202  0.00  0.00    -0.230 NA
ATOM      4  N   UNL d   1     -49.509  12.824  22.406  0.00  0.00    -0.241 NA
ATOM      5  C   UNL d   1     -49.389  11.664  23.237  0.00  0.00     0.100 A 
ATOM      6  C   UNL d   1     -49.860  12.219  22.833  0.00  0.00     0.099 A 
ATOM      7  C   UNL d   1     -49.741  11.052  23.669  0.00  0.00     0.021 A 
ATOM      8  C   UNL d   1     -50.676  12.153  22.868  0.00  0.00     0.021 A 
ATOM      9  C   UNL d   1     -50.558  10.995  23.698  0.00  0.00     0.002 A 
ATOM     10  C   UNL d   1     -51.035  11.545  23.298  0.00  0.00     0.002 A 
ENDROOT
BRANCH   2  11
ATOM     11  N   UNL d   1     -47.423  12.542  22.638  0.00  0.00    -0.189 NA
ATOM     12  C   UNL d   1     -46.755  12.557  22.603  0.00  0.00     0.076 A 
ATOM     13  C   UNL d   1     -46.100  13.265  22.225  0.00  0.00     0.093 A 
ATOM     14  N   UNL d   1     -45.369  12.798  22.428  0.00  0.00    -0.301 N 
ATOM     15  C   UNL d   1     -46.038  12.817  22.445  0.00  0.00     0.093 A 
ATOM     16  C   UNL d   1     -46.764  12.083  22.839  0.00  0.00     0.076 A 
BRANCH  14  17
ATOM     17  C   UNL d   1     -44.582  12.551  22.518  0.00  0.00     0.080 C 
BRANCH  17  18
ATOM     18  C   UNL d   1     -44.014  12.790  21.971  0.00  0.00     0.018 A 
ATOM     19  C   UNL d   1     -43.839  12.309  21.328  0.00  0.00     0.002 A 
ATOM     20  C   UNL d   1     -43.269  12.552  20.783  0.00  0.00     0.000 A 
ATOM     21  C   UNL d   1     -42.878  13.273  20.883  0.00  0.00     0.000 A 
ATOM     22  C   UNL d   1     -43.060  13.750  21.531  0.00  0.00     0.000 A 
ATOM     23  C   UNL d   1     -43.629  13.507  22.075  0.00  0.00     0.002 A 
ENDBRANCH  17  18
ENDBRANCH  14  17
ENDBRANCH   2  11
BRANCH   1  24
ATOM     24  C   UNL d   1     -48.186  13.429  21.993  0.00  0.00     0.104 C 
BRANCH  24  25
ATOM     25  C   UNL d   1     -48.094  14.234  22.194  0.00  0.00     0.303 C 
ATOM     26  O   UNL d   1     -47.440  14.654  21.919  0.00  0.00    -0.259 OA
BRANCH  25  27
ATOM     27  O   UNL d   1     -48.661  14.606  22.669  0.00  0.00    -0.271 OA
BRANCH  27  28
ATOM     28  C   UNL d   1     -48.840  15.403  22.556  0.00  0.00     0.126 C 
BRANCH  28  29
ATOM     29  C   UNL d   1     -49.525  15.725  22.881  0.00  0.00     0.025 C 
ATOM     30  C   UNL d   1     -50.156  15.922  22.393  0.00  0.00     0.002 C 
ATOM     31  C   UNL d   1     -49.577  15.850  23.696  0.00  0.00     0.002 C 
ENDBRANCH  28  29
ENDBRANCH  27  28
ENDBRANCH  25  27
ENDBRANCH  24  25
BRANCH  24  32
ATOM     32  C   UNL d   1     -47.795  13.037  21.384  0.00  0.00     0.129 C 
ATOM     33  N   UNL d   1     -48.144  12.694  20.712  0.00  0.00    -0.146 N 
ENDBRANCH  24  32
ENDBRANCH   1  24
TORSDOF 9
ENDMDL
MODEL 3
REMARK VINA RESULT:       0.5      4.082      6.901
REMARK  9 active torsions:
REMARK  status: ('A' for Active; 'I' for Inactive)
REMARK    1  A    between atoms: C_5  and  C_1 
REMARK    2  A    between atoms: N_6  and  C_2 
REMARK    3  A    between atoms: C_7  and  C_5 
REMARK    4  A    between atoms: C_8  and  C_5 
REMARK    5  A    between atoms: O_13  and  C_7 
REMARK    6  A    between atoms: C_17  and  N_12 
REMARK    7  A    between atoms: C_20  and  O_13 
REMARK    8  A    between atoms: C_21  and  C_17 
REMARK    9  A    between atoms: C_24  and  C_20 
ROOT
ATOM      1  C   UNL d   1     -47.457  13.672  22.552  0.00  0.00     0.117 A 
ATOM      2  C   UNL d   1     -47.810  13.005  22.874  0.00  0.00     0.145 A 
ATOM      3  N   UNL d   1     -48.636  12.956  22.937  0.00  0.00    -0.230 NA
ATOM      4  N   UNL d   1     -47.928  14.300  22.287  0.00  0.00    -0.241 NA
ATOM      5  C   UNL d   1     -49.107  13.584  22.673  0.00  0.00     0.100 A 
ATOM      6  C   UNL d   1     -48.745  14.259  22.346  0.00  0.00     0.099 A 
ATOM      7  C   UNL d   1     -49.932  13.540  22.733  0.00  0.00     0.021 A 
ATOM      8  C   UNL d   1     -49.212  14.879  22.085  0.00  0.00     0.021 A 
ATOM      9  C   UNL d   1     -50.390  14.166  22.469  0.00  0.00     0.002 A 
ATOM     10  C   UNL d   1     -50.037  14.842  22.142  0.00  0.00     0.002 A 
ENDROOT
BRANCH   2  11
ATOM     11  N   UNL d   1     -47.212  12.474  23.088  0.00  0.00    -0.189 NA
ATOM     12  C   UNL d   1     -46.846  11.934  23.233  0.00  0.00     0.076 A 
ATOM     13  C   UNL d   1     -45.859  11.830  23.534  0.00  0.00     0.093 A 
ATOM     14  N   UNL d   1     -45.895  10.941  23.582  0.00  0.00    -0.301 N 
ATOM     15  C   UNL d   1     -46.231  11.504  23.445  0.00  0.00     0.093 A 
ATOM     16  C   UNL d   1     -47.279  11.650  23.123  0.00  0.00     0.076 A 
BRANCH  14  17
ATOM     17  C   UNL d   1     -45.703  10.142  23.692  0.00  0.00     0.080 C 
BRANCH  17  18
ATOM     18  C   UNL d   1     -44.940   9.878  23.522  0.00  0.00     0.018 A 
ATOM     19  C   UNL d   1     -44.830   9.139  23.182  0.00  0.00     0.002 A 
ATOM     20  C   UNL d   1     -44.066   8.879  23.013  0.00  0.00     0.000 A 
ATOM     21  C   UNL d   1     -43.416   9.360  23.185  0.00  0.00     0.000 A 
ATOM     22  C   UNL d   1     -43.535  10.101  23.526  0.00  0.00     0.000 A 
ATOM     23  C   UNL d   1     -44.298  10.360  23.695  0.00  0.00     0.002 A 
ENDBRANCH  17  18
ENDBRANCH  14  17
ENDBRANCH   2  11
BRANCH   1  24
ATOM     24  C   UNL d   1     -46.638  13.560  22.563  0.00  0.00     0.104 C 
BRANCH  24  25
ATOM     25  C   UNL d   1     -46.153  13.424  21.896  0.00  0.00     0.303 C 
ATOM     26  O   UNL d   1     -46.498  13.279  21.161  0.00  0.00    -0.259 OA
BRANCH  25  27
ATOM     27  O   UNL d   1     -45.330  13.435  21.978  0.00  0.00    -0.271 OA
BRANCH  27  28
ATOM     28  C   UNL d   1     -44.846  13.451  21.311  0.00  0.00     0.126 C 
BRANCH  28  29
ATOM     29  C   UNL d   1     -44.048  13.257  21.371  0.00  0.00     0.025 C 
ATOM     30  C   UNL d   1     -43.521  13.787  21.713  0.00  0.00     0.002 C 
ATOM     31  C   UNL d   1     -43.777  12.529  21.088  0.00  0.00     0.002 C 
ENDBRANCH  28  29
ENDBRANCH  27  28
ENDBRANCH  25  27
ENDBRANCH  24  25
BRANCH  24  32
ATOM     32  C   UNL d   1     -46.381  13.605  23.343  0.00  0.00     0.129 C 
ATOM     33  N   UNL d   1     -45.862  14.172  23.661  0.00  0.00    -0.146 N 
ENDBRANCH  24  32
ENDBRANCH   1  24
TORSDOF 9
ENDMDL
MODEL 4
REMARK VINA RESULT:       1.4      3.788      7.715
REMARK  9 active torsions:
REMARK  status: ('A' for Active; 'I' for Inactive)
REMARK    1  A    between atoms: C_5  and  C_1 
REMARK    2  A    between atoms: N_6  and  C_2 
REMARK    3  A    between atoms: C_7  and  C_5 
REMARK    4  A    between atoms: C_8  and  C_5 
REMARK    5  A    between atoms: O_13  and  C_7 
REMARK    6  A    between atoms: C_17  and  N_12 
REMARK    7  A    between atoms: C_20  and  O_13 
REMARK    8  A    between atoms: C_21  and  C_17 
REMARK    9  A    between atoms: C_24  and  C_20 
ROOT
ATOM      1  C   UNL d   1     -48.446  13.144  22.636  0.00  0.00     0.117 A 
ATOM      2  C   UNL d   1     -48.027  13.851  22.617  0.00  0.00     0.145 A 
ATOM      3  N   UNL d   1     -48.419  14.573  22.728  0.00  0.00    -0.230 NA
ATOM      4  N   UNL d   1     -49.264  13.154  22.767  0.00  0.00    -0.241 NA
ATOM      5  C   UNL d   1     -49.237  14.583  22.859  0.00  0.00     0.100 A 
ATOM      6  C   UNL d   1     -49.657  13.864  22.877  0.00  0.00     0.099 A 
ATOM      7  C   UNL d   1     -49.633  15.301  22.971  0.00  0.00     0.021 A 
ATOM      8  C   UNL d   1     -50.466  13.876  23.007  0.00  0.00     0.021 A 
ATOM      9  C   UNL d   1     -50.442  15.302  23.100  0.00  0.00     0.002 A 
ATOM     10  C   UNL d   1     -50.868  14.590  23.119  0.00  0.00     0.002 A 
ENDROOT
BRANCH   2  11
ATOM     11  N   UNL d   1     -47.231  13.674  22.478  0.00  0.00    -0.189 NA
ATOM     12  C   UNL d   1     -46.565  13.687  22.415  0.00  0.00     0.076 A 
ATOM     13  C   UNL d   1     -45.888  12.965  22.108  0.00  0.00     0.093 A 
ATOM     14  N   UNL d   1     -45.176  13.491  22.209  0.00  0.00    -0.301 N 
ATOM     15  C   UNL d   1     -45.842  13.442  22.260  0.00  0.00     0.093 A 
ATOM     16  C   UNL d   1     -46.591  14.188  22.583  0.00  0.00     0.076 A 
BRANCH  14  17
ATOM     17  C   UNL d   1     -44.401  13.786  22.228  0.00  0.00     0.080 C 
BRANCH  17  18
ATOM     18  C   UNL d   1     -43.810  13.410  21.792  0.00  0.00     0.018 A 
ATOM     19  C   UNL d   1     -43.433  13.814  21.184  0.00  0.00     0.002 A 
ATOM     20  C   UNL d   1     -42.843  13.434  20.750  0.00  0.00     0.000 A 
ATOM     21  C   UNL d   1     -42.633  12.655  20.927  0.00  0.00     0.000 A 
ATOM     22  C   UNL d   1     -43.017  12.257  21.539  0.00  0.00     0.000 A 
ATOM     23  C   UNL d   1     -43.606  12.636  21.972  0.00  0.00     0.002 A 
ENDBRANCH  17  18
ENDBRANCH  14  17
ENDBRANCH   2  11
BRANCH   1  24
ATOM     24  C   UNL d   1     -47.912  12.526  22.509  0.00  0.00     0.104 C 
BRANCH  24  25
ATOM     25  C   UNL d   1     -47.728  11.919  23.052  0.00  0.00     0.303 C 
ATOM     26  O   UNL d   1     -48.227  11.777  23.694  0.00  0.00    -0.259 OA
BRANCH  25  27
ATOM     27  O   UNL d   1     -47.046  11.463  22.943  0.00  0.00    -0.271 OA
BRANCH  27  28
ATOM     28  C   UNL d   1     -46.788  10.952  23.537  0.00  0.00     0.126 C 
BRANCH  28  29
ATOM     29  C   UNL d   1     -46.269  10.338  23.360  0.00  0.00     0.025 C 
ATOM     30  C   UNL d   1     -45.519  10.324  23.697  0.00  0.00     0.002 C 
ATOM     31  C   UNL d   1     -46.503   9.735  22.845  0.00  0.00     0.002 C 
ENDBRANCH  28  29
ENDBRANCH  27  28
ENDBRANCH  25  27
ENDBRANCH  24  25
BRANCH  24  32
ATOM     32  C   UNL d   1     -47.592  12.610  21.755  0.00  0.00     0.129 C 
ATOM     33  N   UNL d   1     -47.882  12.272  21.054  0.00  0.00    -0.146 N 
ENDBRANCH  24  32
ENDBRANCH   1  24
TORSDOF 9
ENDMDL
