MODEL 1
REMARK VINA RESULT:      45.9      0.000      0.000
REMARK  4 active torsions:
REMARK  status: ('A' for Active; 'I' for Inactive)
REMARK    1  A    between atoms: N_5  and  C_1 
REMARK    2  A    between atoms: N_8  and  C_3 
REMARK    3  A    between atoms: C_19  and  N_8 
REMARK    4  A    between atoms: C_21  and  C_19 
ROOT
ATOM      1  C   UNL d   1      14.754  13.305  -1.176  0.00  0.00     0.200 A 
ATOM      2  C   UNL d   1      15.231  13.663  -0.608  0.00  0.00     0.288 A 
ATOM      3  C   UNL d   1      14.399  13.757  -1.779  0.00  0.00     0.109 A 
ATOM      4  N   UNL d   1      15.358  14.484  -0.640  0.00  0.00    -0.270 N 
ATOM      5  C   UNL d   1      14.531  14.577  -1.803  0.00  0.00     0.036 A 
ATOM      6  C   UNL d   1      15.010  14.938  -1.234  0.00  0.00     0.069 A 
ATOM      7  O   UNL d   1      15.579  13.210  -0.014  0.00  0.00    -0.265 OA
ATOM      8  C   UNL d   1      15.836  14.843  -0.073  0.00  0.00     0.102 C 
ATOM      9  C   UNL d   1      14.183  15.031  -2.397  0.00  0.00     0.003 A 
ATOM     10  C   UNL d   1      15.139  15.751  -1.262  0.00  0.00     0.018 A 
ATOM     11  C   UNL d   1      14.314  15.846  -2.423  0.00  0.00     0.000 A 
ATOM     12  C   UNL d   1      14.791  16.205  -1.856  0.00  0.00     0.002 A 
ENDROOT
BRANCH   3  13
ATOM     13  N   UNL d   1      13.922  13.399  -2.346  0.00  0.00    -0.242 NA
BRANCH  13  14
ATOM     14  C   UNL d   1      13.997  13.607  -3.141  0.00  0.00     0.099 C 
BRANCH  14  15
ATOM     15  C   UNL d   1      13.669  13.128  -3.725  0.00  0.00     0.021 A 
ATOM     16  C   UNL d   1      13.910  13.209  -4.507  0.00  0.00     0.028 A 
ATOM     17  C   UNL d   1      13.582  12.730  -5.090  0.00  0.00     0.119 A 
ATOM     18  O   UNL d   1      13.707  12.683  -5.898  0.00  0.00    -0.300 OA
ATOM     19  C   UNL d   1      13.011  12.169  -4.891  0.00  0.00     0.119 A 
ATOM     20  C   UNL d   1      13.219  12.096  -6.205  0.00  0.00     0.304 A 
ATOM     21  O   UNL d   1      12.788  11.779  -5.576  0.00  0.00    -0.300 OA
ATOM     22  C   UNL d   1      12.769  12.089  -4.100  0.00  0.00     0.026 A 
ATOM     23  C   UNL d   1      13.099  12.568  -3.517  0.00  0.00     0.004 A 
ENDBRANCH  14  15
ENDBRANCH  13  14
ENDBRANCH   3  13
BRANCH   1  24
ATOM     24  N   UNL d   1      14.621  12.486  -1.151  0.00  0.00    -0.107 N 
ATOM     25  O   UNL d   1      15.209  11.968  -1.407  0.00  0.00    -0.531 OA
ATOM     26  O   UNL d   1      13.902  12.188  -0.870  0.00  0.00    -0.531 OA
ENDBRANCH   1  24
TORSDOF 4
ENDMDL
