MODEL 1
REMARK VINA RESULT:      -6.6      0.000      0.000
REMARK  1 active torsions:
REMARK  status: ('A' for Active; 'I' for Inactive)
REMARK    1  A    between atoms: C_12  and  C_8 
ROOT
ATOM      1  N   UNL d   1      57.896  -0.697  30.394  0.00  0.00    -0.123 N 
ATOM      2  N   UNL d   1      58.727   0.177  29.642  0.00  0.00    -0.180 NA
ATOM      3  C   UNL d   1      58.196   0.057  30.246  0.00  0.00     0.217 A 
ATOM      4  N   UNL d   1      58.136  -1.337  29.927  0.00  0.00    -0.141 NA
ATOM      5  N   UNL d   1      57.360  -0.832  31.000  0.00  0.00    -0.146 NA
ATOM      6  C   UNL d   1      58.970  -0.447  29.176  0.00  0.00     0.300 A 
ATOM      7  C   UNL d   1      58.674  -1.204  29.319  0.00  0.00     0.161 A 
ATOM      8  C   UNL d   1      57.116  -0.190  31.473  0.00  0.00     0.110 A 
ATOM      9  S   UNL d   1      57.951   0.682  30.715  0.00  0.00    -0.045 SA
ATOM     10  C   UNL d   1      57.411   0.567  31.330  0.00  0.00     0.059 A 
ATOM     11  O   UNL d   1      59.510  -0.323  28.563  0.00  0.00    -0.263 OA
ATOM     12  C   UNL d   1      58.919  -1.837  28.848  0.00  0.00     0.028 C 
ENDROOT
BRANCH   8  13
ATOM     13  C   UNL d   1      56.578  -0.314  32.083  0.00  0.00     0.020 A 
ATOM     14  C   UNL d   1      56.222   0.334  32.452  0.00  0.00     0.002 A 
ATOM     15  C   UNL d   1      55.681   0.210  33.066  0.00  0.00     0.000 A 
ATOM     16  C   UNL d   1      55.500  -0.558  33.307  0.00  0.00     0.000 A 
ATOM     17  C   UNL d   1      55.860  -1.202  32.934  0.00  0.00     0.000 A 
ATOM     18  C   UNL d   1      56.398  -1.078  32.323  0.00  0.00     0.002 A 
ENDBRANCH   8  13
TORSDOF 1
ENDMDL
MODEL 2
REMARK VINA RESULT:      -5.7      1.781      3.833
REMARK  1 active torsions:
REMARK  status: ('A' for Active; 'I' for Inactive)
REMARK    1  A    between atoms: C_12  and  C_8 
ROOT
ATOM      1  N   UNL d   1      56.878  -0.609  31.772  0.00  0.00    -0.123 N 
ATOM      2  N   UNL d   1      56.595   0.280  32.844  0.00  0.00    -0.180 NA
ATOM      3  C   UNL d   1      56.976   0.120  32.144  0.00  0.00     0.217 A 
ATOM      4  N   UNL d   1      56.390  -1.185  32.112  0.00  0.00    -0.141 NA
ATOM      5  N   UNL d   1      57.256  -0.782  31.065  0.00  0.00    -0.146 NA
ATOM      6  C   UNL d   1      56.112  -0.281  33.188  0.00  0.00     0.300 A 
ATOM      7  C   UNL d   1      56.010  -1.013  32.821  0.00  0.00     0.161 A 
ATOM      8  C   UNL d   1      57.749  -0.205  30.719  0.00  0.00     0.110 A 
ATOM      9  S   UNL d   1      57.461   0.682  31.798  0.00  0.00    -0.045 SA
ATOM     10  C   UNL d   1      57.852   0.527  31.085  0.00  0.00     0.059 A 
ATOM     11  O   UNL d   1      55.726  -0.118  33.900  0.00  0.00    -0.263 OA
ATOM     12  C   UNL d   1      55.521  -1.582  33.167  0.00  0.00     0.028 C 
ENDROOT
BRANCH   8  13
ATOM     13  C   UNL d   1      58.134  -0.368  30.010  0.00  0.00     0.020 A 
ATOM     14  C   UNL d   1      58.135   0.196  29.407  0.00  0.00     0.002 A 
ATOM     15  C   UNL d   1      58.521   0.033  28.693  0.00  0.00     0.000 A 
ATOM     16  C   UNL d   1      58.902  -0.691  28.587  0.00  0.00     0.000 A 
ATOM     17  C   UNL d   1      58.897  -1.252  29.195  0.00  0.00     0.000 A 
ATOM     18  C   UNL d   1      58.513  -1.089  29.905  0.00  0.00     0.002 A 
ENDBRANCH   8  13
TORSDOF 1
ENDMDL
MODEL 3
REMARK VINA RESULT:      -3.7      9.378      9.955
REMARK  1 active torsions:
REMARK  status: ('A' for Active; 'I' for Inactive)
REMARK    1  A    between atoms: C_12  and  C_8 
ROOT
ATOM      1  N   UNL d   1      59.610  -8.836  34.405  0.00  0.00    -0.123 N 
ATOM      2  N   UNL d   1      60.844  -9.078  35.068  0.00  0.00    -0.180 NA
ATOM      3  C   UNL d   1      60.350  -9.201  34.434  0.00  0.00     0.217 A 
ATOM      4  N   UNL d   1      59.368  -8.342  35.023  0.00  0.00    -0.141 NA
ATOM      5  N   UNL d   1      59.102  -8.952  33.771  0.00  0.00    -0.146 NA
ATOM      6  C   UNL d   1      60.615  -8.593  35.682  0.00  0.00     0.300 A 
ATOM      7  C   UNL d   1      59.877  -8.225  35.659  0.00  0.00     0.161 A 
ATOM      8  C   UNL d   1      59.343  -9.449  33.146  0.00  0.00     0.110 A 
ATOM      9  S   UNL d   1      60.578  -9.688  33.817  0.00  0.00    -0.045 SA
ATOM     10  C   UNL d   1      60.081  -9.817  33.169  0.00  0.00     0.059 A 
ATOM     11  O   UNL d   1      61.118  -8.469  36.325  0.00  0.00    -0.263 OA
ATOM     12  C   UNL d   1      59.643  -7.733  36.280  0.00  0.00     0.028 C 
ENDROOT
BRANCH   8  13
ATOM     13  C   UNL d   1      58.841  -9.572  32.506  0.00  0.00     0.020 A 
ATOM     14  C   UNL d   1      59.159  -9.669  31.750  0.00  0.00     0.002 A 
ATOM     15  C   UNL d   1      58.655  -9.792  31.106  0.00  0.00     0.000 A 
ATOM     16  C   UNL d   1      57.839  -9.818  31.220  0.00  0.00     0.000 A 
ATOM     17  C   UNL d   1      57.526  -9.719  31.979  0.00  0.00     0.000 A 
ATOM     18  C   UNL d   1      58.028  -9.597  32.620  0.00  0.00     0.002 A 
ENDBRANCH   8  13
TORSDOF 1
ENDMDL
