MODEL 1
REMARK VINA RESULT:      -2.0      0.000      0.000
REMARK  6 active torsions:
REMARK  status: ('A' for Active; 'I' for Inactive)
REMARK    1  A    between atoms: C_7  and  S_1 
REMARK    2  A    between atoms: N_9  and  S_1 
REMARK    3  A    between atoms: C_20  and  N_2 
REMARK    4  A    between atoms: C_10  and  N_9 
REMARK    5  A    between atoms: O_24  and  C_13 
REMARK    6  A    between atoms: O_25  and  C_19 
ROOT
ATOM      1  N   UNL d   1      33.004  21.888 -20.694  0.00  0.00    -0.273 N 
ATOM      2  C   UNL d   1      33.116  22.697 -21.395  0.00  0.00     0.265 A 
ATOM      3  C   UNL d   1      32.992  21.235 -21.173  0.00  0.00     0.067 A 
ATOM      4  C   UNL d   1      33.068  21.490 -21.949  0.00  0.00     0.021 A 
ATOM      5  C   UNL d   1      33.140  22.297 -22.118  0.00  0.00     0.058 A 
ATOM      6  C   UNL d   1      33.001  20.122 -22.405  0.00  0.00     0.105 A 
ATOM      7  C   UNL d   1      33.074  20.946 -22.569  0.00  0.00     0.014 A 
ATOM      8  C   UNL d   1      32.920  20.431 -21.001  0.00  0.00     0.018 A 
ATOM      9  C   UNL d   1      32.925  19.867 -21.629  0.00  0.00     0.014 A 
ATOM     10  O   UNL d   1      33.176  23.527 -21.380  0.00  0.00    -0.267 OA
ATOM     11  C   UNL d   1      33.216  22.551 -22.890  0.00  0.00     0.005 A 
ATOM     12  C   UNL d   1      33.150  21.200 -23.341  0.00  0.00     0.001 A 
ATOM     13  C   UNL d   1      33.222  22.006 -23.520  0.00  0.00     0.000 A 
ENDROOT
BRANCH   6  14
ATOM     14  S   UNL d   1      33.006  19.574 -23.026  0.00  0.00     0.285 S 
ATOM     15  O   UNL d   1      33.241  18.978 -22.500  0.00  0.00    -0.198 OA
ATOM     16  O   UNL d   1      32.771  20.170 -23.557  0.00  0.00    -0.198 OA
BRANCH  14  17
ATOM     17  N   UNL d   1      33.011  19.034 -23.646  0.00  0.00    -0.156 NA
BRANCH  17  18
ATOM     18  C   UNL d   1      32.731  18.276 -23.528  0.00  0.00     0.116 A 
ATOM     19  C   UNL d   1      32.091  18.018 -23.951  0.00  0.00     0.114 A 
ATOM     20  C   UNL d   1      31.807  17.259 -23.837  0.00  0.00     0.050 A 
ATOM     21  C   UNL d   1      32.150  16.750 -23.305  0.00  0.00     0.096 A 
ATOM     22  C   UNL d   1      32.815  17.037 -22.873  0.00  0.00     0.026 A 
ATOM     23  C   UNL d   1      33.101  17.793 -22.985  0.00  0.00     0.024 A 
BRANCH  19  24
ATOM     24  O   UNL d   1      31.723  18.527 -24.505  0.00  0.00    -0.327 OA
ATOM     25  C   UNL d   1      31.228  18.210 -25.097  0.00  0.00     0.181 C 
ENDBRANCH  19  24
BRANCH  21  26
ATOM     26  O   UNL d   1      31.864  15.966 -23.179  0.00  0.00    -0.328 OA
ATOM     27  C   UNL d   1      32.056  15.571 -22.461  0.00  0.00     0.181 C 
ENDBRANCH  21  26
ENDBRANCH  17  18
ENDBRANCH  14  17
ENDBRANCH   6  14
BRANCH   1  28
ATOM     28  C   UNL d   1      32.936  21.796 -19.869  0.00  0.00     0.083 C 
ATOM     29  C   UNL d   1      32.845  22.449 -19.390  0.00  0.00     0.021 C 
ENDBRANCH   1  28
TORSDOF 6
ENDMDL
