MODEL 1
REMARK VINA RESULT:      83.3      0.000      0.000
REMARK  6 active torsions:
REMARK  status: ('A' for Active; 'I' for Inactive)
REMARK    1  A    between atoms: C_12  and  N_3 
REMARK    2  A    between atoms: C_8  and  C_4 
REMARK    3  A    between atoms: O_23  and  C_11 
REMARK    4  A    between atoms: C_19  and  C_12 
REMARK    5  A    between atoms: N_13  and  C_19 
REMARK    6  A    between atoms: O_26  and  C_17 
ROOT
ATOM      1  C   UNL d   1      44.881 -16.446  38.236  0.00  0.00     0.083 A 
ATOM      2  C   UNL d   1      44.133 -16.746  38.412  0.00  0.00     0.161 A 
ATOM      3  N   UNL d   1      44.026 -15.920  37.372  0.00  0.00    -0.270 N 
ATOM      4  C   UNL d   1      44.809 -15.942  37.599  0.00  0.00     0.074 A 
ATOM      5  C   UNL d   1      43.599 -16.419  37.873  0.00  0.00     0.288 A 
ATOM      6  C   UNL d   1      45.534 -16.674  38.683  0.00  0.00     0.201 A 
ATOM      7  O   UNL d   1      44.038 -17.275  39.035  0.00  0.00    -0.302 OA
ATOM      8  C   UNL d   1      45.438 -17.204  39.307  0.00  0.00     0.064 A 
ATOM      9  C   UNL d   1      44.690 -17.504  39.483  0.00  0.00     0.103 A 
ATOM     10  O   UNL d   1      42.789 -16.566  37.846  0.00  0.00    -0.264 OA
ATOM     11  O   UNL d   1      46.282 -16.374  38.507  0.00  0.00    -0.286 OA
ATOM     12  C   UNL d   1      46.087 -17.428  39.748  0.00  0.00     0.035 A 
ATOM     13  C   UNL d   1      44.594 -18.033  40.106  0.00  0.00     0.027 A 
ATOM     14  C   UNL d   1      45.994 -17.961  40.378  0.00  0.00     0.140 A 
ATOM     15  C   UNL d   1      45.242 -18.257  40.548  0.00  0.00     0.032 A 
ATOM     16  F   UNL d   1      46.646 -18.190  40.825  0.00  0.00    -0.204 F 
ENDROOT
BRANCH   4  17
ATOM     17  C   UNL d   1      45.423 -15.518  37.237  0.00  0.00     0.041 A 
ATOM     18  C   UNL d   1      45.539 -14.721  37.413  0.00  0.00     0.118 A 
ATOM     19  C   UNL d   1      46.149 -14.306  37.051  0.00  0.00     0.116 A 
ATOM     20  C   UNL d   1      46.647 -14.686  36.511  0.00  0.00     0.026 A 
ATOM     21  C   UNL d   1      46.530 -15.485  36.334  0.00  0.00     0.002 A 
ATOM     22  C   UNL d   1      45.917 -15.901  36.699  0.00  0.00     0.004 A 
BRANCH  18  23
ATOM     23  O   UNL d   1      45.043 -14.346  37.951  0.00  0.00    -0.326 OA
ATOM     24  C   UNL d   1      45.290 -13.605  38.230  0.00  0.00     0.181 C 
ENDBRANCH  18  23
BRANCH  19  25
ATOM     25  O   UNL d   1      46.266 -13.507  37.228  0.00  0.00    -0.326 OA
ATOM     26  C   UNL d   1      46.507 -12.985  36.639  0.00  0.00     0.181 C 
ENDBRANCH  19  25
ENDBRANCH   4  17
BRANCH   3  27
ATOM     27  C   UNL d   1      43.704 -15.482  36.752  0.00  0.00     0.102 C 
BRANCH  27  28
ATOM     28  C   UNL d   1      43.042 -15.759  36.341  0.00  0.00     0.100 C 
BRANCH  28  29
ATOM     29  N   UNL d   1      42.295 -15.443  36.494  0.00  0.00    -0.298 N 
ATOM     30  C   UNL d   1      42.224 -14.657  36.731  0.00  0.00     0.107 A 
ATOM     31  C   UNL d   1      41.486 -14.341  36.884  0.00  0.00     0.142 A 
ATOM     32  O   UNL d   1      40.809 -14.815  36.799  0.00  0.00    -0.300 OA
ATOM     33  C   UNL d   1      40.880 -15.600  36.563  0.00  0.00     0.142 A 
ATOM     34  C   UNL d   1      41.625 -15.920  36.409  0.00  0.00     0.107 A 
ENDBRANCH  28  29
ENDBRANCH  27  28
ENDBRANCH   3  27
TORSDOF 6
ENDMDL
