MODEL 1
REMARK VINA RESULT:      80.7      0.000      0.000
REMARK  6 active torsions:
REMARK  status: ('A' for Active; 'I' for Inactive)
REMARK    1  A    between atoms: C_2  and  S_1 
REMARK    2  A    between atoms: N_4  and  S_1 
REMARK    3  A    between atoms: C_9  and  C_17 
REMARK       I    between atoms: N_20  and  C_9 
REMARK    4  A    between atoms: C_18  and  C_25 
REMARK    5  A    between atoms: C_24  and  N_20 
REMARK    6  A    between atoms: C_25  and  C_24 
ROOT
ATOM      1  N   UNL d   1      59.406  49.090  51.248  0.00  0.00    -0.229 N 
ATOM      2  C   UNL d   1      59.432  48.311  50.965  0.00  0.00     0.092 A 
ATOM      3  C   UNL d   1      60.082  49.558  51.213  0.00  0.00     0.092 A 
ATOM      4  C   UNL d   1      60.812  48.482  50.616  0.00  0.00     0.061 A 
ATOM      5  C   UNL d   1      60.783  49.256  50.899  0.00  0.00     0.025 A 
ATOM      6  C   UNL d   1      60.133  48.009  50.650  0.00  0.00     0.025 A 
ENDROOT
BRANCH   1   7
ATOM      7  S   UNL d   1      58.702  49.393  51.564  0.00  0.00     0.273 S 
ATOM      8  O   UNL d   1      58.004  49.695  51.878  0.00  0.00    -0.200 OA
ATOM      9  O   UNL d   1      59.007  49.306  52.326  0.00  0.00    -0.200 OA
BRANCH   7  10
ATOM     10  C   UNL d   1      58.396  49.481  50.799  0.00  0.00     0.125 A 
ATOM     11  C   UNL d   1      57.581  49.463  50.672  0.00  0.00     0.142 A 
ATOM     12  C   UNL d   1      57.277  49.550  49.911  0.00  0.00     0.131 A 
ATOM     13  N   UNL d   1      56.948  49.367  51.196  0.00  0.00    -0.101 NA
ATOM     14  N   UNL d   1      56.453  49.508  49.959  0.00  0.00    -0.102 NA
ATOM     15  C   UNL d   1      57.785  49.656  49.270  0.00  0.00     0.023 A 
ATOM     16  O   UNL d   1      56.248  49.396  50.746  0.00  0.00    -0.106 OA
ATOM     17  C   UNL d   1      58.608  49.675  49.393  0.00  0.00     0.002 A 
ATOM     18  C   UNL d   1      58.912  49.588  50.154  0.00  0.00     0.015 A 
ENDBRANCH   7  10
ENDBRANCH   1   7
BRANCH   4  19
ATOM     19  C   UNL d   1      61.511  48.187  50.305  0.00  0.00     0.279 C 
ATOM     20  O   UNL d   1      62.206  48.609  50.378  0.00  0.00    -0.265 OA
ATOM     21  N   UNL d   1      61.515  47.454  49.911  0.00  0.00    -0.206 NA
BRANCH  21  22
ATOM     22  C   UNL d   1      62.225  47.151  49.593  0.00  0.00     0.102 C 
BRANCH  22  23
ATOM     23  C   UNL d   1      62.206  46.629  48.948  0.00  0.00     0.021 C 
BRANCH  23  24
ATOM     24  C   UNL d   1      62.202  45.811  49.083  0.00  0.00     0.002 A 
ATOM     25  C   UNL d   1      62.908  45.404  49.166  0.00  0.00     0.000 A 
ATOM     26  C   UNL d   1      62.905  44.586  49.301  0.00  0.00     0.000 A 
ATOM     27  C   UNL d   1      62.195  44.177  49.352  0.00  0.00     0.000 A 
ATOM     28  C   UNL d   1      61.476  44.586  49.268  0.00  0.00     0.000 A 
ATOM     29  C   UNL d   1      61.480  45.404  49.133  0.00  0.00     0.000 A 
ENDBRANCH  23  24
ENDBRANCH  22  23
ENDBRANCH  21  22
ENDBRANCH   4  19
TORSDOF 6
ENDMDL
