MODEL 1
REMARK VINA RESULT:      -3.3      0.000      0.000
REMARK  3 active torsions:
REMARK  status: ('A' for Active; 'I' for Inactive)
REMARK    1  A    between atoms: C_7  and  C_1 
REMARK    2  A    between atoms: O_14  and  C_7 
REMARK    3  A    between atoms: C_17  and  O_14 
ROOT
ATOM      1  C   UNL d   1      32.246  17.407 -23.597  0.00  0.00     0.127 A 
ATOM      2  C   UNL d   1      32.481  16.703 -23.250  0.00  0.00     0.305 A 
ATOM      3  C   UNL d   1      31.502  17.461 -23.948  0.00  0.00     0.013 A 
ATOM      4  C   UNL d   1      30.992  16.813 -23.953  0.00  0.00     0.023 A 
ATOM      5  O   UNL d   1      31.971  16.055 -23.254  0.00  0.00    -0.273 OA
ATOM      6  C   UNL d   1      31.227  16.109 -23.605  0.00  0.00     0.103 A 
ATOM      7  C   UNL d   1      30.262  16.873 -24.300  0.00  0.00     0.002 A 
ATOM      8  O   UNL d   1      33.240  16.656 -22.894  0.00  0.00    -0.259 OA
ATOM      9  C   UNL d   1      30.732  15.467 -23.606  0.00  0.00     0.025 A 
ATOM     10  C   UNL d   1      29.753  16.225 -24.304  0.00  0.00     0.000 A 
ATOM     11  C   UNL d   1      29.988  15.521 -23.957  0.00  0.00     0.002 A 
ATOM     12  C   UNL d   1      30.025  17.585 -24.651  0.00  0.00     0.000 A 
ATOM     13  C   UNL d   1      29.009  16.279 -24.656  0.00  0.00     0.000 A 
ATOM     14  C   UNL d   1      29.288  17.656 -25.005  0.00  0.00     0.000 A 
ATOM     15  C   UNL d   1      28.770  16.994 -25.009  0.00  0.00     0.000 A 
ENDROOT
BRANCH   1  16
ATOM     16  C   UNL d   1      32.765  18.081 -23.597  0.00  0.00     0.305 C 
ATOM     17  O   UNL d   1      33.241  18.237 -24.244  0.00  0.00    -0.259 OA
BRANCH  16  18
ATOM     18  O   UNL d   1      32.781  18.568 -22.949  0.00  0.00    -0.271 OA
BRANCH  18  19
ATOM     19  C   UNL d   1      33.043  19.346 -23.027  0.00  0.00     0.126 C 
ATOM     20  C   UNL d   1      33.150  19.882 -22.334  0.00  0.00     0.029 C 
ENDBRANCH  18  19
ENDBRANCH  16  18
ENDBRANCH   1  16
TORSDOF 3
ENDMDL
MODEL 2
REMARK VINA RESULT:      -2.9      1.768      3.967
REMARK  3 active torsions:
REMARK  status: ('A' for Active; 'I' for Inactive)
REMARK    1  A    between atoms: C_7  and  C_1 
REMARK    2  A    between atoms: O_14  and  C_7 
REMARK    3  A    between atoms: C_17  and  O_14 
ROOT
ATOM      1  C   UNL d   1      29.762  16.701 -24.432  0.00  0.00     0.127 A 
ATOM      2  C   UNL d   1      29.754  17.455 -24.751  0.00  0.00     0.305 A 
ATOM      3  C   UNL d   1      30.459  16.401 -24.109  0.00  0.00     0.013 A 
ATOM      4  C   UNL d   1      31.148  16.854 -24.106  0.00  0.00     0.023 A 
ATOM      5  O   UNL d   1      30.443  17.908 -24.748  0.00  0.00    -0.273 OA
ATOM      6  C   UNL d   1      31.140  17.608 -24.426  0.00  0.00     0.103 A 
ATOM      7  C   UNL d   1      31.830  16.552 -23.788  0.00  0.00     0.002 A 
ATOM      8  O   UNL d   1      29.039  17.754 -25.078  0.00  0.00    -0.259 OA
ATOM      9  C   UNL d   1      31.814  18.059 -24.427  0.00  0.00     0.025 A 
ATOM     10  C   UNL d   1      32.519  17.005 -23.785  0.00  0.00     0.000 A 
ATOM     11  C   UNL d   1      32.511  17.759 -24.104  0.00  0.00     0.002 A 
ATOM     12  C   UNL d   1      31.838  15.790 -23.465  0.00  0.00     0.000 A 
ATOM     13  C   UNL d   1      33.216  16.705 -23.463  0.00  0.00     0.000 A 
ATOM     14  C   UNL d   1      32.523  15.476 -23.140  0.00  0.00     0.000 A 
ATOM     15  C   UNL d   1      33.224  15.939 -23.138  0.00  0.00     0.000 A 
ENDROOT
BRANCH   1  16
ATOM     16  C   UNL d   1      29.056  16.226 -24.430  0.00  0.00     0.305 C 
ATOM     17  O   UNL d   1      28.838  15.805 -25.097  0.00  0.00    -0.259 OA
BRANCH  16  18
ATOM     18  O   UNL d   1      28.601  16.196 -23.760  0.00  0.00    -0.271 OA
BRANCH  18  19
ATOM     19  C   UNL d   1      28.039  15.599 -23.672  0.00  0.00     0.126 C 
ATOM     20  C   UNL d   1      27.429  15.612 -23.035  0.00  0.00     0.029 C 
ENDBRANCH  18  19
ENDBRANCH  16  18
ENDBRANCH   1  16
TORSDOF 3
ENDMDL
MODEL 3
REMARK VINA RESULT:      -2.5      1.457      3.801
REMARK  3 active torsions:
REMARK  status: ('A' for Active; 'I' for Inactive)
REMARK    1  A    between atoms: C_7  and  C_1 
REMARK    2  A    between atoms: O_14  and  C_7 
REMARK    3  A    between atoms: C_17  and  O_14 
ROOT
ATOM      1  C   UNL d   1      31.521  16.941 -23.868  0.00  0.00     0.127 A 
ATOM      2  C   UNL d   1      31.506  16.950 -24.687  0.00  0.00     0.305 A 
ATOM      3  C   UNL d   1      31.870  17.566 -23.459  0.00  0.00     0.013 A 
ATOM      4  C   UNL d   1      32.203  18.200 -23.867  0.00  0.00     0.023 A 
ATOM      5  O   UNL d   1      31.839  17.584 -25.095  0.00  0.00    -0.273 OA
ATOM      6  C   UNL d   1      32.188  18.209 -24.686  0.00  0.00     0.103 A 
ATOM      7  C   UNL d   1      32.544  18.811 -23.457  0.00  0.00     0.002 A 
ATOM      8  O   UNL d   1      31.149  16.309 -25.097  0.00  0.00    -0.259 OA
ATOM      9  C   UNL d   1      32.513  18.830 -25.094  0.00  0.00     0.025 A 
ATOM     10  C   UNL d   1      32.877  19.446 -23.866  0.00  0.00     0.000 A 
ATOM     11  C   UNL d   1      32.862  19.455 -24.684  0.00  0.00     0.002 A 
ATOM     12  C   UNL d   1      32.559  18.802 -22.630  0.00  0.00     0.000 A 
ATOM     13  C   UNL d   1      33.225  20.071 -23.456  0.00  0.00     0.000 A 
ATOM     14  C   UNL d   1      32.902  19.416 -22.207  0.00  0.00     0.000 A 
ATOM     15  C   UNL d   1      33.241  20.061 -22.624  0.00  0.00     0.000 A 
ENDROOT
BRANCH   1  16
ATOM     16  C   UNL d   1      31.180  16.291 -23.438  0.00  0.00     0.305 C 
ATOM     17  O   UNL d   1      31.639  15.649 -23.225  0.00  0.00    -0.259 OA
BRANCH  16  18
ATOM     18  O   UNL d   1      30.394  16.315 -23.243  0.00  0.00    -0.271 OA
BRANCH  18  19
ATOM     19  C   UNL d   1      30.058  15.696 -22.814  0.00  0.00     0.126 C 
ATOM     20  C   UNL d   1      29.192  15.527 -22.824  0.00  0.00     0.029 C 
ENDBRANCH  18  19
ENDBRANCH  16  18
ENDBRANCH   1  16
TORSDOF 3
ENDMDL
MODEL 4
REMARK VINA RESULT:      -1.9      1.784      3.579
REMARK  3 active torsions:
REMARK  status: ('A' for Active; 'I' for Inactive)
REMARK    1  A    between atoms: C_7  and  C_1 
REMARK    2  A    between atoms: O_14  and  C_7 
REMARK    3  A    between atoms: C_17  and  O_14 
ROOT
ATOM      1  C   UNL d   1      29.776  16.574 -24.460  0.00  0.00     0.127 A 
ATOM      2  C   UNL d   1      29.842  15.827 -24.790  0.00  0.00     0.305 A 
ATOM      3  C   UNL d   1      30.446  16.947 -24.158  0.00  0.00     0.013 A 
ATOM      4  C   UNL d   1      31.181  16.575 -24.185  0.00  0.00     0.023 A 
ATOM      5  O   UNL d   1      30.577  15.454 -24.816  0.00  0.00    -0.273 OA
ATOM      6  C   UNL d   1      31.247  15.828 -24.514  0.00  0.00     0.103 A 
ATOM      7  C   UNL d   1      31.836  16.949 -23.886  0.00  0.00     0.002 A 
ATOM      8  O   UNL d   1      29.154  15.453 -25.095  0.00  0.00    -0.259 OA
ATOM      9  C   UNL d   1      31.966  15.456 -24.544  0.00  0.00     0.025 A 
ATOM     10  C   UNL d   1      32.571  16.577 -23.912  0.00  0.00     0.000 A 
ATOM     11  C   UNL d   1      32.636  15.830 -24.241  0.00  0.00     0.002 A 
ATOM     12  C   UNL d   1      31.770  17.704 -23.553  0.00  0.00     0.000 A 
ATOM     13  C   UNL d   1      33.241  16.950 -23.610  0.00  0.00     0.000 A 
ATOM     14  C   UNL d   1      32.426  18.090 -23.248  0.00  0.00     0.000 A 
ATOM     15  C   UNL d   1      33.175  17.709 -23.276  0.00  0.00     0.000 A 
ENDROOT
BRANCH   1  16
ATOM     16  C   UNL d   1      29.022  16.966 -24.428  0.00  0.00     0.305 C 
ATOM     17  O   UNL d   1      28.804  17.494 -25.014  0.00  0.00    -0.259 OA
BRANCH  16  18
ATOM     18  O   UNL d   1      28.521  16.810 -23.811  0.00  0.00    -0.271 OA
BRANCH  18  19
ATOM     19  C   UNL d   1      28.059  17.416 -23.493  0.00  0.00     0.126 C 
ATOM     20  C   UNL d   1      27.378  17.261 -22.955  0.00  0.00     0.029 C 
ENDBRANCH  18  19
ENDBRANCH  16  18
ENDBRANCH   1  16
TORSDOF 3
ENDMDL
MODEL 5
REMARK VINA RESULT:      -1.8      3.151      4.213
REMARK  3 active torsions:
REMARK  status: ('A' for Active; 'I' for Inactive)
REMARK    1  A    between atoms: C_7  and  C_1 
REMARK    2  A    between atoms: O_14  and  C_7 
REMARK    3  A    between atoms: C_17  and  O_14 
ROOT
ATOM      1  C   UNL d   1      33.239  20.930 -21.976  0.00  0.00     0.127 A 
ATOM      2  C   UNL d   1      33.239  20.442 -21.318  0.00  0.00     0.305 A 
ATOM      3  C   UNL d   1      33.237  20.599 -22.731  0.00  0.00     0.013 A 
ATOM      4  C   UNL d   1      33.235  19.780 -22.829  0.00  0.00     0.023 A 
ATOM      5  O   UNL d   1      33.237  19.623 -21.417  0.00  0.00    -0.273 OA
ATOM      6  C   UNL d   1      33.235  19.292 -22.172  0.00  0.00     0.103 A 
ATOM      7  C   UNL d   1      33.234  19.462 -23.575  0.00  0.00     0.002 A 
ATOM      8  O   UNL d   1      33.241  20.787 -20.552  0.00  0.00    -0.259 OA
ATOM      9  C   UNL d   1      33.234  18.486 -22.261  0.00  0.00     0.025 A 
ATOM     10  C   UNL d   1      33.232  18.643 -23.673  0.00  0.00     0.000 A 
ATOM     11  C   UNL d   1      33.232  18.155 -23.016  0.00  0.00     0.002 A 
ATOM     12  C   UNL d   1      33.233  19.955 -24.240  0.00  0.00     0.000 A 
ATOM     13  C   UNL d   1      33.230  18.312 -24.429  0.00  0.00     0.000 A 
ATOM     14  C   UNL d   1      33.232  19.642 -24.998  0.00  0.00     0.000 A 
ATOM     15  C   UNL d   1      33.230  18.808 -25.097  0.00  0.00     0.000 A 
ENDROOT
BRANCH   1  16
ATOM     16  C   UNL d   1      33.240  21.776 -21.885  0.00  0.00     0.305 C 
ATOM     17  O   UNL d   1      33.241  22.112 -21.139  0.00  0.00    -0.259 OA
BRANCH  16  18
ATOM     18  O   UNL d   1      33.241  22.245 -22.546  0.00  0.00    -0.271 OA
BRANCH  18  19
ATOM     19  C   UNL d   1      33.128  23.059 -22.471  0.00  0.00     0.126 C 
ATOM     20  C   UNL d   1      33.120  23.602 -23.166  0.00  0.00     0.029 C 
ENDBRANCH  18  19
ENDBRANCH  16  18
ENDBRANCH   1  16
TORSDOF 3
ENDMDL
MODEL 6
REMARK VINA RESULT:      -1.6      4.048      5.605
REMARK  3 active torsions:
REMARK  status: ('A' for Active; 'I' for Inactive)
REMARK    1  A    between atoms: C_7  and  C_1 
REMARK    2  A    between atoms: O_14  and  C_7 
REMARK    3  A    between atoms: C_17  and  O_14 
ROOT
ATOM      1  C   UNL d   1      32.435  22.323 -21.402  0.00  0.00     0.127 A 
ATOM      2  C   UNL d   1      32.498  22.896 -21.984  0.00  0.00     0.305 A 
ATOM      3  C   UNL d   1      32.569  21.532 -21.591  0.00  0.00     0.013 A 
ATOM      4  C   UNL d   1      32.767  21.313 -22.361  0.00  0.00     0.023 A 
ATOM      5  O   UNL d   1      32.696  22.678 -22.754  0.00  0.00    -0.273 OA
ATOM      6  C   UNL d   1      32.830  21.886 -22.943  0.00  0.00     0.103 A 
ATOM      7  C   UNL d   1      32.897  20.533 -22.540  0.00  0.00     0.002 A 
ATOM      8  O   UNL d   1      32.360  23.700 -21.783  0.00  0.00    -0.259 OA
ATOM      9  C   UNL d   1      33.024  21.679 -23.702  0.00  0.00     0.025 A 
ATOM     10  C   UNL d   1      33.095  20.314 -23.310  0.00  0.00     0.000 A 
ATOM     11  C   UNL d   1      33.158  20.887 -23.892  0.00  0.00     0.002 A 
ATOM     12  C   UNL d   1      32.833  19.954 -21.952  0.00  0.00     0.000 A 
ATOM     13  C   UNL d   1      33.229  19.523 -23.499  0.00  0.00     0.000 A 
ATOM     14  C   UNL d   1      32.964  19.163 -22.123  0.00  0.00     0.000 A 
ATOM     15  C   UNL d   1      33.165  18.941 -22.908  0.00  0.00     0.000 A 
ENDROOT
BRANCH   1  16
ATOM     16  C   UNL d   1      32.232  22.540 -20.604  0.00  0.00     0.305 C 
ATOM     17  O   UNL d   1      31.451  22.663 -20.395  0.00  0.00    -0.259 OA
BRANCH  16  18
ATOM     18  O   UNL d   1      32.821  22.622 -20.055  0.00  0.00    -0.271 OA
BRANCH  18  19
ATOM     19  C   UNL d   1      32.632  22.818 -19.276  0.00  0.00     0.126 C 
ATOM     20  C   UNL d   1      33.238  22.859 -18.637  0.00  0.00     0.029 C 
ENDBRANCH  18  19
ENDBRANCH  16  18
ENDBRANCH   1  16
TORSDOF 3
ENDMDL
MODEL 7
REMARK VINA RESULT:      -1.5      3.014      5.499
REMARK  3 active torsions:
REMARK  status: ('A' for Active; 'I' for Inactive)
REMARK    1  A    between atoms: C_7  and  C_1 
REMARK    2  A    between atoms: O_14  and  C_7 
REMARK    3  A    between atoms: C_17  and  O_14 
ROOT
ATOM      1  C   UNL d   1      33.231  20.026 -22.388  0.00  0.00     0.127 A 
ATOM      2  C   UNL d   1      33.232  19.999 -21.569  0.00  0.00     0.305 A 
ATOM      3  C   UNL d   1      33.233  20.756 -22.772  0.00  0.00     0.013 A 
ATOM      4  C   UNL d   1      33.235  21.457 -22.339  0.00  0.00     0.023 A 
ATOM      5  O   UNL d   1      33.234  20.700 -21.136  0.00  0.00    -0.273 OA
ATOM      6  C   UNL d   1      33.236  21.430 -21.521  0.00  0.00     0.103 A 
ATOM      7  C   UNL d   1      33.237  22.171 -22.724  0.00  0.00     0.002 A 
ATOM      8  O   UNL d   1      33.230  19.251 -21.185  0.00  0.00    -0.259 OA
ATOM      9  C   UNL d   1      33.239  22.115 -21.088  0.00  0.00     0.025 A 
ATOM     10  C   UNL d   1      33.239  22.873 -22.291  0.00  0.00     0.000 A 
ATOM     11  C   UNL d   1      33.240  22.845 -21.473  0.00  0.00     0.002 A 
ATOM     12  C   UNL d   1      33.236  22.199 -23.552  0.00  0.00     0.000 A 
ATOM     13  C   UNL d   1      33.241  23.602 -22.676  0.00  0.00     0.000 A 
ATOM     14  C   UNL d   1      33.238  22.916 -23.950  0.00  0.00     0.000 A 
ATOM     15  C   UNL d   1      33.240  23.630 -23.507  0.00  0.00     0.000 A 
ENDROOT
BRANCH   1  16
ATOM     16  C   UNL d   1      33.229  19.307 -22.843  0.00  0.00     0.305 C 
ATOM     17  O   UNL d   1      33.230  18.580 -22.469  0.00  0.00    -0.259 OA
BRANCH  16  18
ATOM     18  O   UNL d   1      33.225  19.352 -23.653  0.00  0.00    -0.271 OA
BRANCH  18  19
ATOM     19  C   UNL d   1      33.185  18.661 -24.102  0.00  0.00     0.126 C 
ATOM     20  C   UNL d   1      33.079  18.670 -24.977  0.00  0.00     0.029 C 
ENDBRANCH  18  19
ENDBRANCH  16  18
ENDBRANCH   1  16
TORSDOF 3
ENDMDL
MODEL 8
REMARK VINA RESULT:      -1.4      4.660      6.035
REMARK  3 active torsions:
REMARK  status: ('A' for Active; 'I' for Inactive)
REMARK    1  A    between atoms: C_7  and  C_1 
REMARK    2  A    between atoms: O_14  and  C_7 
REMARK    3  A    between atoms: C_17  and  O_14 
ROOT
ATOM      1  C   UNL d   1      32.520  22.152 -21.123  0.00  0.00     0.127 A 
ATOM      2  C   UNL d   1      32.620  21.341 -21.066  0.00  0.00     0.305 A 
ATOM      3  C   UNL d   1      32.625  22.528 -21.849  0.00  0.00     0.013 A 
ATOM      4  C   UNL d   1      32.830  22.094 -22.519  0.00  0.00     0.023 A 
ATOM      5  O   UNL d   1      32.825  20.907 -21.737  0.00  0.00    -0.273 OA
ATOM      6  C   UNL d   1      32.930  21.283 -22.463  0.00  0.00     0.103 A 
ATOM      7  C   UNL d   1      32.931  22.470 -23.230  0.00  0.00     0.002 A 
ATOM      8  O   UNL d   1      32.512  20.966 -20.322  0.00  0.00    -0.259 OA
ATOM      9  C   UNL d   1      33.132  20.849 -23.118  0.00  0.00     0.025 A 
ATOM     10  C   UNL d   1      33.136  22.036 -23.901  0.00  0.00     0.000 A 
ATOM     11  C   UNL d   1      33.236  21.225 -23.845  0.00  0.00     0.002 A 
ATOM     12  C   UNL d   1      32.830  23.290 -23.287  0.00  0.00     0.000 A 
ATOM     13  C   UNL d   1      33.241  22.412 -24.627  0.00  0.00     0.000 A 
ATOM     14  C   UNL d   1      32.930  23.679 -24.002  0.00  0.00     0.000 A 
ATOM     15  C   UNL d   1      33.139  23.235 -24.684  0.00  0.00     0.000 A 
ENDROOT
BRANCH   1  16
ATOM     16  C   UNL d   1      32.308  22.609 -20.436  0.00  0.00     0.305 C 
ATOM     17  O   UNL d   1      31.533  22.633 -20.178  0.00  0.00    -0.259 OA
BRANCH  16  18
ATOM     18  O   UNL d   1      32.885  23.020 -20.042  0.00  0.00    -0.271 OA
BRANCH  18  19
ATOM     19  C   UNL d   1      32.674  23.612 -19.508  0.00  0.00     0.126 C 
ATOM     20  C   UNL d   1      33.012  23.660 -18.695  0.00  0.00     0.029 C 
ENDBRANCH  18  19
ENDBRANCH  16  18
ENDBRANCH   1  16
TORSDOF 3
ENDMDL
MODEL 9
REMARK VINA RESULT:      -0.6      2.582      3.439
REMARK  3 active torsions:
REMARK  status: ('A' for Active; 'I' for Inactive)
REMARK    1  A    between atoms: C_7  and  C_1 
REMARK    2  A    between atoms: O_14  and  C_7 
REMARK    3  A    between atoms: C_17  and  O_14 
ROOT
ATOM      1  C   UNL d   1      33.169  19.919 -23.095  0.00  0.00     0.127 A 
ATOM      2  C   UNL d   1      33.181  20.246 -23.846  0.00  0.00     0.305 A 
ATOM      3  C   UNL d   1      33.112  19.101 -23.007  0.00  0.00     0.013 A 
ATOM      4  C   UNL d   1      33.066  18.611 -23.668  0.00  0.00     0.023 A 
ATOM      5  O   UNL d   1      33.136  19.756 -24.507  0.00  0.00    -0.273 OA
ATOM      6  C   UNL d   1      33.078  18.938 -24.418  0.00  0.00     0.103 A 
ATOM      7  C   UNL d   1      33.009  17.807 -23.573  0.00  0.00     0.002 A 
ATOM      8  O   UNL d   1      33.240  21.081 -23.927  0.00  0.00    -0.259 OA
ATOM      9  C   UNL d   1      33.033  18.462 -25.073  0.00  0.00     0.025 A 
ATOM     10  C   UNL d   1      32.963  17.317 -24.234  0.00  0.00     0.000 A 
ATOM     11  C   UNL d   1      32.975  17.644 -24.984  0.00  0.00     0.002 A 
ATOM     12  C   UNL d   1      32.997  17.476 -22.814  0.00  0.00     0.000 A 
ATOM     13  C   UNL d   1      32.905  16.499 -24.145  0.00  0.00     0.000 A 
ATOM     14  C   UNL d   1      32.940  16.665 -22.708  0.00  0.00     0.000 A 
ATOM     15  C   UNL d   1      32.893  16.166 -23.383  0.00  0.00     0.000 A 
ENDROOT
BRANCH   1  16
ATOM     16  C   UNL d   1      33.216  20.417 -22.407  0.00  0.00     0.305 C 
ATOM     17  O   UNL d   1      33.236  21.231 -22.485  0.00  0.00    -0.259 OA
BRANCH  16  18
ATOM     18  O   UNL d   1      33.241  20.075 -21.672  0.00  0.00    -0.271 OA
BRANCH  18  19
ATOM     19  C   UNL d   1      33.209  20.550 -20.998  0.00  0.00     0.126 C 
ATOM     20  C   UNL d   1      33.077  20.218 -20.191  0.00  0.00     0.029 C 
ENDBRANCH  18  19
ENDBRANCH  16  18
ENDBRANCH   1  16
TORSDOF 3
ENDMDL
