MODEL 1
REMARK VINA RESULT:      -5.9      0.000      0.000
REMARK  4 active torsions:
REMARK  status: ('A' for Active; 'I' for Inactive)
REMARK    1  A    between atoms: C_2  and  S_1 
REMARK    2  A    between atoms: N_5  and  S_1 
REMARK    3  A    between atoms: C_10  and  N_5 
REMARK    4  A    between atoms: C_11  and  C_10 
ROOT
ATOM      1  S   UNL d   1     -41.495-122.734 -52.966  0.00  0.00     0.291 S 
ATOM      2  O   UNL d   1     -41.207-121.964 -52.896  0.00  0.00    -0.198 OA
ATOM      3  O   UNL d   1     -41.785-123.503 -53.040  0.00  0.00    -0.198 OA
ENDROOT
BRANCH   1   4
ATOM      4  C   UNL d   1     -41.611-122.622 -53.775  0.00  0.00     0.135 A 
ATOM      5  S   UNL d   1     -42.221-122.206 -54.126  0.00  0.00    -0.074 SA
ATOM      6  C   UNL d   1     -42.119-122.235 -54.943  0.00  0.00     0.030 A 
ATOM      7  C   UNL d   1     -42.607-121.889 -55.515  0.00  0.00     0.007 C 
ATOM      8  C   UNL d   1     -41.438-122.674 -55.096  0.00  0.00     0.008 A 
ATOM      9  C   UNL d   1     -41.123-122.914 -54.375  0.00  0.00     0.020 A 
ENDBRANCH   1   4
BRANCH   1  10
ATOM     10  N   UNL d   1     -41.386-122.857 -52.165  0.00  0.00    -0.156 NA
BRANCH  10  11
ATOM     11  C   UNL d   1     -41.741-122.353 -51.619  0.00  0.00     0.112 C 
BRANCH  11  12
ATOM     12  C   UNL d   1     -41.790-122.574 -50.826  0.00  0.00     0.020 A 
ATOM     13  C   UNL d   1     -41.124-122.890 -50.442  0.00  0.00     0.002 A 
ATOM     14  C   UNL d   1     -41.173-123.111 -49.649  0.00  0.00     0.000 A 
ATOM     15  C   UNL d   1     -41.889-123.016 -49.239  0.00  0.00     0.000 A 
ATOM     16  C   UNL d   1     -42.548-122.702 -49.625  0.00  0.00     0.000 A 
ATOM     17  C   UNL d   1     -41.939-123.237 -48.446  0.00  0.00     0.000 C 
ATOM     18  C   UNL d   1     -42.498-122.481 -50.419  0.00  0.00     0.002 A 
ENDBRANCH  11  12
ENDBRANCH  10  11
ENDBRANCH   1  10
TORSDOF 4
ENDMDL
MODEL 2
REMARK VINA RESULT:      -5.5      1.158      4.424
REMARK  4 active torsions:
REMARK  status: ('A' for Active; 'I' for Inactive)
REMARK    1  A    between atoms: C_2  and  S_1 
REMARK    2  A    between atoms: N_5  and  S_1 
REMARK    3  A    between atoms: C_10  and  N_5 
REMARK    4  A    between atoms: C_11  and  C_10 
ROOT
ATOM      1  S   UNL d   1     -41.748-122.615 -51.286  0.00  0.00     0.291 S 
ATOM      2  O   UNL d   1     -41.124-122.091 -51.157  0.00  0.00    -0.198 OA
ATOM      3  O   UNL d   1     -42.372-123.140 -51.410  0.00  0.00    -0.198 OA
ENDROOT
BRANCH   1   4
ATOM      4  C   UNL d   1     -41.658-122.916 -50.523  0.00  0.00     0.135 A 
ATOM      5  S   UNL d   1     -42.075-122.688 -49.858  0.00  0.00    -0.074 SA
ATOM      6  C   UNL d   1     -41.807-123.131 -49.217  0.00  0.00     0.030 A 
ATOM      7  C   UNL d   1     -42.075-123.084 -48.436  0.00  0.00     0.007 C 
ATOM      8  C   UNL d   1     -41.216-123.638 -49.492  0.00  0.00     0.008 A 
ATOM      9  C   UNL d   1     -41.123-123.506 -50.298  0.00  0.00     0.020 A 
ENDBRANCH   1   4
BRANCH   1  10
ATOM     10  N   UNL d   1     -41.846-122.324 -52.043  0.00  0.00    -0.156 NA
BRANCH  10  11
ATOM     11  C   UNL d   1     -41.361-122.591 -52.653  0.00  0.00     0.112 C 
BRANCH  11  12
ATOM     12  C   UNL d   1     -41.563-122.438 -53.438  0.00  0.00     0.020 A 
ATOM     13  C   UNL d   1     -42.027-121.774 -53.623  0.00  0.00     0.002 A 
ATOM     14  C   UNL d   1     -42.229-121.621 -54.408  0.00  0.00     0.000 A 
ATOM     15  C   UNL d   1     -41.967-122.132 -55.008  0.00  0.00     0.000 A 
ATOM     16  C   UNL d   1     -41.506-122.790 -54.818  0.00  0.00     0.000 A 
ATOM     17  C   UNL d   1     -42.169-121.979 -55.793  0.00  0.00     0.000 C 
ATOM     18  C   UNL d   1     -41.304-122.943 -54.032  0.00  0.00     0.002 A 
ENDBRANCH  11  12
ENDBRANCH  10  11
ENDBRANCH   1  10
TORSDOF 4
ENDMDL
