MODEL 1
REMARK VINA RESULT:      -6.2      0.000      0.000
REMARK  6 active torsions:
REMARK  status: ('A' for Active; 'I' for Inactive)
REMARK    1  A    between atoms: N_4  and  C_3 
REMARK       I    between atoms: C_6  and  N_10 
REMARK    2  A    between atoms: C_21  and  C_6 
REMARK    3  A    between atoms: C_11  and  C_7 
REMARK    4  A    between atoms: C_9  and  O_12 
REMARK    5  A    between atoms: N_10  and  C_22 
REMARK    6  A    between atoms: O_12  and  C_21 
ROOT
ATOM      1  C   UNL d   1     -46.745  13.619  22.630  0.00  0.00     0.019 A 
ATOM      2  C   UNL d   1     -46.991  13.782  21.867  0.00  0.00     0.003 A 
ATOM      3  C   UNL d   1     -47.045  14.061  23.259  0.00  0.00     0.003 A 
ATOM      4  C   UNL d   1     -47.835  14.824  22.346  0.00  0.00     0.085 A 
ATOM      5  C   UNL d   1     -47.590  14.663  23.118  0.00  0.00     0.019 A 
ATOM      6  C   UNL d   1     -47.536  14.385  21.725  0.00  0.00     0.019 A 
ENDROOT
BRANCH   4   7
ATOM      7  N   UNL d   1     -48.380  15.427  22.204  0.00  0.00    -0.206 NA
ATOM      8  C   UNL d   1     -49.175  15.315  22.382  0.00  0.00     0.304 C 
ATOM      9  O   UNL d   1     -49.723  15.921  22.240  0.00  0.00    -0.263 OA
BRANCH   8  10
ATOM     10  C   UNL d   1     -49.427  14.597  22.704  0.00  0.00     0.185 C 
BRANCH  10  11
ATOM     11  O   UNL d   1     -50.196  14.332  22.567  0.00  0.00    -0.299 OA
BRANCH  11  12
ATOM     12  C   UNL d   1     -50.406  13.558  22.764  0.00  0.00     0.111 A 
ATOM     13  C   UNL d   1     -50.807  13.088  22.217  0.00  0.00     0.081 A 
ATOM     14  C   UNL d   1     -51.017  12.322  22.406  0.00  0.00     0.025 A 
ATOM     15 CL   UNL d   1     -51.000  13.398  21.464  0.00  0.00    -0.080 Cl
ATOM     16  C   UNL d   1     -50.826  12.018  23.150  0.00  0.00     0.059 A 
ATOM     17  C   UNL d   1     -50.425  12.487  23.697  0.00  0.00     0.013 A 
ATOM     18 CL   UNL d   1     -51.038  11.238  23.346  0.00  0.00    -0.082 Cl
ATOM     19  C   UNL d   1     -50.215  13.261  23.500  0.00  0.00     0.026 A 
ENDBRANCH  11  12
ENDBRANCH  10  11
ENDBRANCH   8  10
ENDBRANCH   4   7
BRANCH   1  20
ATOM     20  C   UNL d   1     -46.200  13.016  22.772  0.00  0.00     0.103 A 
ATOM     21  N   UNL d   1     -45.443  13.062  22.455  0.00  0.00    -0.147 NA
ATOM     22  N   UNL d   1     -44.897  12.460  22.597  0.00  0.00    -0.130 NA
ATOM     23  C   UNL d   1     -45.109  11.810  23.055  0.00  0.00     0.170 A 
ATOM     24  C   UNL d   1     -45.870  11.763  23.373  0.00  0.00     0.041 A 
ATOM     25  C   UNL d   1     -46.415  12.366  23.232  0.00  0.00     0.024 A 
BRANCH  23  26
ATOM     26  N   UNL d   1     -44.564  11.208  23.197  0.00  0.00    -0.284 N 
ATOM     27  C   UNL d   1     -44.802  10.513  23.556  0.00  0.00     0.108 A 
ATOM     28  C   UNL d   1     -44.257   9.910  23.698  0.00  0.00     0.142 A 
ATOM     29  O   UNL d   1     -43.474  10.002  23.480  0.00  0.00    -0.300 OA
ATOM     30  C   UNL d   1     -43.230  10.703  23.117  0.00  0.00     0.142 A 
ATOM     31  C   UNL d   1     -43.775  11.305  22.976  0.00  0.00     0.108 A 
ENDBRANCH  23  26
ENDBRANCH   1  20
TORSDOF 6
ENDMDL
MODEL 2
REMARK VINA RESULT:      -3.2      6.516      9.092
REMARK  6 active torsions:
REMARK  status: ('A' for Active; 'I' for Inactive)
REMARK    1  A    between atoms: N_4  and  C_3 
REMARK       I    between atoms: C_6  and  N_10 
REMARK    2  A    between atoms: C_21  and  C_6 
REMARK    3  A    between atoms: C_11  and  C_7 
REMARK    4  A    between atoms: C_9  and  O_12 
REMARK    5  A    between atoms: N_10  and  C_22 
REMARK    6  A    between atoms: O_12  and  C_21 
ROOT
ATOM      1  C   UNL d   1     -41.120  14.552  20.484  0.00  0.00     0.019 A 
ATOM      2  C   UNL d   1     -40.389  14.551  20.850  0.00  0.00     0.003 A 
ATOM      3  C   UNL d   1     -41.229  14.986  19.790  0.00  0.00     0.003 A 
ATOM      4  C   UNL d   1     -39.867  15.411  19.842  0.00  0.00     0.085 A 
ATOM      5  C   UNL d   1     -40.603  15.415  19.469  0.00  0.00     0.019 A 
ATOM      6  C   UNL d   1     -39.762  14.980  20.529  0.00  0.00     0.019 A 
ENDROOT
BRANCH   4   7
ATOM      7  N   UNL d   1     -39.240  15.841  19.522  0.00  0.00    -0.206 NA
ATOM      8  C   UNL d   1     -38.729  15.487  18.983  0.00  0.00     0.304 C 
ATOM      9  O   UNL d   1     -38.099  15.919  18.660  0.00  0.00    -0.263 OA
BRANCH   8  10
ATOM     10  C   UNL d   1     -38.846  14.700  18.763  0.00  0.00     0.185 C 
BRANCH  10  11
ATOM     11  O   UNL d   1     -38.518  14.414  18.062  0.00  0.00    -0.299 OA
BRANCH  11  12
ATOM     12  C   UNL d   1     -38.373  13.607  17.973  0.00  0.00     0.111 A 
ATOM     13  C   UNL d   1     -38.450  13.253  17.232  0.00  0.00     0.081 A 
ATOM     14  C   UNL d   1     -38.308  12.454  17.139  0.00  0.00     0.025 A 
ATOM     15 CL   UNL d   1     -38.675  13.714  16.572  0.00  0.00    -0.080 Cl
ATOM     16  C   UNL d   1     -38.085  12.000  17.792  0.00  0.00     0.059 A 
ATOM     17  C   UNL d   1     -38.008  12.354  18.533  0.00  0.00     0.013 A 
ATOM     18 CL   UNL d   1     -37.940  11.186  17.701  0.00  0.00    -0.082 Cl
ATOM     19  C   UNL d   1     -38.153  13.161  18.622  0.00  0.00     0.026 A 
ENDBRANCH  11  12
ENDBRANCH  10  11
ENDBRANCH   8  10
ENDBRANCH   4   7
BRANCH   1  20
ATOM     20  C   UNL d   1     -41.747  14.122  20.805  0.00  0.00     0.103 A 
ATOM     21  N   UNL d   1     -42.329  14.505  21.241  0.00  0.00    -0.147 NA
ATOM     22  N   UNL d   1     -42.956  14.075  21.562  0.00  0.00    -0.130 NA
ATOM     23  C   UNL d   1     -43.001  13.262  21.446  0.00  0.00     0.170 A 
ATOM     24  C   UNL d   1     -42.418  12.877  21.008  0.00  0.00     0.041 A 
ATOM     25  C   UNL d   1     -41.791  13.306  20.687  0.00  0.00     0.024 A 
BRANCH  23  26
ATOM     26  N   UNL d   1     -43.628  12.833  21.767  0.00  0.00    -0.284 N 
ATOM     27  C   UNL d   1     -43.483  12.170  22.223  0.00  0.00     0.108 A 
ATOM     28  C   UNL d   1     -44.110  11.740  22.543  0.00  0.00     0.142 A 
ATOM     29  O   UNL d   1     -44.882  11.973  22.409  0.00  0.00    -0.300 OA
ATOM     30  C   UNL d   1     -45.033  12.642  21.949  0.00  0.00     0.142 A 
ATOM     31  C   UNL d   1     -44.406  13.072  21.628  0.00  0.00     0.108 A 
ENDBRANCH  23  26
ENDBRANCH   1  20
TORSDOF 6
ENDMDL
