MODEL 1
REMARK VINA RESULT:      -4.7      0.000      0.000
REMARK  5 active torsions:
REMARK  status: ('A' for Active; 'I' for Inactive)
REMARK    1  A    between atoms: C_7  and  C_1 
REMARK    2  A    between atoms: C_9  and  C_17 
REMARK       I    between atoms: N_11  and  C_9 
REMARK    3  A    between atoms: S_12  and  C_10 
REMARK    4  A    between atoms: C_13  and  N_11 
REMARK    5  A    between atoms: C_17  and  S_12 
ROOT
ATOM      1  N   UNL d   1     -42.319-122.808 -50.062  0.00  0.00    -0.147 NA
ATOM      2  C   UNL d   1     -41.855-123.275 -49.550  0.00  0.00     0.111 A 
ATOM      3  N   UNL d   1     -42.175-122.830 -50.870  0.00  0.00    -0.141 NA
ATOM      4  C   UNL d   1     -41.574-123.312 -51.171  0.00  0.00     0.133 A 
ATOM      5  C   UNL d   1     -41.268-123.745 -49.852  0.00  0.00     0.024 A 
ATOM      6  C   UNL d   1     -41.124-123.768 -50.652  0.00  0.00     0.029 A 
ENDROOT
BRANCH   4   7
ATOM      7  S   UNL d   1     -41.431-123.333 -51.983  0.00  0.00    -0.061 SA
BRANCH   7   8
ATOM      8  C   UNL d   1     -41.348-122.628 -52.411  0.00  0.00     0.099 C 
BRANCH   8   9
ATOM      9  C   UNL d   1     -41.417-122.636 -53.223  0.00  0.00     0.286 C 
ATOM     10  N   UNL d   1     -41.780-122.009 -53.618  0.00  0.00    -0.208 NA
ATOM     11  O   UNL d   1     -41.123-123.278 -53.666  0.00  0.00    -0.265 OA
BRANCH  10  12
ATOM     12  C   UNL d   1     -41.852-122.013 -54.442  0.00  0.00     0.086 A 
ATOM     13  C   UNL d   1     -42.601-122.065 -54.786  0.00  0.00     0.031 A 
ATOM     14  C   UNL d   1     -42.677-122.070 -55.614  0.00  0.00     0.059 A 
ATOM     15 CL   UNL d   1     -43.430-122.122 -55.961  0.00  0.00    -0.082 Cl
ATOM     16  C   UNL d   1     -41.997-122.022 -56.083  0.00  0.00     0.011 A 
ATOM     17  C   UNL d   1     -41.252-121.970 -55.734  0.00  0.00     0.002 A 
ATOM     18  C   UNL d   1     -41.176-121.966 -54.915  0.00  0.00     0.019 A 
ENDBRANCH  10  12
ENDBRANCH   8   9
ENDBRANCH   7   8
ENDBRANCH   4   7
BRANCH   2  19
ATOM     19  C   UNL d   1     -42.004-123.250 -48.735  0.00  0.00     0.068 A 
ATOM     20  C   UNL d   1     -42.727-123.447 -48.374  0.00  0.00     0.089 A 
ATOM     21  N   UNL d   1     -42.627-123.343 -47.553  0.00  0.00    -0.238 NA
ATOM     22  C   UNL d   1     -43.404-123.696 -48.754  0.00  0.00     0.021 C 
ATOM     23  C   UNL d   1     -41.856-123.086 -47.419  0.00  0.00     0.111 A 
ATOM     24  S   UNL d   1     -41.474-123.030 -48.149  0.00  0.00    -0.065 SA
ATOM     25  C   UNL d   1     -41.528-122.916 -46.677  0.00  0.00     0.028 C 
ENDBRANCH   2  19
TORSDOF 5
ENDMDL
MODEL 2
REMARK VINA RESULT:      -4.1      2.329      6.127
REMARK  5 active torsions:
REMARK  status: ('A' for Active; 'I' for Inactive)
REMARK    1  A    between atoms: C_7  and  C_1 
REMARK    2  A    between atoms: C_9  and  C_17 
REMARK       I    between atoms: N_11  and  C_9 
REMARK    3  A    between atoms: S_12  and  C_10 
REMARK    4  A    between atoms: C_13  and  N_11 
REMARK    5  A    between atoms: C_17  and  S_12 
ROOT
ATOM      1  N   UNL d   1     -41.933-122.090 -52.915  0.00  0.00    -0.147 NA
ATOM      2  C   UNL d   1     -41.677-122.673 -53.454  0.00  0.00     0.111 A 
ATOM      3  N   UNL d   1     -41.776-122.184 -52.114  0.00  0.00    -0.141 NA
ATOM      4  C   UNL d   1     -41.369-122.852 -51.848  0.00  0.00     0.133 A 
ATOM      5  C   UNL d   1     -41.278-123.326 -53.186  0.00  0.00     0.024 A 
ATOM      6  C   UNL d   1     -41.123-123.420 -52.393  0.00  0.00     0.029 A 
ENDROOT
BRANCH   4   7
ATOM      7  S   UNL d   1     -41.212-122.946 -51.043  0.00  0.00    -0.061 SA
BRANCH   7   8
ATOM      8  C   UNL d   1     -41.805-122.798 -50.483  0.00  0.00     0.099 C 
BRANCH   8   9
ATOM      9  C   UNL d   1     -41.723-123.080 -49.722  0.00  0.00     0.286 C 
ATOM     10  N   UNL d   1     -42.210-122.800 -49.117  0.00  0.00    -0.208 NA
ATOM     11  O   UNL d   1     -41.146-123.655 -49.544  0.00  0.00    -0.265 OA
BRANCH  10  12
ATOM     12  C   UNL d   1     -42.130-123.084 -48.344  0.00  0.00     0.086 A 
ATOM     13  C   UNL d   1     -42.801-123.305 -47.919  0.00  0.00     0.031 A 
ATOM     14  C   UNL d   1     -42.725-123.591 -47.143  0.00  0.00     0.059 A 
ATOM     15 CL   UNL d   1     -43.400-123.814 -46.713  0.00  0.00    -0.082 Cl
ATOM     16  C   UNL d   1     -41.971-123.648 -46.806  0.00  0.00     0.011 A 
ATOM     17  C   UNL d   1     -41.304-123.426 -47.234  0.00  0.00     0.002 A 
ATOM     18  C   UNL d   1     -41.379-123.143 -48.003  0.00  0.00     0.019 A 
ENDBRANCH  10  12
ENDBRANCH   8   9
ENDBRANCH   7   8
ENDBRANCH   4   7
BRANCH   2  19
ATOM     19  C   UNL d   1     -41.837-122.574 -54.261  0.00  0.00     0.068 A 
ATOM     20  C   UNL d   1     -41.615-123.105 -54.862  0.00  0.00     0.089 A 
ATOM     21  N   UNL d   1     -41.888-122.786 -55.583  0.00  0.00    -0.238 NA
ATOM     22  C   UNL d   1     -41.208-123.804 -54.761  0.00  0.00     0.021 C 
ATOM     23  C   UNL d   1     -42.268-122.074 -55.421  0.00  0.00     0.111 A 
ATOM     24  S   UNL d   1     -42.235-121.945 -54.606  0.00  0.00    -0.065 SA
ATOM     25  C   UNL d   1     -42.620-121.578 -55.985  0.00  0.00     0.028 C 
ENDBRANCH   2  19
TORSDOF 5
ENDMDL
