MODEL 1
REMARK VINA RESULT:      -2.1      0.000      0.000
REMARK  4 active torsions:
REMARK  status: ('A' for Active; 'I' for Inactive)
REMARK    1  A    between atoms: C_8  and  N_1 
REMARK    2  A    between atoms: C_2  and  C_4 
REMARK       I    between atoms: C_4  and  N_5 
REMARK    3  A    between atoms: N_5  and  C_7 
REMARK    4  A    between atoms: O_19  and  C_14 
ROOT
ATOM      1  C   UNL d   1      32.398  22.199 -20.328  0.00  0.00     0.108 A 
ATOM      2  C   UNL d   1      32.332  22.683 -21.613  0.00  0.00     0.128 A 
ATOM      3  C   UNL d   1      32.266  22.827 -20.831  0.00  0.00     0.045 A 
ATOM      4  C   UNL d   1      32.585  21.472 -20.594  0.00  0.00     0.112 A 
ATOM      5  C   UNL d   1      32.512  21.996 -21.926  0.00  0.00     0.026 A 
ATOM      6  C   UNL d   1      32.649  21.348 -21.423  0.00  0.00     0.027 A 
ENDROOT
BRANCH   1   7
ATOM      7  N   UNL d   1      32.332  22.328 -19.451  0.00  0.00    -0.206 NA
ATOM      8  C   UNL d   1      32.666  23.026 -19.134  0.00  0.00     0.285 C 
ATOM      9  O   UNL d   1      33.035  23.549 -19.655  0.00  0.00    -0.265 OA
BRANCH   8  10
ATOM     10  C   UNL d   1      32.635  23.201 -18.325  0.00  0.00     0.088 A 
ATOM     11  S   UNL d   1      33.184  23.021 -17.731  0.00  0.00    -0.075 SA
ATOM     12  C   UNL d   1      32.879  23.325 -17.014  0.00  0.00     0.064 A 
ATOM     13 BR   UNL d   1      33.240  23.274 -16.281  0.00  0.00    -0.042 Br
ATOM     14  C   UNL d   1      32.141  23.687 -17.197  0.00  0.00     0.014 A 
ATOM     15  C   UNL d   1      32.023  23.596 -17.987  0.00  0.00     0.012 A 
ENDBRANCH   8  10
ENDBRANCH   1   7
BRANCH   4  16
ATOM     16  O   UNL d   1      32.722  20.826 -20.093  0.00  0.00    -0.327 OA
ATOM     17  C   UNL d   1      32.857  20.035 -20.448  0.00  0.00     0.181 C 
ENDBRANCH   4  16
BRANCH   2  18
ATOM     18  N   UNL d   1      32.186  23.377 -22.160  0.00  0.00    -0.114 N 
ATOM     19  O   UNL d   1      31.389  23.701 -22.261  0.00  0.00    -0.532 OA
ATOM     20  O   UNL d   1      32.846  23.701 -22.569  0.00  0.00    -0.532 OA
ENDBRANCH   2  18
TORSDOF 4
ENDMDL
MODEL 2
REMARK VINA RESULT:      -1.8      6.431      7.697
REMARK  4 active torsions:
REMARK  status: ('A' for Active; 'I' for Inactive)
REMARK    1  A    between atoms: C_8  and  N_1 
REMARK    2  A    between atoms: C_2  and  C_4 
REMARK       I    between atoms: C_4  and  N_5 
REMARK    3  A    between atoms: N_5  and  C_7 
REMARK    4  A    between atoms: O_19  and  C_14 
ROOT
ATOM      1  C   UNL d   1      31.973  17.038 -23.851  0.00  0.00     0.108 A 
ATOM      2  C   UNL d   1      32.649  18.234 -23.783  0.00  0.00     0.128 A 
ATOM      3  C   UNL d   1      32.022  17.825 -24.060  0.00  0.00     0.045 A 
ATOM      4  C   UNL d   1      32.520  16.685 -23.392  0.00  0.00     0.112 A 
ATOM      5  C   UNL d   1      33.209  17.940 -23.334  0.00  0.00     0.026 A 
ATOM      6  C   UNL d   1      33.170  17.140 -23.114  0.00  0.00     0.027 A 
ENDROOT
BRANCH   1   7
ATOM      7  N   UNL d   1      31.287  16.556 -24.144  0.00  0.00    -0.206 NA
ATOM      8  C   UNL d   1      30.517  16.826 -23.964  0.00  0.00     0.285 C 
ATOM      9  O   UNL d   1      30.444  17.522 -23.527  0.00  0.00    -0.265 OA
BRANCH   8  10
ATOM     10  C   UNL d   1      29.838  16.419 -24.211  0.00  0.00     0.088 A 
ATOM     11  S   UNL d   1      29.134  16.283 -23.798  0.00  0.00    -0.075 SA
ATOM     12  C   UNL d   1      28.633  15.843 -24.304  0.00  0.00     0.064 A 
ATOM     13 BR   UNL d   1      27.878  15.585 -24.124  0.00  0.00    -0.042 Br
ATOM     14  C   UNL d   1      29.057  15.724 -25.022  0.00  0.00     0.014 A 
ATOM     15  C   UNL d   1      29.772  16.080 -24.935  0.00  0.00     0.012 A 
ENDBRANCH   8  10
ENDBRANCH   1   7
BRANCH   4  16
ATOM     16  O   UNL d   1      32.482  15.886 -23.173  0.00  0.00    -0.327 OA
ATOM     17  C   UNL d   1      33.168  15.526 -22.760  0.00  0.00     0.181 C 
ENDBRANCH   4  16
BRANCH   2  18
ATOM     18  N   UNL d   1      32.696  19.098 -24.016  0.00  0.00    -0.114 N 
ATOM     19  O   UNL d   1      32.825  19.328 -24.841  0.00  0.00    -0.532 OA
ATOM     20  O   UNL d   1      32.610  19.674 -23.409  0.00  0.00    -0.532 OA
ENDBRANCH   2  18
TORSDOF 4
ENDMDL
MODEL 3
REMARK VINA RESULT:      -1.2      4.345      6.083
REMARK  4 active torsions:
REMARK  status: ('A' for Active; 'I' for Inactive)
REMARK    1  A    between atoms: C_8  and  N_1 
REMARK    2  A    between atoms: C_2  and  C_4 
REMARK       I    between atoms: C_4  and  N_5 
REMARK    3  A    between atoms: N_5  and  C_7 
REMARK    4  A    between atoms: O_19  and  C_14 
ROOT
ATOM      1  C   UNL d   1      33.229  19.921 -23.179  0.00  0.00     0.108 A 
ATOM      2  C   UNL d   1      33.219  20.697 -22.044  0.00  0.00     0.128 A 
ATOM      3  C   UNL d   1      33.229  19.966 -22.365  0.00  0.00     0.045 A 
ATOM      4  C   UNL d   1      33.219  20.570 -23.641  0.00  0.00     0.112 A 
ATOM      5  C   UNL d   1      33.208  21.360 -22.446  0.00  0.00     0.026 A 
ATOM      6  C   UNL d   1      33.208  21.327 -23.277  0.00  0.00     0.027 A 
ENDROOT
BRANCH   1   7
ATOM      7  N   UNL d   1      33.240  19.122 -23.567  0.00  0.00    -0.206 NA
ATOM      8  C   UNL d   1      32.584  18.619 -23.441  0.00  0.00     0.285 C 
ATOM      9  O   UNL d   1      31.970  18.897 -22.966  0.00  0.00    -0.265 OA
BRANCH   8  10
ATOM     10  C   UNL d   1      32.538  17.862 -23.776  0.00  0.00     0.088 A 
ATOM     11  S   UNL d   1      33.054  17.221 -23.688  0.00  0.00    -0.075 SA
ATOM     12  C   UNL d   1      32.746  16.593 -24.147  0.00  0.00     0.064 A 
ATOM     13 BR   UNL d   1      33.079  15.849 -24.223  0.00  0.00    -0.042 Br
ATOM     14  C   UNL d   1      32.040  16.877 -24.507  0.00  0.00     0.014 A 
ATOM     15  C   UNL d   1      31.943  17.638 -24.266  0.00  0.00     0.012 A 
ENDBRANCH   8  10
ENDBRANCH   1   7
BRANCH   4  16
ATOM     16  O   UNL d   1      33.218  20.537 -24.470  0.00  0.00    -0.327 OA
ATOM     17  C   UNL d   1      33.237  21.288 -24.924  0.00  0.00     0.181 C 
ENDBRANCH   4  16
BRANCH   2  18
ATOM     18  N   UNL d   1      33.219  20.738 -21.149  0.00  0.00    -0.114 N 
ATOM     19  O   UNL d   1      33.241  20.016 -20.672  0.00  0.00    -0.532 OA
ATOM     20  O   UNL d   1      33.198  21.500 -20.792  0.00  0.00    -0.532 OA
ENDBRANCH   2  18
TORSDOF 4
ENDMDL
MODEL 4
REMARK VINA RESULT:      -1.2      4.906      6.332
REMARK  4 active torsions:
REMARK  status: ('A' for Active; 'I' for Inactive)
REMARK    1  A    between atoms: C_8  and  N_1 
REMARK    2  A    between atoms: C_2  and  C_4 
REMARK       I    between atoms: C_4  and  N_5 
REMARK    3  A    between atoms: N_5  and  C_7 
REMARK    4  A    between atoms: O_19  and  C_14 
ROOT
ATOM      1  C   UNL d   1      31.768  17.770 -23.744  0.00  0.00     0.108 A 
ATOM      2  C   UNL d   1      32.151  16.471 -23.980  0.00  0.00     0.128 A 
ATOM      3  C   UNL d   1      32.288  17.159 -23.600  0.00  0.00     0.045 A 
ATOM      4  C   UNL d   1      31.149  17.694 -24.240  0.00  0.00     0.112 A 
ATOM      5  C   UNL d   1      31.565  16.343 -24.472  0.00  0.00     0.026 A 
ATOM      6  C   UNL d   1      31.028  16.958 -24.627  0.00  0.00     0.027 A 
ENDROOT
BRANCH   1   7
ATOM      7  N   UNL d   1      31.894  18.549 -23.336  0.00  0.00    -0.206 NA
ATOM      8  C   UNL d   1      32.657  18.890 -23.376  0.00  0.00     0.285 C 
ATOM      9  O   UNL d   1      33.241  18.482 -23.791  0.00  0.00    -0.265 OA
BRANCH   8  10
ATOM     10  C   UNL d   1      32.834  19.615 -23.015  0.00  0.00     0.088 A 
ATOM     11  S   UNL d   1      32.906  19.792 -22.209  0.00  0.00    -0.075 SA
ATOM     12  C   UNL d   1      33.092  20.605 -22.152  0.00  0.00     0.064 A 
ATOM     13 BR   UNL d   1      33.213  21.021 -21.457  0.00  0.00    -0.042 Br
ATOM     14  C   UNL d   1      33.128  20.904 -22.939  0.00  0.00     0.014 A 
ATOM     15  C   UNL d   1      32.970  20.288 -23.431  0.00  0.00     0.012 A 
ENDBRANCH   8  10
ENDBRANCH   1   7
BRANCH   4  16
ATOM     16  O   UNL d   1      30.614  18.308 -24.395  0.00  0.00    -0.327 OA
ATOM     17  C   UNL d   1      30.074  18.237 -25.084  0.00  0.00     0.181 C 
ENDBRANCH   4  16
BRANCH   2  18
ATOM     18  N   UNL d   1      32.726  15.804 -23.816  0.00  0.00    -0.114 N 
ATOM     19  O   UNL d   1      32.786  15.453 -23.027  0.00  0.00    -0.532 OA
ATOM     20  O   UNL d   1      33.204  15.532 -24.454  0.00  0.00    -0.532 OA
ENDBRANCH   2  18
TORSDOF 4
ENDMDL
MODEL 5
REMARK VINA RESULT:      -1.1      4.302      5.775
REMARK  4 active torsions:
REMARK  status: ('A' for Active; 'I' for Inactive)
REMARK    1  A    between atoms: C_8  and  N_1 
REMARK    2  A    between atoms: C_2  and  C_4 
REMARK       I    between atoms: C_4  and  N_5 
REMARK    3  A    between atoms: N_5  and  C_7 
REMARK    4  A    between atoms: O_19  and  C_14 
ROOT
ATOM      1  C   UNL d   1      33.239  19.844 -22.947  0.00  0.00     0.108 A 
ATOM      2  C   UNL d   1      33.239  21.071 -23.569  0.00  0.00     0.128 A 
ATOM      3  C   UNL d   1      33.240  20.276 -23.639  0.00  0.00     0.045 A 
ATOM      4  C   UNL d   1      33.238  20.191 -22.230  0.00  0.00     0.112 A 
ATOM      5  C   UNL d   1      33.238  21.459 -22.897  0.00  0.00     0.026 A 
ATOM      6  C   UNL d   1      33.237  21.030 -22.185  0.00  0.00     0.027 A 
ENDROOT
BRANCH   1   7
ATOM      7  N   UNL d   1      33.240  18.957 -22.992  0.00  0.00    -0.206 NA
ATOM      8  C   UNL d   1      32.606  18.587 -23.392  0.00  0.00     0.285 C 
ATOM      9  O   UNL d   1      32.021  19.069 -23.718  0.00  0.00    -0.265 OA
BRANCH   8  10
ATOM     10  C   UNL d   1      32.552  17.763 -23.466  0.00  0.00     0.088 A 
ATOM     11  S   UNL d   1      33.119  17.227 -23.743  0.00  0.00    -0.075 SA
ATOM     12  C   UNL d   1      32.777  16.465 -23.701  0.00  0.00     0.064 A 
ATOM     13 BR   UNL d   1      33.141  15.765 -23.919  0.00  0.00    -0.042 Br
ATOM     14  C   UNL d   1      31.999  16.563 -23.393  0.00  0.00     0.014 A 
ATOM     15  C   UNL d   1      31.895  17.349 -23.263  0.00  0.00     0.012 A 
ENDBRANCH   8  10
ENDBRANCH   1   7
BRANCH   4  16
ATOM     16  O   UNL d   1      33.237  19.764 -21.519  0.00  0.00    -0.327 OA
ATOM     17  C   UNL d   1      33.208  20.203 -20.760  0.00  0.00     0.181 C 
ENDBRANCH   4  16
BRANCH   2  18
ATOM     18  N   UNL d   1      33.240  21.538 -24.334  0.00  0.00    -0.114 N 
ATOM     19  O   UNL d   1      33.240  22.403 -24.325  0.00  0.00    -0.532 OA
ATOM     20  O   UNL d   1      33.241  21.107 -25.057  0.00  0.00    -0.532 OA
ENDBRANCH   2  18
TORSDOF 4
ENDMDL
MODEL 6
REMARK VINA RESULT:      -0.9      1.602      2.144
REMARK  4 active torsions:
REMARK  status: ('A' for Active; 'I' for Inactive)
REMARK    1  A    between atoms: C_8  and  N_1 
REMARK    2  A    between atoms: C_2  and  C_4 
REMARK       I    between atoms: C_4  and  N_5 
REMARK    3  A    between atoms: N_5  and  C_7 
REMARK    4  A    between atoms: O_19  and  C_14 
ROOT
ATOM      1  C   UNL d   1      33.192  21.733 -22.215  0.00  0.00     0.108 A 
ATOM      2  C   UNL d   1      33.132  21.987 -23.565  0.00  0.00     0.128 A 
ATOM      3  C   UNL d   1      33.175  22.276 -22.823  0.00  0.00     0.045 A 
ATOM      4  C   UNL d   1      33.165  20.947 -22.347  0.00  0.00     0.112 A 
ATOM      5  C   UNL d   1      33.104  21.233 -23.749  0.00  0.00     0.026 A 
ATOM      6  C   UNL d   1      33.120  20.670 -23.139  0.00  0.00     0.027 A 
ENDROOT
BRANCH   1   7
ATOM      7  N   UNL d   1      33.240  22.023 -21.378  0.00  0.00    -0.206 NA
ATOM      8  C   UNL d   1      32.658  22.566 -21.120  0.00  0.00     0.285 C 
ATOM      9  O   UNL d   1      32.078  22.795 -21.660  0.00  0.00    -0.265 OA
BRANCH   8  10
ATOM     10  C   UNL d   1      32.652  22.872 -20.350  0.00  0.00     0.088 A 
ATOM     11  S   UNL d   1      33.036  22.590 -19.673  0.00  0.00    -0.075 SA
ATOM     12  C   UNL d   1      32.841  23.107 -19.046  0.00  0.00     0.064 A 
ATOM     13 BR   UNL d   1      33.100  23.039 -18.272  0.00  0.00    -0.042 Br
ATOM     14  C   UNL d   1      32.335  23.699 -19.366  0.00  0.00     0.014 A 
ATOM     15  C   UNL d   1      32.241  23.531 -20.146  0.00  0.00     0.012 A 
ENDBRANCH   8  10
ENDBRANCH   1   7
BRANCH   4  16
ATOM     16  O   UNL d   1      33.181  20.385 -21.738  0.00  0.00    -0.327 OA
ATOM     17  C   UNL d   1      32.977  19.551 -21.924  0.00  0.00     0.181 C 
ENDBRANCH   4  16
BRANCH   2  18
ATOM     18  N   UNL d   1      33.114  22.590 -24.228  0.00  0.00    -0.114 N 
ATOM     19  O   UNL d   1      32.995  22.344 -25.049  0.00  0.00    -0.532 OA
ATOM     20  O   UNL d   1      33.218  23.400 -24.023  0.00  0.00    -0.532 OA
ENDBRANCH   2  18
TORSDOF 4
ENDMDL
MODEL 7
REMARK VINA RESULT:      -0.4      3.317      4.813
REMARK  4 active torsions:
REMARK  status: ('A' for Active; 'I' for Inactive)
REMARK    1  A    between atoms: C_8  and  N_1 
REMARK    2  A    between atoms: C_2  and  C_4 
REMARK       I    between atoms: C_4  and  N_5 
REMARK    3  A    between atoms: N_5  and  C_7 
REMARK    4  A    between atoms: O_19  and  C_14 
ROOT
ATOM      1  C   UNL d   1      32.990  20.966 -21.763  0.00  0.00     0.108 A 
ATOM      2  C   UNL d   1      32.565  22.267 -21.632  0.00  0.00     0.128 A 
ATOM      3  C   UNL d   1      32.764  21.665 -22.116  0.00  0.00     0.045 A 
ATOM      4  C   UNL d   1      33.012  20.877 -20.972  0.00  0.00     0.112 A 
ATOM      5  C   UNL d   1      32.569  22.235 -20.856  0.00  0.00     0.026 A 
ATOM      6  C   UNL d   1      32.797  21.527 -20.485  0.00  0.00     0.027 A 
ENDROOT
BRANCH   1   7
ATOM      7  N   UNL d   1      33.218  20.278 -22.276  0.00  0.00    -0.206 NA
ATOM      8  C   UNL d   1      32.613  19.900 -22.713  0.00  0.00     0.285 C 
ATOM      9  O   UNL d   1      31.845  20.191 -22.639  0.00  0.00    -0.265 OA
BRANCH   8  10
ATOM     10  C   UNL d   1      32.765  19.253 -23.208  0.00  0.00     0.088 A 
ATOM     11  S   UNL d   1      32.543  18.462 -23.114  0.00  0.00    -0.075 SA
ATOM     12  C   UNL d   1      32.839  18.043 -23.775  0.00  0.00     0.064 A 
ATOM     13 BR   UNL d   1      32.750  17.241 -23.913  0.00  0.00    -0.042 Br
ATOM     14  C   UNL d   1      33.240  18.603 -24.259  0.00  0.00     0.014 A 
ATOM     15  C   UNL d   1      33.178  19.317 -23.894  0.00  0.00     0.012 A 
ENDBRANCH   8  10
ENDBRANCH   1   7
BRANCH   4  16
ATOM     16  O   UNL d   1      33.239  20.171 -20.600  0.00  0.00    -0.327 OA
ATOM     17  C   UNL d   1      33.241  20.134 -19.723  0.00  0.00     0.181 C 
ENDBRANCH   4  16
BRANCH   2  18
ATOM     18  N   UNL d   1      32.318  23.032 -22.027  0.00  0.00    -0.114 N 
ATOM     19  O   UNL d   1      32.887  23.498 -22.484  0.00  0.00    -0.532 OA
ATOM     20  O   UNL d   1      31.519  23.280 -21.939  0.00  0.00    -0.532 OA
ENDBRANCH   2  18
TORSDOF 4
ENDMDL
MODEL 8
REMARK VINA RESULT:      -0.1      6.908      8.186
REMARK  4 active torsions:
REMARK  status: ('A' for Active; 'I' for Inactive)
REMARK    1  A    between atoms: C_8  and  N_1 
REMARK    2  A    between atoms: C_2  and  C_4 
REMARK       I    between atoms: C_4  and  N_5 
REMARK    3  A    between atoms: N_5  and  C_7 
REMARK    4  A    between atoms: O_19  and  C_14 
ROOT
ATOM      1  C   UNL d   1      31.369  17.310 -24.316  0.00  0.00     0.108 A 
ATOM      2  C   UNL d   1      32.561  16.640 -24.460  0.00  0.00     0.128 A 
ATOM      3  C   UNL d   1      31.796  16.620 -24.234  0.00  0.00     0.045 A 
ATOM      4  C   UNL d   1      31.692  17.978 -24.606  0.00  0.00     0.112 A 
ATOM      5  C   UNL d   1      32.924  17.262 -24.748  0.00  0.00     0.026 A 
ATOM      6  C   UNL d   1      32.500  17.971 -24.836  0.00  0.00     0.027 A 
ENDROOT
BRANCH   1   7
ATOM      7  N   UNL d   1      30.514  17.319 -24.073  0.00  0.00    -0.206 NA
ATOM      8  C   UNL d   1      30.044  16.659 -24.279  0.00  0.00     0.285 C 
ATOM      9  O   UNL d   1      30.403  16.043 -24.693  0.00  0.00    -0.265 OA
BRANCH   8  10
ATOM     10  C   UNL d   1      29.241  16.612 -24.080  0.00  0.00     0.088 A 
ATOM     11  S   UNL d   1      28.744  15.949 -24.073  0.00  0.00    -0.075 SA
ATOM     12  C   UNL d   1      27.988  16.212 -23.829  0.00  0.00     0.064 A 
ATOM     13 BR   UNL d   1      27.324  15.742 -23.743  0.00  0.00    -0.042 Br
ATOM     14  C   UNL d   1      28.049  17.040 -23.693  0.00  0.00     0.014 A 
ATOM     15  C   UNL d   1      28.810  17.249 -23.852  0.00  0.00     0.012 A 
ENDBRANCH   8  10
ENDBRANCH   1   7
BRANCH   4  16
ATOM     16  O   UNL d   1      31.268  18.685 -24.694  0.00  0.00    -0.327 OA
ATOM     17  C   UNL d   1      31.710  19.444 -24.719  0.00  0.00     0.181 C 
ENDBRANCH   4  16
BRANCH   2  18
ATOM     18  N   UNL d   1      33.023  15.878 -24.367  0.00  0.00    -0.114 N 
ATOM     19  O   UNL d   1      33.241  15.584 -23.583  0.00  0.00    -0.532 OA
ATOM     20  O   UNL d   1      33.237  15.461 -25.067  0.00  0.00    -0.532 OA
ENDBRANCH   2  18
TORSDOF 4
ENDMDL
MODEL 9
REMARK VINA RESULT:       0.0      7.613      8.425
REMARK  4 active torsions:
REMARK  status: ('A' for Active; 'I' for Inactive)
REMARK    1  A    between atoms: C_8  and  N_1 
REMARK    2  A    between atoms: C_2  and  C_4 
REMARK       I    between atoms: C_4  and  N_5 
REMARK    3  A    between atoms: N_5  and  C_7 
REMARK    4  A    between atoms: O_19  and  C_14 
ROOT
ATOM      1  C   UNL d   1      29.414  17.100 -24.287  0.00  0.00     0.108 A 
ATOM      2  C   UNL d   1      28.291  16.683 -23.613  0.00  0.00     0.128 A 
ATOM      3  C   UNL d   1      29.024  16.512 -23.877  0.00  0.00     0.045 A 
ATOM      4  C   UNL d   1      29.088  17.814 -24.422  0.00  0.00     0.112 A 
ATOM      5  C   UNL d   1      27.926  17.361 -23.716  0.00  0.00     0.026 A 
ATOM      6  C   UNL d   1      28.314  17.967 -24.131  0.00  0.00     0.027 A 
ENDROOT
BRANCH   1   7
ATOM      7  N   UNL d   1      30.232  16.940 -24.595  0.00  0.00    -0.206 NA
ATOM      8  C   UNL d   1      30.813  16.692 -24.047  0.00  0.00     0.285 C 
ATOM      9  O   UNL d   1      30.588  16.612 -23.257  0.00  0.00    -0.265 OA
BRANCH   8  10
ATOM     10  C   UNL d   1      31.593  16.528 -24.274  0.00  0.00     0.088 A 
ATOM     11  S   UNL d   1      31.896  15.854 -24.646  0.00  0.00    -0.075 SA
ATOM     12  C   UNL d   1      32.717  15.978 -24.749  0.00  0.00     0.064 A 
ATOM     13 BR   UNL d   1      33.241  15.453 -25.094  0.00  0.00    -0.042 Br
ATOM     14  C   UNL d   1      32.891  16.738 -24.430  0.00  0.00     0.014 A 
ATOM     15  C   UNL d   1      32.198  17.041 -24.155  0.00  0.00     0.012 A 
ENDBRANCH   8  10
ENDBRANCH   1   7
BRANCH   4  16
ATOM     16  O   UNL d   1      29.474  18.419 -24.837  0.00  0.00    -0.327 OA
ATOM     17  C   UNL d   1      29.012  19.118 -25.096  0.00  0.00     0.181 C 
ENDBRANCH   4  16
BRANCH   2  18
ATOM     18  N   UNL d   1      27.868  16.033 -23.163  0.00  0.00    -0.114 N 
ATOM     19  O   UNL d   1      27.257  15.555 -23.547  0.00  0.00    -0.532 OA
ATOM     20  O   UNL d   1      28.086  15.906 -22.361  0.00  0.00    -0.532 OA
ENDBRANCH   2  18
TORSDOF 4
ENDMDL
