MODEL 1
REMARK VINA RESULT:      47.4      0.000      0.000
REMARK  4 active torsions:
REMARK  status: ('A' for Active; 'I' for Inactive)
REMARK    1  A    between atoms: C_7  and  C_1 
REMARK    2  A    between atoms: S_4  and  O_12 
REMARK    3  A    between atoms: O_12  and  C_10 
REMARK    4  A    between atoms: C_25  and  C_13 
ROOT
ATOM      1  C   UNL d   1      45.903 -16.054  43.639  0.00  0.00     0.064 A 
ATOM      2  C   UNL d   1      46.200 -17.432  43.843  0.00  0.00     0.062 A 
ATOM      3  C   UNL d   1      46.052 -16.684  44.147  0.00  0.00     0.199 A 
ATOM      4  C   UNL d   1      45.902 -16.174  42.814  0.00  0.00     0.126 A 
ATOM      5  C   UNL d   1      46.201 -17.555  43.027  0.00  0.00     0.105 A 
ATOM      6  O   UNL d   1      46.054 -16.935  42.508  0.00  0.00    -0.305 OA
ATOM      7  C   UNL d   1      46.349 -18.063  44.348  0.00  0.00     0.007 A 
ATOM      8  C   UNL d   1      46.498 -18.930  43.227  0.00  0.00     0.115 A 
ATOM      9  C   UNL d   1      46.349 -18.299  42.719  0.00  0.00     0.050 A 
ATOM     10  C   UNL d   1      46.498 -18.811  44.043  0.00  0.00     0.024 A 
ATOM     11  O   UNL d   1      46.052 -16.566  44.955  0.00  0.00    -0.286 OA
ENDROOT
BRANCH   1  12
ATOM     12  C   UNL d   1      45.754 -15.304  43.947  0.00  0.00     0.007 A 
ATOM     13  C   UNL d   1      46.077 -14.641  43.573  0.00  0.00     0.027 A 
ATOM     14  C   UNL d   1      45.928 -13.892  43.881  0.00  0.00     0.123 A 
ATOM     15  O   UNL d   1      46.254 -13.220  43.503  0.00  0.00    -0.301 OA
ATOM     16  C   UNL d   1      45.457 -13.807  44.562  0.00  0.00     0.123 A 
ATOM     17  C   UNL d   1      46.099 -12.466  43.821  0.00  0.00     0.149 A 
ATOM     18  C   UNL d   1      45.632 -12.382  44.496  0.00  0.00     0.149 A 
ATOM     19  O   UNL d   1      45.309 -13.049  44.871  0.00  0.00    -0.301 OA
ATOM     20  C   UNL d   1      45.144 -14.465  44.923  0.00  0.00     0.027 A 
ATOM     21  C   UNL d   1      45.288 -15.220  44.621  0.00  0.00     0.002 A 
ENDBRANCH   1  12
BRANCH  10  22
ATOM     22  C   UNL d   1      46.647 -19.441  44.552  0.00  0.00     0.002 C 
ATOM     23  C   UNL d   1      46.024 -19.874  44.876  0.00  0.00     0.000 C 
ENDBRANCH  10  22
BRANCH   8  24
ATOM     24  O   UNL d   1      46.646 -19.678  42.919  0.00  0.00    -0.230 OA
BRANCH  24  25
ATOM     25  S   UNL d   1      46.164 -19.984  42.324  0.00  0.00     0.285 S 
ATOM     26  O   UNL d   1      46.646 -19.640  41.750  0.00  0.00    -0.197 OA
ATOM     27  O   UNL d   1      45.679 -20.330  42.895  0.00  0.00    -0.197 OA
ATOM     28  C   UNL d   1      45.678 -20.291  41.732  0.00  0.00     0.172 C 
ENDBRANCH  24  25
ENDBRANCH   8  24
TORSDOF 4
ENDMDL
