MODEL 1
REMARK VINA RESULT:      68.9      0.000      0.000
REMARK  3 active torsions:
REMARK  status: ('A' for Active; 'I' for Inactive)
REMARK    1  A    between atoms: N_5  and  C_2 
REMARK    2  A    between atoms: C_9  and  C_3 
REMARK       I    between atoms: C_7  and  N_5 
REMARK    3  A    between atoms: C_8  and  C_7 
ROOT
ATOM      1  N   UNL d   1      59.233  48.719  50.332  0.00  0.00    -0.200 NA
ATOM      2  C   UNL d   1      60.029  48.777  50.512  0.00  0.00     0.216 A 
ATOM      3  C   UNL d   1      58.826  49.291  50.767  0.00  0.00     0.172 A 
ATOM      4  N   UNL d   1      59.380  49.702  51.219  0.00  0.00    -0.187 NA
ATOM      5  S   UNL d   1      60.131  49.386  51.064  0.00  0.00     0.054 SA
ENDROOT
BRANCH   2   6
ATOM      6  N   UNL d   1      60.631  48.309  50.200  0.00  0.00    -0.181 NA
ATOM      7  C   UNL d   1      60.690  47.523  50.424  0.00  0.00     0.281 C 
ATOM      8  O   UNL d   1      60.152  47.201  50.957  0.00  0.00    -0.265 OA
BRANCH   7   9
ATOM      9  C   UNL d   1      61.293  47.055  50.111  0.00  0.00     0.058 A 
ATOM     10  C   UNL d   1      61.212  46.236  50.095  0.00  0.00     0.006 A 
ATOM     11  C   UNL d   1      61.815  45.767  49.783  0.00  0.00     0.012 A 
ATOM     12  C   UNL d   1      62.499  46.118  49.486  0.00  0.00     0.058 A 
ATOM     13  C   UNL d   1      62.579  46.937  49.502  0.00  0.00     0.012 A 
ATOM     14 CL   UNL d   1      63.102  45.650  49.173  0.00  0.00    -0.082 Cl
ATOM     15  C   UNL d   1      61.976  47.406  49.814  0.00  0.00     0.006 A 
ENDBRANCH   7   9
ENDBRANCH   2   6
BRANCH   3  16
ATOM     16  C   UNL d   1      58.019  49.428  50.755  0.00  0.00     0.036 A 
ATOM     17  C   UNL d   1      57.608  49.515  51.465  0.00  0.00     0.003 A 
ATOM     18  C   UNL d   1      56.787  49.655  51.452  0.00  0.00     0.000 A 
ATOM     19  C   UNL d   1      56.384  49.706  50.727  0.00  0.00     0.000 A 
ATOM     20  C   UNL d   1      56.805  49.617  50.019  0.00  0.00     0.000 A 
ATOM     21  C   UNL d   1      57.617  49.479  50.031  0.00  0.00     0.003 A 
ENDBRANCH   3  16
TORSDOF 3
ENDMDL
