MODEL 1
REMARK VINA RESULT:      88.0      0.000      0.000
REMARK  5 active torsions:
REMARK  status: ('A' for Active; 'I' for Inactive)
REMARK    1  A    between atoms: N_8  and  S_1 
REMARK    2  A    between atoms: C_18  and  S_1 
REMARK    3  A    between atoms: C_13  and  C_3 
REMARK    4  A    between atoms: C_5  and  C_11 
REMARK    5  A    between atoms: C_17  and  N_8 
ROOT
ATOM      1  N   UNL d   1     -59.098 -98.831 -43.818  0.00  0.00    -0.246 NA
ATOM      2  C   UNL d   1     -57.468 -98.875 -44.098  0.00  0.00     0.003 A 
ATOM      3  C   UNL d   1     -57.998 -98.844 -44.731  0.00  0.00     0.018 A 
ATOM      4  C   UNL d   1     -58.571 -98.862 -43.183  0.00  0.00     0.081 A 
ATOM      5  C   UNL d   1     -57.758 -98.884 -43.323  0.00  0.00     0.019 A 
ATOM      6  C   UNL d   1     -58.811 -98.822 -44.591  0.00  0.00     0.081 A 
ATOM      7  C   UNL d   1     -57.709 -98.835 -45.505  0.00  0.00     0.002 A 
ATOM      8  C   UNL d   1     -59.338 -98.791 -45.225  0.00  0.00     0.019 A 
ATOM      9  C   UNL d   1     -58.239 -98.804 -46.139  0.00  0.00     0.000 A 
ATOM     10  C   UNL d   1     -59.052 -98.782 -45.999  0.00  0.00     0.002 A 
ATOM     11  C   UNL d   1     -57.940 -98.797 -46.857  0.00  0.00     0.000 C 
ENDROOT
BRANCH   4  12
ATOM     12  C   UNL d   1     -58.857 -98.872 -42.410  0.00  0.00     0.018 A 
ATOM     13  C   UNL d   1     -58.341 -98.765 -41.777  0.00  0.00     0.003 A 
ATOM     14  C   UNL d   1     -58.627 -98.774 -41.004  0.00  0.00     0.020 A 
ATOM     15  C   UNL d   1     -59.433 -98.890 -40.864  0.00  0.00     0.094 A 
ATOM     16  C   UNL d   1     -59.950 -98.996 -41.497  0.00  0.00     0.020 A 
ATOM     17  C   UNL d   1     -59.662 -98.987 -42.271  0.00  0.00     0.003 A 
BRANCH  15  18
ATOM     18  N   UNL d   1     -59.720 -98.899 -40.091  0.00  0.00    -0.158 NA
BRANCH  18  19
ATOM     19  S   UNL d   1     -59.422 -99.443 -39.546  0.00  0.00     0.286 S 
ATOM     20  O   UNL d   1     -59.144 -99.953 -39.036  0.00  0.00    -0.198 OA
ATOM     21  O   UNL d   1     -59.486 -98.877 -38.947  0.00  0.00    -0.198 OA
BRANCH  19  22
ATOM     22  C   UNL d   1     -59.359-100.007 -40.145  0.00  0.00     0.117 C 
ATOM     23  C   UNL d   1     -59.821-100.643 -39.896  0.00  0.00     0.014 C 
ENDBRANCH  19  22
ENDBRANCH  18  19
ENDBRANCH  15  18
ENDBRANCH   4  12
BRANCH   2  24
ATOM     24  C   UNL d   1     -56.666 -98.897 -44.235  0.00  0.00     0.000 A 
ATOM     25  C   UNL d   1     -56.382 -98.905 -45.008  0.00  0.00     0.000 A 
ATOM     26  C   UNL d   1     -55.567 -98.927 -45.148  0.00  0.00     0.000 A 
ATOM     27  C   UNL d   1     -55.039 -98.941 -44.514  0.00  0.00     0.000 A 
ATOM     28  C   UNL d   1     -55.326 -98.933 -43.740  0.00  0.00     0.000 A 
ATOM     29  C   UNL d   1     -56.141 -98.911 -43.600  0.00  0.00     0.000 A 
ENDBRANCH   2  24
TORSDOF 5
ENDMDL
