MODEL 1
REMARK VINA RESULT:      61.8      0.000      0.000
REMARK  10 active torsions:
REMARK  status: ('A' for Active; 'I' for Inactive)
REMARK    1  A    between atoms: C_19  and  N_1 
REMARK    2  A    between atoms: C_7  and  C_2 
REMARK    3  A    between atoms: S_3  and  N_8 
REMARK    4  A    between atoms: C_13  and  S_3 
REMARK    5  A    between atoms: S_9  and  C_5 
REMARK    6  A    between atoms: N_8  and  C_22 
REMARK    7  A    between atoms: C_17  and  S_9 
REMARK    8  A    between atoms: C_14  and  C_17 
REMARK    9  A    between atoms: C_15  and  C_14 
REMARK   10  A    between atoms: C_23  and  C_19 
ROOT
ATOM      1  C   UNL d   1      13.479  14.219  -5.467  0.00  0.00     0.202 C 
ATOM      2  O   UNL d   1      13.808  14.032  -6.200  0.00  0.00    -0.286 OA
ENDROOT
BRANCH   1   3
ATOM      3  C   UNL d   1      13.245  14.992  -5.303  0.00  0.00     0.080 C 
BRANCH   3   4
ATOM      4  S   UNL d   1      13.814  15.592  -5.237  0.00  0.00    -0.044 SA
BRANCH   4   5
ATOM      5  C   UNL d   1      13.688  16.323  -5.597  0.00  0.00     0.201 A 
ATOM      6  N   UNL d   1      14.088  17.019  -5.429  0.00  0.00    -0.267 N 
ATOM      7  C   UNL d   1      13.787  17.615  -5.916  0.00  0.00     0.177 A 
ATOM      8  N   UNL d   1      13.201  17.279  -6.384  0.00  0.00    -0.127 NA
ATOM      9  N   UNL d   1      13.140  16.477  -6.185  0.00  0.00    -0.121 NA
BRANCH   6  10
ATOM     10  C   UNL d   1      14.684  17.078  -4.862  0.00  0.00     0.084 C 
BRANCH  10  11
ATOM     11  C   UNL d   1      15.066  16.396  -4.593  0.00  0.00     0.019 C 
ATOM     12  C   UNL d   1      15.502  16.417  -3.886  0.00  0.00     0.002 C 
ENDBRANCH  10  11
ENDBRANCH   6  10
BRANCH   7  13
ATOM     13  C   UNL d   1      14.010  18.405  -5.952  0.00  0.00     0.066 A 
ATOM     14  S   UNL d   1      13.629  19.000  -6.377  0.00  0.00    -0.083 SA
ATOM     15  C   UNL d   1      14.046  19.704  -6.251  0.00  0.00     0.035 A 
ATOM     16  C   UNL d   1      14.680  19.535  -5.749  0.00  0.00     0.008 A 
ATOM     17  C   UNL d   1      14.656  18.732  -5.566  0.00  0.00     0.010 A 
ENDBRANCH   7  13
ENDBRANCH   4   5
ENDBRANCH   3   4
ENDBRANCH   1   3
BRANCH   1  18
ATOM     18  C   UNL d   1      13.383  13.629  -4.891  0.00  0.00     0.040 A 
ATOM     19  C   UNL d   1      12.860  13.747  -4.262  0.00  0.00     0.005 A 
ATOM     20  C   UNL d   1      12.770  13.156  -3.693  0.00  0.00     0.020 A 
ATOM     21  C   UNL d   1      13.193  12.458  -3.748  0.00  0.00     0.094 A 
ATOM     22  C   UNL d   1      13.713  12.342  -4.376  0.00  0.00     0.020 A 
ATOM     23  C   UNL d   1      13.809  12.926  -4.947  0.00  0.00     0.005 A 
BRANCH  21  24
ATOM     24  N   UNL d   1      13.097  11.868  -3.172  0.00  0.00    -0.158 NA
BRANCH  24  25
ATOM     25  S   UNL d   1      13.532  11.894  -2.477  0.00  0.00     0.285 S 
ATOM     26  O   UNL d   1      12.839  11.779  -2.032  0.00  0.00    -0.198 OA
ATOM     27  O   UNL d   1      14.226  12.008  -2.917  0.00  0.00    -0.198 OA
BRANCH  25  28
ATOM     28  C   UNL d   1      13.981  11.921  -1.776  0.00  0.00     0.105 A 
ATOM     29  C   UNL d   1      13.623  11.795  -1.043  0.00  0.00     0.013 A 
ATOM     30  C   UNL d   1      14.067  11.823  -0.355  0.00  0.00     0.001 A 
ATOM     31  C   UNL d   1      14.886  11.979  -0.391  0.00  0.00     0.000 A 
ATOM     32  C   UNL d   1      15.244  12.105  -1.123  0.00  0.00     0.001 A 
ATOM     33  C   UNL d   1      14.797  12.077  -1.812  0.00  0.00     0.013 A 
ENDBRANCH  25  28
ENDBRANCH  24  25
ENDBRANCH  21  24
ENDBRANCH   1  18
TORSDOF 10
ENDMDL
MODEL 2
REMARK VINA RESULT:      63.4      1.960      6.760
REMARK  10 active torsions:
REMARK  status: ('A' for Active; 'I' for Inactive)
REMARK    1  A    between atoms: C_19  and  N_1 
REMARK    2  A    between atoms: C_7  and  C_2 
REMARK    3  A    between atoms: S_3  and  N_8 
REMARK    4  A    between atoms: C_13  and  S_3 
REMARK    5  A    between atoms: S_9  and  C_5 
REMARK    6  A    between atoms: N_8  and  C_22 
REMARK    7  A    between atoms: C_17  and  S_9 
REMARK    8  A    between atoms: C_14  and  C_17 
REMARK    9  A    between atoms: C_15  and  C_14 
REMARK   10  A    between atoms: C_23  and  C_19 
ROOT
ATOM      1  C   UNL d   1      14.348  15.304  -4.306  0.00  0.00     0.202 C 
ATOM      2  O   UNL d   1      13.936  14.780  -4.792  0.00  0.00    -0.286 OA
ENDROOT
BRANCH   1   3
ATOM      3  C   UNL d   1      14.535  15.091  -3.533  0.00  0.00     0.080 C 
BRANCH   3   4
ATOM      4  S   UNL d   1      14.079  14.522  -3.137  0.00  0.00    -0.044 SA
BRANCH   4   5
ATOM      5  C   UNL d   1      14.324  14.232  -2.405  0.00  0.00     0.201 A 
ATOM      6  N   UNL d   1      14.159  13.488  -2.102  0.00  0.00    -0.267 N 
ATOM      7  C   UNL d   1      14.510  13.428  -1.356  0.00  0.00     0.177 A 
ATOM      8  N   UNL d   1      14.890  14.141  -1.204  0.00  0.00    -0.127 NA
ATOM      9  N   UNL d   1      14.774  14.640  -1.857  0.00  0.00    -0.121 NA
BRANCH   6  10
ATOM     10  C   UNL d   1      13.716  12.920  -2.502  0.00  0.00     0.084 C 
BRANCH  10  11
ATOM     11  C   UNL d   1      14.091  12.382  -3.005  0.00  0.00     0.019 C 
ATOM     12  C   UNL d   1      13.650  11.782  -3.373  0.00  0.00     0.002 C 
ENDBRANCH  10  11
ENDBRANCH   6  10
BRANCH   7  13
ATOM     13  C   UNL d   1      14.500  12.792  -0.837  0.00  0.00     0.066 A 
ATOM     14  S   UNL d   1      15.156  12.373  -0.567  0.00  0.00    -0.083 SA
ATOM     15  C   UNL d   1      14.883  11.782  -0.056  0.00  0.00     0.035 A 
ATOM     16  C   UNL d   1      14.060  11.842  -0.017  0.00  0.00     0.008 A 
ATOM     17  C   UNL d   1      13.825  12.468  -0.500  0.00  0.00     0.010 A 
ENDBRANCH   7  13
ENDBRANCH   4   5
ENDBRANCH   3   4
ENDBRANCH   1   3
BRANCH   1  18
ATOM     18  C   UNL d   1      14.574  16.049  -4.594  0.00  0.00     0.040 A 
ATOM     19  C   UNL d   1      15.296  16.380  -4.362  0.00  0.00     0.005 A 
ATOM     20  C   UNL d   1      15.514  17.121  -4.653  0.00  0.00     0.020 A 
ATOM     21  C   UNL d   1      15.024  17.527  -5.167  0.00  0.00     0.094 A 
ATOM     22  C   UNL d   1      14.306  17.196  -5.397  0.00  0.00     0.020 A 
ATOM     23  C   UNL d   1      14.081  16.458  -5.111  0.00  0.00     0.005 A 
BRANCH  21  24
ATOM     24  N   UNL d   1      15.250  18.272  -5.455  0.00  0.00    -0.158 NA
BRANCH  24  25
ATOM     25  S   UNL d   1      14.693  18.868  -5.545  0.00  0.00     0.285 S 
ATOM     26  O   UNL d   1      14.216  18.359  -5.997  0.00  0.00    -0.198 OA
ATOM     27  O   UNL d   1      15.166  19.378  -5.094  0.00  0.00    -0.198 OA
BRANCH  25  28
ATOM     28  C   UNL d   1      14.132  19.477  -5.631  0.00  0.00     0.105 A 
ATOM     29  C   UNL d   1      14.063  20.068  -5.059  0.00  0.00     0.013 A 
ATOM     30  C   UNL d   1      13.510  20.666  -5.146  0.00  0.00     0.001 A 
ATOM     31  C   UNL d   1      13.012  20.683  -5.815  0.00  0.00     0.000 A 
ATOM     32  C   UNL d   1      13.081  20.092  -6.387  0.00  0.00     0.001 A 
ATOM     33  C   UNL d   1      13.636  19.492  -6.298  0.00  0.00     0.013 A 
ENDBRANCH  25  28
ENDBRANCH  24  25
ENDBRANCH  21  24
ENDBRANCH   1  18
TORSDOF 10
ENDMDL
