MODEL 1
REMARK VINA RESULT:       6.3      0.000      0.000
REMARK  1 active torsions:
REMARK  status: ('A' for Active; 'I' for Inactive)
REMARK    1  A    between atoms: C_4  and  C_1 
ROOT
ATOM      1  C   UNL d   1      44.280 -15.419  36.605  0.00  0.00     0.036 A 
ATOM      2  C   UNL d   1      44.093 -16.208  36.433  0.00  0.00     0.061 A 
ATOM      3  C   UNL d   1      43.669 -14.878  36.682  0.00  0.00     0.004 A 
ATOM      4  C   UNL d   1      43.321 -16.445  36.343  0.00  0.00     0.023 A 
ATOM      5  C   UNL d   1      42.711 -15.890  36.423  0.00  0.00     0.059 A 
ATOM      6 CL   UNL d   1      44.705 -16.750  36.356  0.00  0.00    -0.082 Cl
ATOM      7  C   UNL d   1      42.879 -15.113  36.591  0.00  0.00     0.011 A 
ATOM      8 CL   UNL d   1      41.934 -16.136  36.330  0.00  0.00    -0.082 Cl
ENDROOT
BRANCH   1   9
ATOM      9  C   UNL d   1      45.062 -15.171  36.698  0.00  0.00     0.136 A 
ATOM     10  S   UNL d   1      45.330 -14.543  37.161  0.00  0.00    -0.024 SA
ATOM     11  C   UNL d   1      46.150 -14.494  37.091  0.00  0.00     0.236 A 
ATOM     12  N   UNL d   1      46.647 -13.947  37.459  0.00  0.00    -0.118 N 
ATOM     13  N   UNL d   1      46.406 -15.105  36.572  0.00  0.00    -0.119 NA
ATOM     14  N   UNL d   1      45.736 -15.521  36.331  0.00  0.00    -0.139 NA
ENDBRANCH   1   9
TORSDOF 1
ENDMDL
MODEL 2
REMARK VINA RESULT:       7.1      2.086      3.132
REMARK  1 active torsions:
REMARK  status: ('A' for Active; 'I' for Inactive)
REMARK    1  A    between atoms: C_4  and  C_1 
ROOT
ATOM      1  C   UNL d   1      44.244 -15.281  36.911  0.00  0.00     0.036 A 
ATOM      2  C   UNL d   1      44.764 -15.836  36.581  0.00  0.00     0.061 A 
ATOM      3  C   UNL d   1      44.543 -14.558  37.154  0.00  0.00     0.004 A 
ATOM      4  C   UNL d   1      45.556 -15.670  36.498  0.00  0.00     0.023 A 
ATOM      5  C   UNL d   1      45.847 -14.936  36.748  0.00  0.00     0.059 A 
ATOM      6 CL   UNL d   1      44.465 -16.561  36.337  0.00  0.00    -0.082 Cl
ATOM      7  C   UNL d   1      45.349 -14.383  37.073  0.00  0.00     0.011 A 
ATOM      8 CL   UNL d   1      46.647 -14.775  36.662  0.00  0.00    -0.082 Cl
ENDROOT
BRANCH   1   9
ATOM      9  C   UNL d   1      43.440 -15.443  36.998  0.00  0.00     0.136 A 
ATOM     10  S   UNL d   1      42.890 -15.562  36.393  0.00  0.00    -0.024 SA
ATOM     11  C   UNL d   1      42.152 -15.706  36.731  0.00  0.00     0.236 A 
ATOM     12  N   UNL d   1      41.445 -15.854  36.332  0.00  0.00    -0.118 N 
ATOM     13  N   UNL d   1      42.237 -15.678  37.567  0.00  0.00    -0.119 NA
ATOM     14  N   UNL d   1      43.029 -15.516  37.731  0.00  0.00    -0.139 NA
ENDBRANCH   1   9
TORSDOF 1
ENDMDL
MODEL 3
REMARK VINA RESULT:       7.3      7.544      7.887
REMARK  1 active torsions:
REMARK  status: ('A' for Active; 'I' for Inactive)
REMARK    1  A    between atoms: C_4  and  C_1 
ROOT
ATOM      1  C   UNL d   1      46.453 -19.072  42.889  0.00  0.00     0.036 A 
ATOM      2  C   UNL d   1      46.533 -19.897  42.844  0.00  0.00     0.061 A 
ATOM      3  C   UNL d   1      46.439 -18.640  42.192  0.00  0.00     0.004 A 
ATOM      4  C   UNL d   1      46.597 -20.272  42.126  0.00  0.00     0.023 A 
ATOM      5  C   UNL d   1      46.581 -19.825  41.428  0.00  0.00     0.059 A 
ATOM      6 CL   UNL d   1      46.548 -20.329  43.542  0.00  0.00    -0.082 Cl
ATOM      7  C   UNL d   1      46.503 -19.018  41.457  0.00  0.00     0.011 A 
ATOM      8 CL   UNL d   1      46.645 -20.211  40.707  0.00  0.00    -0.082 Cl
ENDROOT
BRANCH   1   9
ATOM      9  C   UNL d   1      46.388 -18.684  43.614  0.00  0.00     0.136 A 
ATOM     10  S   UNL d   1      46.091 -17.925  43.744  0.00  0.00    -0.024 SA
ATOM     11  C   UNL d   1      46.130 -17.761  44.552  0.00  0.00     0.236 A 
ATOM     12  N   UNL d   1      45.892 -17.066  44.928  0.00  0.00    -0.118 N 
ATOM     13  N   UNL d   1      46.459 -18.431  44.940  0.00  0.00    -0.119 NA
ATOM     14  N   UNL d   1      46.617 -18.999  44.363  0.00  0.00    -0.139 NA
ENDBRANCH   1   9
TORSDOF 1
ENDMDL
MODEL 4
REMARK VINA RESULT:       7.3      7.401      7.953
REMARK  1 active torsions:
REMARK  status: ('A' for Active; 'I' for Inactive)
REMARK    1  A    between atoms: C_4  and  C_1 
ROOT
ATOM      1  C   UNL d   1      45.575 -14.447  44.196  0.00  0.00     0.036 A 
ATOM      2  C   UNL d   1      45.008 -14.776  44.704  0.00  0.00     0.061 A 
ATOM      3  C   UNL d   1      46.200 -14.916  43.948  0.00  0.00     0.004 A 
ATOM      4  C   UNL d   1      45.067 -15.547  44.954  0.00  0.00     0.023 A 
ATOM      5  C   UNL d   1      45.703 -16.012  44.698  0.00  0.00     0.059 A 
ATOM      6 CL   UNL d   1      44.382 -14.306  44.952  0.00  0.00    -0.082 Cl
ATOM      7  C   UNL d   1      46.266 -15.703  44.200  0.00  0.00     0.011 A 
ATOM      8 CL   UNL d   1      45.757 -16.789  44.954  0.00  0.00    -0.082 Cl
ENDROOT
BRANCH   1   9
ATOM      9  C   UNL d   1      45.521 -13.665  43.937  0.00  0.00     0.136 A 
ATOM     10  S   UNL d   1      45.195 -13.400  43.227  0.00  0.00    -0.024 SA
ATOM     11  C   UNL d   1      45.259 -12.578  43.198  0.00  0.00     0.236 A 
ATOM     12  N   UNL d   1      45.004 -12.083  42.589  0.00  0.00    -0.118 N 
ATOM     13  N   UNL d   1      45.633 -12.319  43.905  0.00  0.00    -0.119 NA
ATOM     14  N   UNL d   1      45.795 -12.988  44.360  0.00  0.00    -0.139 NA
ENDBRANCH   1   9
TORSDOF 1
ENDMDL
