MODEL 1
REMARK VINA RESULT:      70.6      0.000      0.000
REMARK  3 active torsions:
REMARK  status: ('A' for Active; 'I' for Inactive)
REMARK    1  A    between atoms: C_7  and  N_1 
REMARK    2  A    between atoms: N_3  and  C_8 
REMARK    3  A    between atoms: C_11  and  C_4 
ROOT
ATOM      1  N   UNL d   1      60.255  49.060  50.653  0.00  0.00    -0.230 N 
ATOM      2  N   UNL d   1      60.694  48.903  49.982  0.00  0.00    -0.165 NA
ATOM      3  C   UNL d   1      60.785  49.180  51.289  0.00  0.00     0.084 A 
ATOM      4  C   UNL d   1      61.492  48.922  50.186  0.00  0.00     0.103 A 
ATOM      5  C   UNL d   1      61.550  49.091  50.985  0.00  0.00     0.040 A 
ATOM      6  C   UNL d   1      62.079  48.777  49.594  0.00  0.00     0.022 C 
ENDROOT
BRANCH   1   7
ATOM      7  C   UNL d   1      59.439  49.092  50.686  0.00  0.00     0.083 A 
ATOM      8  C   UNL d   1      59.026  48.542  51.135  0.00  0.00     0.021 A 
ATOM      9  C   UNL d   1      58.202  48.573  51.168  0.00  0.00     0.025 A 
ATOM     10  C   UNL d   1      57.785  49.152  50.755  0.00  0.00     0.127 A 
ATOM     11  C   UNL d   1      58.200  49.704  50.305  0.00  0.00     0.025 A 
ATOM     12  C   UNL d   1      59.027  49.670  50.273  0.00  0.00     0.021 A 
BRANCH  10  13
ATOM     13  N   UNL d   1      56.948  49.178  50.793  0.00  0.00    -0.114 N 
ATOM     14  O   UNL d   1      56.495  49.388  51.486  0.00  0.00    -0.532 OA
ATOM     15  O   UNL d   1      56.437  49.002  50.153  0.00  0.00    -0.532 OA
ENDBRANCH  10  13
ENDBRANCH   1   7
BRANCH   3  16
ATOM     16  C   UNL d   1      60.626  49.355  52.084  0.00  0.00     0.018 A 
ATOM     17  C   UNL d   1      59.831  49.463  52.314  0.00  0.00     0.002 A 
ATOM     18  C   UNL d   1      59.651  49.640  53.111  0.00  0.00     0.000 A 
ATOM     19  C   UNL d   1      60.262  49.705  53.659  0.00  0.00     0.000 A 
ATOM     20  C   UNL d   1      61.041  49.598  53.428  0.00  0.00     0.000 A 
ATOM     21  C   UNL d   1      61.238  49.423  52.647  0.00  0.00     0.002 A 
ENDBRANCH   3  16
TORSDOF 3
ENDMDL
MODEL 2
REMARK VINA RESULT:      71.8      1.758      3.280
REMARK  3 active torsions:
REMARK  status: ('A' for Active; 'I' for Inactive)
REMARK    1  A    between atoms: C_7  and  N_1 
REMARK    2  A    between atoms: N_3  and  C_8 
REMARK    3  A    between atoms: C_11  and  C_4 
ROOT
ATOM      1  N   UNL d   1      58.990  49.507  51.363  0.00  0.00    -0.230 N 
ATOM      2  N   UNL d   1      59.775  49.672  51.208  0.00  0.00    -0.165 NA
ATOM      3  C   UNL d   1      58.619  49.298  50.643  0.00  0.00     0.084 A 
ATOM      4  C   UNL d   1      59.905  49.571  50.401  0.00  0.00     0.103 A 
ATOM      5  C   UNL d   1      59.199  49.342  50.053  0.00  0.00     0.040 A 
ATOM      6  C   UNL d   1      60.676  49.705  50.080  0.00  0.00     0.022 C 
ENDROOT
BRANCH   1   7
ATOM      7  C   UNL d   1      58.637  49.543  52.100  0.00  0.00     0.083 A 
ATOM      8  C   UNL d   1      57.821  49.605  52.160  0.00  0.00     0.021 A 
ATOM      9  C   UNL d   1      57.464  49.642  52.903  0.00  0.00     0.025 A 
ATOM     10  C   UNL d   1      57.918  49.617  53.590  0.00  0.00     0.127 A 
ATOM     11  C   UNL d   1      58.738  49.555  53.530  0.00  0.00     0.025 A 
ATOM     12  C   UNL d   1      59.094  49.518  52.782  0.00  0.00     0.021 A 
BRANCH  10  13
ATOM     13  N   UNL d   1      57.550  49.654  54.342  0.00  0.00    -0.114 N 
ATOM     14  O   UNL d   1      56.707  49.696  54.475  0.00  0.00    -0.532 OA
ATOM     15  O   UNL d   1      57.960  49.656  55.074  0.00  0.00    -0.532 OA
ENDBRANCH  10  13
ENDBRANCH   1   7
BRANCH   3  16
ATOM     16  C   UNL d   1      57.832  49.083  50.496  0.00  0.00     0.018 A 
ATOM     17  C   UNL d   1      57.252  49.684  50.486  0.00  0.00     0.002 A 
ATOM     18  C   UNL d   1      56.454  49.486  50.339  0.00  0.00     0.000 A 
ATOM     19  C   UNL d   1      56.250  48.699  50.207  0.00  0.00     0.000 A 
ATOM     20  C   UNL d   1      56.823  48.113  50.218  0.00  0.00     0.000 A 
ATOM     21  C   UNL d   1      57.615  48.289  50.360  0.00  0.00     0.002 A 
ENDBRANCH   3  16
TORSDOF 3
ENDMDL
