MODEL 1
REMARK VINA RESULT:      78.8      0.000      0.000
REMARK  3 active torsions:
REMARK  status: ('A' for Active; 'I' for Inactive)
REMARK    1  A    between atoms: C_12  and  C_9 
REMARK    2  A    between atoms: O_26  and  C_19 
REMARK    3  A    between atoms: O_27  and  C_22 
ROOT
ATOM      1  C   UNL d   1     -57.525 -98.756 -43.415  0.00  0.00     0.156 A 
ATOM      2  C   UNL d   1     -58.039 -98.756 -44.059  0.00  0.00     0.091 A 
ATOM      3  N   UNL d   1     -57.820 -98.756 -42.649  0.00  0.00    -0.241 N 
ATOM      4  N   UNL d   1     -59.146 -98.756 -43.166  0.00  0.00    -0.224 N 
ATOM      5  C   UNL d   1     -58.628 -98.756 -42.525  0.00  0.00     0.343 A 
ATOM      6  C   UNL d   1     -58.853 -98.756 -43.930  0.00  0.00     0.271 A 
ATOM      7  C   UNL d   1     -56.933 -98.757 -44.952  0.00  0.00     0.056 A 
ATOM      8  N   UNL d   1     -56.713 -98.757 -43.542  0.00  0.00    -0.228 NA
ATOM      9  C   UNL d   1     -57.747 -98.757 -44.823  0.00  0.00     0.012 A 
ATOM     10  C   UNL d   1     -56.414 -98.757 -44.302  0.00  0.00     0.082 A 
ATOM     11  C   UNL d   1     -56.638 -98.757 -45.718  0.00  0.00     0.193 A 
ATOM     12  C   UNL d   1     -55.602 -98.757 -44.428  0.00  0.00    -0.003 A 
ATOM     13  C   UNL d   1     -55.301 -98.757 -45.194  0.00  0.00     0.042 A 
ATOM     14  O   UNL d   1     -58.926 -98.755 -41.756  0.00  0.00    -0.245 OA
ATOM     15  C   UNL d   1     -55.821 -98.757 -45.838  0.00  0.00     0.019 A 
ATOM     16  O   UNL d   1     -59.264 -98.756 -44.406  0.00  0.00    -0.266 OA
ATOM     17  O   UNL d   1     -57.095 -98.757 -46.278  0.00  0.00    -0.287 OA
ATOM     18  C   UNL d   1     -57.303 -98.756 -42.009  0.00  0.00     0.105 C 
ATOM     19  C   UNL d   1     -59.960 -98.755 -43.037  0.00  0.00     0.107 C 
ATOM     20  C   UNL d   1     -54.886 -98.758 -44.680  0.00  0.00     0.009 C 
ATOM     21  C   UNL d   1     -55.009 -98.758 -45.964  0.00  0.00     0.009 C 
ENDROOT
BRANCH   9  22
ATOM     22  C   UNL d   1     -58.295 -98.756 -45.502  0.00  0.00     0.003 A 
ATOM     23  C   UNL d   1     -57.967 -98.756 -46.408  0.00  0.00     0.026 A 
ATOM     24  C   UNL d   1     -58.557 -98.756 -47.054  0.00  0.00     0.116 A 
ATOM     25  C   UNL d   1     -59.394 -98.756 -46.864  0.00  0.00     0.116 A 
ATOM     26  C   UNL d   1     -59.660 -98.756 -46.036  0.00  0.00     0.026 A 
ATOM     27  C   UNL d   1     -59.081 -98.757 -45.398  0.00  0.00     0.002 A 
BRANCH  24  28
ATOM     28  O   UNL d   1     -58.287 -98.756 -47.870  0.00  0.00    -0.326 OA
ATOM     29  C   UNL d   1     -58.824 -98.989 -48.509  0.00  0.00     0.181 C 
ENDBRANCH  24  28
BRANCH  25  30
ATOM     30  O   UNL d   1     -59.961 -98.756 -47.502  0.00  0.00    -0.326 OA
ATOM     31  C   UNL d   1     -59.887 -99.311 -48.167  0.00  0.00     0.181 C 
ENDBRANCH  25  30
ENDBRANCH   9  22
TORSDOF 3
ENDMDL
