MODEL 1
REMARK VINA RESULT:      -0.5      0.000      0.000
REMARK  4 active torsions:
REMARK  status: ('A' for Active; 'I' for Inactive)
REMARK    1  A    between atoms: C_5  and  N_1 
REMARK    2  A    between atoms: C_7  and  C_3 
REMARK    3  A    between atoms: C_8  and  C_4 
REMARK    4  A    between atoms: N_10  and  C_5 
ROOT
ATOM      1  N   UNL d   1      32.460  17.590 -23.361  0.00  0.00    -0.203 N 
ATOM      2  N   UNL d   1      32.858  18.208 -22.980  0.00  0.00    -0.163 NA
ATOM      3  C   UNL d   1      32.370  18.846 -22.906  0.00  0.00     0.103 A 
ATOM      4  C   UNL d   1      31.685  17.848 -23.535  0.00  0.00     0.087 A 
ATOM      5  C   UNL d   1      31.623  18.625 -23.256  0.00  0.00     0.040 A 
ENDROOT
BRANCH   3   6
ATOM      6  C   UNL d   1      32.579  19.571 -22.551  0.00  0.00     0.019 A 
ATOM      7  C   UNL d   1      32.648  19.636 -21.733  0.00  0.00     0.002 A 
ATOM      8  C   UNL d   1      32.858  20.371 -21.396  0.00  0.00     0.000 A 
ATOM      9  C   UNL d   1      32.993  21.018 -21.876  0.00  0.00     0.000 A 
ATOM     10  C   UNL d   1      32.919  20.935 -22.693  0.00  0.00     0.000 A 
ATOM     11  C   UNL d   1      33.240  21.868 -21.428  0.00  0.00     0.000 C 
ATOM     12  C   UNL d   1      32.716  20.225 -23.027  0.00  0.00     0.002 A 
ENDBRANCH   3   6
BRANCH   1  13
ATOM     13  C   UNL d   1      32.774  16.829 -23.544  0.00  0.00     0.222 C 
ATOM     14  S   UNL d   1      33.232  16.734 -24.250  0.00  0.00    -0.037 SA
BRANCH  13  15
ATOM     15  N   UNL d   1      32.641  16.163 -23.040  0.00  0.00    -0.214 NA
ATOM     16  C   UNL d   1      33.176  15.526 -23.044  0.00  0.00     0.122 C 
ENDBRANCH  13  15
ENDBRANCH   1  13
BRANCH   4  17
ATOM     17  C   UNL d   1      31.074  17.436 -23.910  0.00  0.00     0.018 A 
ATOM     18  C   UNL d   1      30.978  17.473 -24.724  0.00  0.00     0.002 A 
ATOM     19  C   UNL d   1      30.370  17.062 -25.097  0.00  0.00     0.007 A 
ATOM     20  C   UNL d   1      29.852  16.609 -24.647  0.00  0.00     0.035 A 
ATOM     21  C   UNL d   1      29.935  16.564 -23.850  0.00  0.00     0.007 A 
ATOM     22 BR   UNL d   1      29.239  16.198 -25.047  0.00  0.00    -0.049 Br
ATOM     23  C   UNL d   1      30.546  16.976 -23.474  0.00  0.00     0.002 A 
ENDBRANCH   4  17
TORSDOF 4
ENDMDL
