MODEL 1
REMARK VINA RESULT:      35.7      0.000      0.000
REMARK  5 active torsions:
REMARK  status: ('A' for Active; 'I' for Inactive)
REMARK    1  A    between atoms: S_3  and  N_1 
REMARK    2  A    between atoms: C_7  and  C_4 
REMARK    3  A    between atoms: C_8  and  C_5 
REMARK    4  A    between atoms: O_21  and  C_13 
REMARK    5  A    between atoms: O_22  and  C_15 
ROOT
ATOM      1  N   UNL d   1      13.682  12.361  -3.441  0.00  0.00    -0.155 N 
ATOM      2  N   UNL d   1      13.870  11.913  -2.788  0.00  0.00    -0.155 NA
ATOM      3  C   UNL d   1      14.029  12.421  -2.161  0.00  0.00     0.110 A 
ATOM      4  C   UNL d   1      13.725  13.153  -3.217  0.00  0.00     0.096 A 
ATOM      5  C   UNL d   1      13.938  13.184  -2.430  0.00  0.00     0.041 A 
ENDROOT
BRANCH   4   6
ATOM      6  C   UNL d   1      13.577  13.799  -3.704  0.00  0.00     0.021 A 
ATOM      7  C   UNL d   1      14.038  14.479  -3.636  0.00  0.00     0.028 A 
ATOM      8  C   UNL d   1      13.890  15.129  -4.126  0.00  0.00     0.116 A 
ATOM      9  C   UNL d   1      13.282  15.095  -4.680  0.00  0.00     0.116 A 
ATOM     10  C   UNL d   1      12.821  14.415  -4.748  0.00  0.00     0.026 A 
ATOM     11  C   UNL d   1      12.969  13.769  -4.261  0.00  0.00     0.004 A 
BRANCH   8  12
ATOM     12  O   UNL d   1      14.351  15.810  -4.058  0.00  0.00    -0.326 OA
ATOM     13  C   UNL d   1      14.568  16.088  -3.315  0.00  0.00     0.181 C 
ENDBRANCH   8  12
BRANCH   9  14
ATOM     14  O   UNL d   1      13.134  15.745  -5.170  0.00  0.00    -0.326 OA
ATOM     15  C   UNL d   1      13.381  15.735  -5.959  0.00  0.00     0.181 C 
ENDBRANCH   9  14
ENDBRANCH   4   6
BRANCH   1  16
ATOM     16  S   UNL d   1      13.487  12.077  -4.180  0.00  0.00     0.266 S 
ATOM     17  O   UNL d   1      13.271  11.779  -4.936  0.00  0.00    -0.203 OA
ATOM     18  O   UNL d   1      14.209  12.335  -4.474  0.00  0.00    -0.203 OA
ATOM     19  C   UNL d   1      12.769  11.820  -3.892  0.00  0.00     0.165 C 
ENDBRANCH   1  16
BRANCH   3  20
ATOM     20  C   UNL d   1      14.244  12.187  -1.394  0.00  0.00     0.049 A 
ATOM     21  S   UNL d   1      15.014  12.126  -1.112  0.00  0.00    -0.085 SA
ATOM     22  C   UNL d   1      14.994  11.872  -0.310  0.00  0.00     0.035 A 
ATOM     23  C   UNL d   1      14.196  11.782  -0.114  0.00  0.00     0.007 A 
ATOM     24  C   UNL d   1      13.742  11.979  -0.789  0.00  0.00     0.009 A 
ENDBRANCH   3  20
TORSDOF 5
ENDMDL
MODEL 2
REMARK VINA RESULT:      37.5      2.152      3.382
REMARK  5 active torsions:
REMARK  status: ('A' for Active; 'I' for Inactive)
REMARK    1  A    between atoms: S_3  and  N_1 
REMARK    2  A    between atoms: C_7  and  C_4 
REMARK    3  A    between atoms: C_8  and  C_5 
REMARK    4  A    between atoms: O_21  and  C_13 
REMARK    5  A    between atoms: O_22  and  C_15 
ROOT
ATOM      1  N   UNL d   1      14.725  13.341  -0.988  0.00  0.00    -0.155 N 
ATOM      2  N   UNL d   1      15.038  13.979  -0.592  0.00  0.00    -0.155 NA
ATOM      3  C   UNL d   1      14.937  14.649  -1.060  0.00  0.00     0.110 A 
ATOM      4  C   UNL d   1      14.428  13.616  -1.705  0.00  0.00     0.096 A 
ATOM      5  C   UNL d   1      14.561  14.420  -1.744  0.00  0.00     0.041 A 
ENDROOT
BRANCH   4   6
ATOM      6  C   UNL d   1      14.061  13.159  -2.281  0.00  0.00     0.021 A 
ATOM      7  C   UNL d   1      13.803  13.508  -2.982  0.00  0.00     0.028 A 
ATOM      8  C   UNL d   1      13.434  13.047  -3.562  0.00  0.00     0.116 A 
ATOM      9  C   UNL d   1      13.324  12.241  -3.437  0.00  0.00     0.116 A 
ATOM     10  C   UNL d   1      13.582  11.892  -2.736  0.00  0.00     0.026 A 
ATOM     11  C   UNL d   1      13.949  12.349  -2.160  0.00  0.00     0.004 A 
BRANCH   8  12
ATOM     12  O   UNL d   1      13.176  13.396  -4.264  0.00  0.00    -0.326 OA
ATOM     13  C   UNL d   1      12.958  14.189  -4.273  0.00  0.00     0.181 C 
ENDBRANCH   8  12
BRANCH   9  14
ATOM     14  O   UNL d   1      12.955  11.780  -4.017  0.00  0.00    -0.326 OA
ATOM     15  C   UNL d   1      13.230  11.795  -4.796  0.00  0.00     0.181 C 
ENDBRANCH   9  14
ENDBRANCH   4   6
BRANCH   1  16
ATOM     16  S   UNL d   1      14.709  12.570  -0.721  0.00  0.00     0.266 S 
ATOM     17  O   UNL d   1      14.684  11.781  -0.433  0.00  0.00    -0.203 OA
ATOM     18  O   UNL d   1      15.104  12.324  -1.398  0.00  0.00    -0.203 OA
ATOM     19  C   UNL d   1      14.317  12.811  -0.048  0.00  0.00     0.165 C 
ENDBRANCH   1  16
BRANCH   3  20
ATOM     20  C   UNL d   1      15.181  15.417  -0.859  0.00  0.00     0.049 A 
ATOM     21  S   UNL d   1      14.896  16.111  -1.197  0.00  0.00    -0.085 SA
ATOM     22  C   UNL d   1      15.282  16.768  -0.842  0.00  0.00     0.035 A 
ATOM     23  C   UNL d   1      15.806  16.457  -0.283  0.00  0.00     0.007 A 
ATOM     24  C   UNL d   1      15.736  15.624  -0.302  0.00  0.00     0.009 A 
ENDBRANCH   3  20
TORSDOF 5
ENDMDL
