MODEL 1
REMARK VINA RESULT:      22.6      0.000      0.000
REMARK  3 active torsions:
REMARK  status: ('A' for Active; 'I' for Inactive)
REMARK    1  A    between atoms: C_5  and  C_1 
REMARK    2  A    between atoms: N_11  and  C_9 
REMARK    3  A    between atoms: C_17  and  N_11 
ROOT
ATOM      1  C   UNL d   1      46.010 -18.327  42.094  0.00  0.00     0.075 A 
ATOM      2  C   UNL d   1      45.975 -17.892  42.787  0.00  0.00     0.004 A 
ATOM      3  C   UNL d   1      46.164 -18.260  43.511  0.00  0.00     0.004 A 
ATOM      4  C   UNL d   1      46.235 -19.137  42.111  0.00  0.00     0.046 A 
ATOM      5  C   UNL d   1      46.419 -19.496  42.811  0.00  0.00     0.196 A 
ATOM      6  C   UNL d   1      46.384 -19.059  43.509  0.00  0.00     0.039 A 
ATOM      7  C   UNL d   1      46.129 -17.822  44.210  0.00  0.00     0.018 A 
ATOM      8  C   UNL d   1      45.904 -17.014  44.188  0.00  0.00     0.081 A 
ATOM      9  C   UNL d   1      45.758 -17.111  42.770  0.00  0.00     0.002 A 
ATOM     10  C   UNL d   1      45.723 -16.673  43.469  0.00  0.00     0.019 A 
ATOM     11  O   UNL d   1      46.646 -20.329  42.793  0.00  0.00    -0.287 OA
ATOM     12  C   UNL d   1      46.579 -19.440  44.248  0.00  0.00     0.003 A 
ATOM     13  C   UNL d   1      46.324 -18.200  44.953  0.00  0.00     0.002 A 
ATOM     14  C   UNL d   1      46.537 -18.974  44.953  0.00  0.00     0.000 A 
ENDROOT
BRANCH   8  15
ATOM     15  N   UNL d   1      45.869 -16.576  44.885  0.00  0.00    -0.246 NA
BRANCH  15  16
ATOM     16  C   UNL d   1      45.665 -15.768  44.864  0.00  0.00     0.081 A 
ATOM     17  C   UNL d   1      46.269 -15.186  44.859  0.00  0.00     0.019 A 
ATOM     18  C   UNL d   1      46.063 -14.382  44.838  0.00  0.00     0.002 A 
ATOM     19  C   UNL d   1      45.300 -14.163  44.823  0.00  0.00     0.000 A 
ATOM     20  C   UNL d   1      44.695 -14.712  44.827  0.00  0.00     0.002 A 
ATOM     21  C   UNL d   1      44.879 -15.515  44.848  0.00  0.00     0.019 A 
ENDBRANCH  15  16
ENDBRANCH   8  15
BRANCH   1  22
ATOM     22  C   UNL d   1      45.815 -17.951  41.346  0.00  0.00     0.419 C 
ATOM     23  F   UNL d   1      45.637 -17.589  40.627  0.00  0.00    -0.166 F 
ATOM     24  F   UNL d   1      45.000 -18.062  41.509  0.00  0.00    -0.166 F 
ATOM     25  F   UNL d   1      46.642 -17.853  41.210  0.00  0.00    -0.166 F 
ENDBRANCH   1  22
TORSDOF 3
ENDMDL
