MODEL 1
REMARK VINA RESULT:      -1.4      0.000      0.000
REMARK  3 active torsions:
REMARK  status: ('A' for Active; 'I' for Inactive)
REMARK    1  A    between atoms: S_5  and  C_3 
REMARK    2  A    between atoms: C_12  and  S_5 
REMARK    3  A    between atoms: C_23  and  N_6 
ROOT
ATOM      1  C   UNL d   1      59.004  -0.847  30.318  0.00  0.00     0.155 A 
ATOM      2  C   UNL d   1      58.398  -1.392  30.351  0.00  0.00     0.092 A 
ATOM      3  C   UNL d   1      57.717  -0.574  31.282  0.00  0.00     0.124 A 
ATOM      4  N   UNL d   1      59.652  -0.985  29.833  0.00  0.00    -0.210 NA
ATOM      5  N   UNL d   1      58.975  -0.172  30.758  0.00  0.00    -0.273 N 
ATOM      6  C   UNL d   1      58.331  -0.022  31.249  0.00  0.00     0.181 A 
ATOM      7  C   UNL d   1      58.431  -2.079  29.901  0.00  0.00     0.269 A 
ATOM      8  N   UNL d   1      59.076  -2.214  29.419  0.00  0.00    -0.258 N 
ATOM      9  C   UNL d   1      57.753  -1.257  30.832  0.00  0.00     0.022 A 
ATOM     10  C   UNL d   1      59.689  -1.663  29.387  0.00  0.00     0.152 A 
ATOM     11  N   UNL d   1      58.301   0.675  31.704  0.00  0.00    -0.128 N 
ATOM     12  C   UNL d   1      59.117  -2.897  28.967  0.00  0.00     0.084 A 
ATOM     13  O   UNL d   1      57.811  -2.637  29.934  0.00  0.00    -0.266 OA
ATOM     14  C   UNL d   1      60.336  -1.800  28.902  0.00  0.00     0.038 A 
ATOM     15  C   UNL d   1      59.760  -3.029  28.488  0.00  0.00     0.019 A 
ATOM     16  C   UNL d   1      60.373  -2.478  28.455  0.00  0.00     0.005 A 
ENDROOT
BRANCH   3  17
ATOM     17  S   UNL d   1      57.062  -0.426  31.779  0.00  0.00     0.213 S 
ATOM     18  O   UNL d   1      56.681   0.007  31.176  0.00  0.00    -0.217 OA
ATOM     19  O   UNL d   1      57.439  -0.857  32.383  0.00  0.00    -0.217 OA
BRANCH  17  20
ATOM     20  C   UNL d   1      56.415  -0.286  32.288  0.00  0.00     0.088 A 
ATOM     21  C   UNL d   1      55.997  -0.922  32.613  0.00  0.00     0.014 A 
ATOM     22  C   UNL d   1      55.356  -0.779  33.117  0.00  0.00     0.030 A 
ATOM     23  C   UNL d   1      55.128  -0.004  33.301  0.00  0.00     0.140 A 
ATOM     24  C   UNL d   1      55.555   0.638  32.967  0.00  0.00     0.030 A 
ATOM     25  F   UNL d   1      54.483   0.142  33.808  0.00  0.00    -0.204 F 
ATOM     26  C   UNL d   1      56.196   0.496  32.464  0.00  0.00     0.014 A 
ENDBRANCH  17  20
ENDBRANCH   3  17
BRANCH   5  27
ATOM     27  C   UNL d   1      59.598   0.389  30.725  0.00  0.00     0.083 C 
ATOM     28  C   UNL d   1      60.204   0.360  31.306  0.00  0.00     0.021 C 
ENDBRANCH   5  27
TORSDOF 3
ENDMDL
