MODEL 1
REMARK VINA RESULT:      20.0      0.000      0.000
REMARK  4 active torsions:
REMARK  status: ('A' for Active; 'I' for Inactive)
REMARK    1  A    between atoms: C_5  and  N_1 
REMARK    2  A    between atoms: C_7  and  C_3 
REMARK    3  A    between atoms: C_10  and  C_4 
REMARK    4  A    between atoms: N_11  and  C_5 
ROOT
ATOM      1  N   UNL d   1      46.004 -18.223  44.135  0.00  0.00    -0.203 N 
ATOM      2  N   UNL d   1      45.843 -17.554  44.599  0.00  0.00    -0.163 NA
ATOM      3  C   UNL d   1      46.122 -17.979  43.357  0.00  0.00     0.088 A 
ATOM      4  C   UNL d   1      45.863 -16.887  44.095  0.00  0.00     0.103 A 
ATOM      5  C   UNL d   1      46.035 -17.153  43.333  0.00  0.00     0.040 A 
ENDROOT
BRANCH   3   6
ATOM      6  C   UNL d   1      46.297 -18.438  42.689  0.00  0.00     0.028 A 
ATOM      7  C   UNL d   1      46.377 -18.081  41.961  0.00  0.00     0.059 A 
ATOM      8 CL   UNL d   1      46.316 -17.604  41.957  0.00  0.00    -0.082 Cl
ATOM      9  C   UNL d   1      46.552 -18.532  41.290  0.00  0.00     0.011 A 
ATOM     10  C   UNL d   1      46.646 -19.344  41.354  0.00  0.00     0.001 A 
ATOM     11  C   UNL d   1      46.562 -19.695  42.101  0.00  0.00     0.000 A 
ATOM     12  C   UNL d   1      46.391 -19.242  42.749  0.00  0.00     0.002 A 
ENDBRANCH   3   6
BRANCH   1  13
ATOM     13  C   UNL d   1      46.037 -19.016  44.426  0.00  0.00     0.222 C 
ATOM     14  S   UNL d   1      46.646 -19.225  44.951  0.00  0.00    -0.037 SA
BRANCH  13  15
ATOM     15  N   UNL d   1      45.467 -19.572  44.185  0.00  0.00    -0.214 NA
ATOM     16  C   UNL d   1      45.334 -20.259  44.652  0.00  0.00     0.122 C 
ENDBRANCH  13  15
ENDBRANCH   1  13
BRANCH   4  17
ATOM     17  C   UNL d   1      45.734 -16.120  44.331  0.00  0.00     0.019 A 
ATOM     18  C   UNL d   1      44.960 -15.854  44.432  0.00  0.00     0.002 A 
ATOM     19  C   UNL d   1      44.816 -15.077  44.670  0.00  0.00     0.000 A 
ATOM     20  C   UNL d   1      45.444 -14.563  44.809  0.00  0.00     0.000 A 
ATOM     21  C   UNL d   1      46.213 -14.822  44.710  0.00  0.00     0.000 A 
ATOM     22  C   UNL d   1      46.358 -15.599  44.471  0.00  0.00     0.002 A 
ENDBRANCH   4  17
TORSDOF 4
ENDMDL
