MODEL 1
REMARK VINA RESULT:      31.6      0.000      0.000
REMARK  3 active torsions:
REMARK  status: ('A' for Active; 'I' for Inactive)
REMARK    1  A    between atoms: N_2  and  S_1 
REMARK    2  A    between atoms: C_4  and  S_1 
REMARK       I    between atoms: C_8  and  N_10 
REMARK    3  A    between atoms: N_10  and  C_16 
ROOT
ATOM      1  S   UNL d   1     -54.818-102.062 -39.044  0.00  0.00     0.271 S 
ATOM      2  O   UNL d   1     -54.923-102.878 -39.068  0.00  0.00    -0.200 OA
ATOM      3  O   UNL d   1     -54.712-101.244 -39.023  0.00  0.00    -0.200 OA
ENDROOT
BRANCH   1   4
ATOM      4  N   UNL d   1     -54.840-102.085 -38.221  0.00  0.00    -0.229 N 
ATOM      5  C   UNL d   1     -54.828-101.375 -37.796  0.00  0.00     0.092 A 
ATOM      6  C   UNL d   1     -54.851-101.393 -36.975  0.00  0.00     0.018 A 
ATOM      7  C   UNL d   1     -54.838-100.685 -36.554  0.00  0.00     0.002 A 
ATOM      8  C   UNL d   1     -54.885-102.113 -36.574  0.00  0.00     0.003 A 
ATOM      9  C   UNL d   1     -54.861-100.704 -35.733  0.00  0.00     0.000 A 
ATOM     10  C   UNL d   1     -54.895-101.421 -35.329  0.00  0.00     0.000 A 
ATOM     11  C   UNL d   1     -54.908-102.128 -35.756  0.00  0.00     0.000 A 
ATOM     12  C   UNL d   1     -54.898-102.816 -37.004  0.00  0.00     0.020 A 
ATOM     13  C   UNL d   1     -54.875-102.801 -37.831  0.00  0.00     0.092 A 
ENDBRANCH   1   4
BRANCH   1  14
ATOM     14  C   UNL d   1     -54.796-102.048 -39.871  0.00  0.00     0.104 A 
ATOM     15  C   UNL d   1     -54.771-102.761 -40.290  0.00  0.00     0.014 A 
ATOM     16  C   UNL d   1     -54.750-102.740 -41.115  0.00  0.00     0.020 A 
ATOM     17  C   UNL d   1     -54.752-102.019 -41.516  0.00  0.00     0.085 A 
ATOM     18  C   UNL d   1     -54.777-101.313 -41.083  0.00  0.00     0.020 A 
ATOM     19  C   UNL d   1     -54.799-101.331 -40.264  0.00  0.00     0.014 A 
BRANCH  17  20
ATOM     20  N   UNL d   1     -54.731-102.009 -42.335  0.00  0.00    -0.208 NA
ATOM     21  C   UNL d   1     -54.743-101.298 -42.745  0.00  0.00     0.279 C 
ATOM     22  O   UNL d   1     -54.778-100.584 -42.332  0.00  0.00    -0.265 OA
ATOM     23  C   UNL d   1     -54.721-101.288 -43.570  0.00  0.00     0.068 C 
ENDBRANCH  17  20
ENDBRANCH   1  14
TORSDOF 3
ENDMDL
