MODEL 1
REMARK VINA RESULT:      69.7      0.000      0.000
REMARK  7 active torsions:
REMARK  status: ('A' for Active; 'I' for Inactive)
REMARK    1  A    between atoms: C_7  and  C_1 
REMARK    2  A    between atoms: C_11  and  N_2 
REMARK    3  A    between atoms: C_10  and  C_5 
REMARK    4  A    between atoms: C_6  and  C_7 
REMARK    5  A    between atoms: C_18  and  C_11 
REMARK    6  A    between atoms: O_20  and  C_15 
REMARK    7  A    between atoms: N_19  and  C_18 
ROOT
ATOM      1  C   UNL d   1      13.409  13.244  -3.667  0.00  0.00     0.101 A 
ATOM      2  N   UNL d   1      13.385  14.259  -4.534  0.00  0.00    -0.269 N 
ATOM      3  C   UNL d   1      13.396  13.951  -3.236  0.00  0.00     0.256 A 
ATOM      4  C   UNL d   1      13.381  14.575  -3.769  0.00  0.00     0.304 A 
ATOM      5  C   UNL d   1      13.402  13.442  -4.467  0.00  0.00     0.075 A 
ATOM      6  O   UNL d   1      13.365  15.382  -3.572  0.00  0.00    -0.263 OA
ATOM      7  O   UNL d   1      13.398  14.019  -2.407  0.00  0.00    -0.281 OA
ENDROOT
BRANCH   1   8
ATOM      8  C   UNL d   1      13.426  12.484  -3.348  0.00  0.00     0.223 C 
ATOM      9  O   UNL d   1      13.116  11.848  -3.777  0.00  0.00    -0.284 OA
BRANCH   8  10
ATOM     10  C   UNL d   1      13.751  12.349  -2.602  0.00  0.00     0.139 A 
ATOM     11  O   UNL d   1      13.342  12.083  -1.933  0.00  0.00    -0.304 OA
ATOM     12  C   UNL d   1      13.884  12.028  -1.316  0.00  0.00     0.100 A 
ATOM     13  C   UNL d   1      13.793  11.796  -0.528  0.00  0.00     0.025 A 
ATOM     14  C   UNL d   1      14.619  12.255  -1.595  0.00  0.00     0.025 A 
ATOM     15  C   UNL d   1      14.442  11.794  -0.027  0.00  0.00     0.002 A 
ATOM     16  C   UNL d   1      15.179  12.024  -0.314  0.00  0.00     0.000 A 
ATOM     17  C   UNL d   1      15.271  12.253  -1.092  0.00  0.00     0.002 A 
ATOM     18  C   UNL d   1      14.533  12.453  -2.393  0.00  0.00     0.030 A 
ENDBRANCH   8  10
ENDBRANCH   1   8
BRANCH   5  19
ATOM     19  C   UNL d   1      13.411  12.892  -5.097  0.00  0.00     0.039 A 
ATOM     20  C   UNL d   1      14.064  12.860  -5.604  0.00  0.00     0.096 A 
ATOM     21  C   UNL d   1      14.076  12.320  -6.226  0.00  0.00     0.024 A 
ATOM     22  C   UNL d   1      13.428  11.801  -6.347  0.00  0.00     0.002 A 
ATOM     23  C   UNL d   1      12.774  11.839  -5.833  0.00  0.00     0.000 A 
ATOM     24  C   UNL d   1      12.770  12.385  -5.211  0.00  0.00     0.003 A 
BRANCH  20  25
ATOM     25  O   UNL d   1      14.701  13.371  -5.483  0.00  0.00    -0.328 OA
ATOM     26  C   UNL d   1      15.048  13.753  -6.130  0.00  0.00     0.181 C 
ENDBRANCH  20  25
ENDBRANCH   5  19
BRANCH   2  27
ATOM     27  C   UNL d   1      13.373  14.697  -5.239  0.00  0.00     0.102 C 
BRANCH  27  28
ATOM     28  C   UNL d   1      12.910  15.376  -5.298  0.00  0.00     0.100 C 
BRANCH  28  29
ATOM     29  N   UNL d   1      13.270  16.114  -5.428  0.00  0.00    -0.299 N 
ATOM     30  C   UNL d   1      12.984  16.782  -5.035  0.00  0.00     0.100 C 
ATOM     31  C   UNL d   1      13.905  16.171  -5.945  0.00  0.00     0.100 C 
ENDBRANCH  28  29
ENDBRANCH  27  28
ENDBRANCH   2  27
TORSDOF 7
ENDMDL
