MODEL 1
REMARK VINA RESULT:      -1.3      0.000      0.000
REMARK  5 active torsions:
REMARK  status: ('A' for Active; 'I' for Inactive)
REMARK    1  A    between atoms: C_9  and  N_1 
REMARK    2  A    between atoms: C_6  and  C_2 
REMARK    3  A    between atoms: O_10  and  C_6 
REMARK    4  A    between atoms: C_13  and  C_9 
REMARK    5  A    between atoms: C_19  and  O_10 
ROOT
ATOM      1  N   UNL d   1      58.607  -0.025  30.598  0.00  0.00    -0.271 N 
ATOM      2  C   UNL d   1      58.233  -1.164  30.025  0.00  0.00     0.120 A 
ATOM      3  C   UNL d   1      58.753  -0.526  29.960  0.00  0.00     0.177 A 
ATOM      4  C   UNL d   1      58.002  -0.352  31.053  0.00  0.00     0.167 A 
ATOM      5  C   UNL d   1      57.772  -1.052  30.701  0.00  0.00     0.124 A 
ATOM      6  N   UNL d   1      57.636  -0.094  31.745  0.00  0.00    -0.225 NA
ATOM      7  N   UNL d   1      57.172  -1.505  31.036  0.00  0.00    -0.241 NA
ATOM      8  C   UNL d   1      57.038  -0.539  32.083  0.00  0.00     0.101 A 
ATOM      9  C   UNL d   1      56.808  -1.246  31.725  0.00  0.00     0.099 A 
ATOM     10  N   UNL d   1      59.317  -0.408  29.366  0.00  0.00    -0.128 N 
ATOM     11  C   UNL d   1      56.677  -0.278  32.772  0.00  0.00     0.021 A 
ATOM     12  C   UNL d   1      56.201  -1.694  32.072  0.00  0.00     0.021 A 
ATOM     13  C   UNL d   1      56.070  -0.732  33.112  0.00  0.00     0.002 A 
ATOM     14  C   UNL d   1      55.843  -1.431  32.758  0.00  0.00     0.002 A 
ENDROOT
BRANCH   2  15
ATOM     15  C   UNL d   1      58.186  -1.807  29.498  0.00  0.00     0.300 C 
ATOM     16  O   UNL d   1      57.797  -1.725  28.788  0.00  0.00    -0.259 OA
BRANCH  15  17
ATOM     17  O   UNL d   1      58.537  -2.533  29.703  0.00  0.00    -0.303 OA
BRANCH  17  18
ATOM     18  C   UNL d   1      58.726  -3.070  29.109  0.00  0.00     0.102 C 
ATOM     19  C   UNL d   1      57.917  -3.203  28.965  0.00  0.00     0.030 C 
ATOM     20  C   UNL d   1      59.533  -2.944  29.246  0.00  0.00     0.030 C 
ATOM     21  C   UNL d   1      58.922  -3.613  28.509  0.00  0.00     0.030 C 
ENDBRANCH  17  18
ENDBRANCH  15  17
ENDBRANCH   2  15
BRANCH   1  22
ATOM     22  C   UNL d   1      59.000   0.682  30.753  0.00  0.00     0.108 C 
BRANCH  22  23
ATOM     23  C   UNL d   1      59.775   0.668  31.049  0.00  0.00     0.118 A 
ATOM     24  O   UNL d   1      59.987   0.661  31.846  0.00  0.00    -0.304 OA
ATOM     25  C   UNL d   1      60.816   0.648  31.885  0.00  0.00     0.123 A 
ATOM     26  C   UNL d   1      61.098   0.647  31.115  0.00  0.00     0.029 A 
ATOM     27  C   UNL d   1      60.463   0.659  30.599  0.00  0.00     0.028 A 
ENDBRANCH  22  23
ENDBRANCH   1  22
TORSDOF 5
ENDMDL
