MODEL 1
REMARK VINA RESULT:      30.4      0.000      0.000
REMARK  3 active torsions:
REMARK  status: ('A' for Active; 'I' for Inactive)
REMARK    1  A    between atoms: C_2  and  S_1 
REMARK    2  A    between atoms: N_3  and  S_1 
REMARK    3  A    between atoms: C_4  and  N_3 
ROOT
ATOM      1  C   UNL d   1      59.413  49.700  50.679  0.00  0.00     0.094 A 
ATOM      2  C   UNL d   1      60.236  49.695  50.589  0.00  0.00     0.021 A 
ATOM      3  C   UNL d   1      60.694  49.694  51.233  0.00  0.00     0.040 A 
ATOM      4  C   UNL d   1      60.355  49.697  51.985  0.00  0.00     0.196 A 
ATOM      5  C   UNL d   1      59.077  49.703  51.419  0.00  0.00     0.023 A 
ATOM      6  C   UNL d   1      59.531  49.702  52.075  0.00  0.00     0.044 A 
ATOM      7  O   UNL d   1      60.873  49.695  52.656  0.00  0.00    -0.287 OA
ATOM      8  C   UNL d   1      60.575  49.692  49.838  0.00  0.00     0.002 A 
ATOM      9  C   UNL d   1      61.552  49.689  51.152  0.00  0.00     0.003 A 
ATOM     10  C   UNL d   1      61.889  49.686  50.412  0.00  0.00     0.000 A 
ATOM     11  C   UNL d   1      61.404  49.687  49.749  0.00  0.00     0.000 A 
ENDROOT
BRANCH   1  12
ATOM     12  N   UNL d   1      58.917  49.702  50.013  0.00  0.00    -0.158 NA
BRANCH  12  13
ATOM     13  S   UNL d   1      58.106  49.556  50.094  0.00  0.00     0.291 S 
ATOM     14  O   UNL d   1      58.019  49.569  49.264  0.00  0.00    -0.198 OA
ATOM     15  O   UNL d   1      58.179  49.540  50.896  0.00  0.00    -0.198 OA
BRANCH  13  16
ATOM     16  C   UNL d   1      57.308  49.410  50.201  0.00  0.00     0.135 A 
ATOM     17  S   UNL d   1      56.868  49.705  50.794  0.00  0.00    -0.073 SA
ATOM     18  C   UNL d   1      56.082  49.443  50.731  0.00  0.00     0.036 A 
ATOM     19  C   UNL d   1      56.038  48.973  50.078  0.00  0.00     0.008 A 
ATOM     20  C   UNL d   1      56.792  48.936  49.729  0.00  0.00     0.020 A 
ENDBRANCH  13  16
ENDBRANCH  12  13
ENDBRANCH   1  12
TORSDOF 3
ENDMDL
