MODEL 1
REMARK VINA RESULT:     116.9      0.000      0.000
REMARK  6 active torsions:
REMARK  status: ('A' for Active; 'I' for Inactive)
REMARK    1  A    between atoms: C_8  and  C_1 
REMARK    2  A    between atoms: C_13  and  N_2 
REMARK    3  A    between atoms: C_7  and  C_4 
REMARK    4  A    between atoms: C_6  and  C_8 
REMARK    5  A    between atoms: C_22  and  C_13 
REMARK    6  A    between atoms: N_18  and  C_22 
ROOT
ATOM      1  C   UNL d   1      60.050  47.082  51.003  0.00  0.00     0.103 A 
ATOM      2  N   UNL d   1      58.991  47.901  51.009  0.00  0.00    -0.267 N 
ATOM      3  C   UNL d   1      59.380  46.630  50.827  0.00  0.00     0.256 A 
ATOM      4  C   UNL d   1      59.808  47.861  51.115  0.00  0.00     0.096 A 
ATOM      5  C   UNL d   1      58.726  47.136  50.831  0.00  0.00     0.304 A 
ATOM      6  O   UNL d   1      57.943  46.915  50.682  0.00  0.00    -0.263 OA
ATOM      7  O   UNL d   1      59.356  45.823  50.674  0.00  0.00    -0.281 OA
ENDROOT
BRANCH   1   8
ATOM      8  C   UNL d   1      60.821  46.795  51.056  0.00  0.00     0.223 C 
ATOM      9  O   UNL d   1      61.373  47.182  51.540  0.00  0.00    -0.284 OA
BRANCH   8  10
ATOM     10  C   UNL d   1      61.048  46.123  50.631  0.00  0.00     0.139 A 
ATOM     11  O   UNL d   1      61.417  46.119  49.891  0.00  0.00    -0.304 OA
ATOM     12  C   UNL d   1      61.542  45.339  49.675  0.00  0.00     0.100 A 
ATOM     13  C   UNL d   1      61.873  44.993  49.025  0.00  0.00     0.025 A 
ATOM     14  C   UNL d   1      61.251  44.858  50.280  0.00  0.00     0.025 A 
ATOM     15  C   UNL d   1      61.926  44.185  48.954  0.00  0.00     0.002 A 
ATOM     16  C   UNL d   1      61.637  43.701  49.556  0.00  0.00     0.000 A 
ATOM     17  C   UNL d   1      61.300  44.050  50.217  0.00  0.00     0.002 A 
ATOM     18  C   UNL d   1      60.945  45.351  50.871  0.00  0.00     0.030 A 
ENDBRANCH   8  10
ENDBRANCH   1   8
BRANCH   4  19
ATOM     19  C   UNL d   1      60.306  48.500  51.302  0.00  0.00     0.116 A 
ATOM     20  O   UNL d   1      60.845  48.607  51.906  0.00  0.00    -0.306 OA
ATOM     21  C   UNL d   1      61.181  49.348  51.820  0.00  0.00     0.100 A 
ATOM     22  C   UNL d   1      61.753  49.672  52.318  0.00  0.00     0.027 C 
ATOM     23  C   UNL d   1      60.846  49.706  51.156  0.00  0.00     0.027 A 
ATOM     24  C   UNL d   1      60.304  49.181  50.835  0.00  0.00     0.028 A 
ENDBRANCH   4  19
BRANCH   2  25
ATOM     25  C   UNL d   1      58.525  48.569  51.070  0.00  0.00     0.102 C 
BRANCH  25  26
ATOM     26  C   UNL d   1      58.360  49.019  50.399  0.00  0.00     0.100 C 
BRANCH  26  27
ATOM     27  N   UNL d   1      57.584  49.242  50.230  0.00  0.00    -0.298 N 
ATOM     28  C   UNL d   1      57.346  49.350  49.453  0.00  0.00     0.107 A 
ATOM     29  C   UNL d   1      56.572  49.572  49.279  0.00  0.00     0.142 A 
ATOM     30  O   UNL d   1      56.035  49.687  49.887  0.00  0.00    -0.300 OA
ATOM     31  C   UNL d   1      56.266  49.581  50.673  0.00  0.00     0.142 A 
ATOM     32  C   UNL d   1      57.047  49.357  50.840  0.00  0.00     0.107 A 
ENDBRANCH  26  27
ENDBRANCH  25  26
ENDBRANCH   2  25
TORSDOF 6
ENDMDL
