MODEL 1
REMARK VINA RESULT:       0.5      0.000      0.000
REMARK  5 active torsions:
REMARK  status: ('A' for Active; 'I' for Inactive)
REMARK       I    between atoms: C_2  and  N_1 
REMARK    1  A    between atoms: C_10  and  C_2 
REMARK    2  A    between atoms: C_7  and  C_3 
REMARK       I    between atoms: C_5  and  N_8 
REMARK    3  A    between atoms: C_15  and  C_5 
REMARK    4  A    between atoms: N_8  and  C_7 
REMARK    5  A    between atoms: N_9  and  C_10 
ROOT
ATOM      1  N   UNL d   1      59.305  -1.075  29.481  0.00  0.00    -0.271 N 
ATOM      2  C   UNL d   1      58.669  -1.487  29.136  0.00  0.00     0.282 C 
ATOM      3  C   UNL d   1      59.154  -0.613  30.144  0.00  0.00     0.086 A 
ATOM      4  C   UNL d   1      59.750  -0.207  30.494  0.00  0.00     0.018 A 
ATOM      5  C   UNL d   1      60.090  -1.118  29.173  0.00  0.00     0.083 A 
ATOM      6  C   UNL d   1      60.512  -0.249  30.195  0.00  0.00     0.003 A 
ATOM      7  O   UNL d   1      57.905  -1.446  29.436  0.00  0.00    -0.265 OA
ATOM      8  C   UNL d   1      60.686  -0.697  29.543  0.00  0.00     0.019 A 
ATOM      9  C   UNL d   1      59.601   0.260  31.163  0.00  0.00     0.002 A 
ATOM     10  C   UNL d   1      61.133   0.176  30.562  0.00  0.00     0.000 A 
ATOM     11  C   UNL d   1      60.204   0.680  31.530  0.00  0.00     0.000 A 
ATOM     12  C   UNL d   1      60.989   0.638  31.222  0.00  0.00     0.000 A 
ENDROOT
BRANCH   3  13
ATOM     13  C   UNL d   1      58.387  -0.572  30.445  0.00  0.00     0.120 C 
BRANCH  13  14
ATOM     14  N   UNL d   1      57.853  -0.026  30.134  0.00  0.00    -0.205 NA
ATOM     15  C   UNL d   1      57.138   0.139  30.543  0.00  0.00     0.279 C 
ATOM     16  O   UNL d   1      56.597   0.680  30.245  0.00  0.00    -0.265 OA
BRANCH  15  17
ATOM     17  C   UNL d   1      56.990  -0.250  31.243  0.00  0.00     0.058 A 
ATOM     18  C   UNL d   1      56.931  -1.058  31.291  0.00  0.00     0.005 A 
ATOM     19  C   UNL d   1      56.782  -1.456  31.996  0.00  0.00     0.000 A 
ATOM     20  C   UNL d   1      56.686  -0.999  32.700  0.00  0.00     0.000 A 
ATOM     21  C   UNL d   1      56.745  -0.171  32.657  0.00  0.00     0.000 A 
ATOM     22  C   UNL d   1      56.893   0.182  31.943  0.00  0.00     0.005 A 
ENDBRANCH  15  17
ENDBRANCH  13  14
ENDBRANCH   3  13
BRANCH   2  23
ATOM     23  C   UNL d   1      58.791  -1.969  28.456  0.00  0.00     0.142 C 
BRANCH  23  24
ATOM     24  N   UNL d   1      58.658  -2.781  28.522  0.00  0.00    -0.295 N 
ATOM     25  C   UNL d   1      59.311  -3.290  28.537  0.00  0.00     0.107 A 
ATOM     26  C   UNL d   1      59.207  -4.114  28.602  0.00  0.00     0.142 A 
ATOM     27  O   UNL d   1      58.438  -4.411  28.651  0.00  0.00    -0.300 OA
ATOM     28  C   UNL d   1      57.768  -3.907  28.637  0.00  0.00     0.142 A 
ATOM     29  C   UNL d   1      57.887  -3.085  28.571  0.00  0.00     0.107 A 
ENDBRANCH  23  24
ENDBRANCH   2  23
TORSDOF 5
ENDMDL
MODEL 2
REMARK VINA RESULT:       2.3      1.203      3.818
REMARK  5 active torsions:
REMARK  status: ('A' for Active; 'I' for Inactive)
REMARK       I    between atoms: C_2  and  N_1 
REMARK    1  A    between atoms: C_10  and  C_2 
REMARK    2  A    between atoms: C_7  and  C_3 
REMARK       I    between atoms: C_5  and  N_8 
REMARK    3  A    between atoms: C_15  and  C_5 
REMARK    4  A    between atoms: N_8  and  C_7 
REMARK    5  A    between atoms: N_9  and  C_10 
ROOT
ATOM      1  N   UNL d   1      58.466  -0.519  29.856  0.00  0.00    -0.271 N 
ATOM      2  C   UNL d   1      57.829  -0.924  30.207  0.00  0.00     0.282 C 
ATOM      3  C   UNL d   1      59.069  -0.964  29.516  0.00  0.00     0.086 A 
ATOM      4  C   UNL d   1      59.692  -0.597  29.172  0.00  0.00     0.018 A 
ATOM      5  C   UNL d   1      58.510   0.324  29.839  0.00  0.00     0.083 A 
ATOM      6  C   UNL d   1      59.735   0.222  29.155  0.00  0.00     0.003 A 
ATOM      7  O   UNL d   1      57.786  -1.744  30.224  0.00  0.00    -0.265 OA
ATOM      8  C   UNL d   1      59.155   0.682  29.483  0.00  0.00     0.019 A 
ATOM      9  C   UNL d   1      60.301  -1.042  28.828  0.00  0.00     0.002 A 
ATOM     10  C   UNL d   1      60.388   0.603  28.795  0.00  0.00     0.000 A 
ATOM     11  C   UNL d   1      60.946  -0.676  28.472  0.00  0.00     0.000 A 
ATOM     12  C   UNL d   1      60.990   0.166  28.455  0.00  0.00     0.000 A 
ENDROOT
BRANCH   3  13
ATOM     13  C   UNL d   1      59.025  -1.787  29.533  0.00  0.00     0.120 C 
BRANCH  13  14
ATOM     14  N   UNL d   1      58.414  -2.174  29.138  0.00  0.00    -0.205 NA
ATOM     15  C   UNL d   1      58.515  -2.969  28.888  0.00  0.00     0.279 C 
ATOM     16  O   UNL d   1      57.915  -3.367  28.494  0.00  0.00    -0.265 OA
BRANCH  15  17
ATOM     17  C   UNL d   1      59.223  -3.340  29.044  0.00  0.00     0.058 A 
ATOM     18  C   UNL d   1      59.646  -3.207  29.723  0.00  0.00     0.005 A 
ATOM     19  C   UNL d   1      60.363  -3.580  29.885  0.00  0.00     0.000 A 
ATOM     20  C   UNL d   1      60.668  -4.124  29.316  0.00  0.00     0.000 A 
ATOM     21  C   UNL d   1      60.238  -4.265  28.618  0.00  0.00     0.000 A 
ATOM     22  C   UNL d   1      59.537  -3.877  28.497  0.00  0.00     0.005 A 
ENDBRANCH  15  17
ENDBRANCH  13  14
ENDBRANCH   3  13
BRANCH   2  23
ATOM     23  C   UNL d   1      57.196  -0.497  30.564  0.00  0.00     0.142 C 
BRANCH  23  24
ATOM     24  N   UNL d   1      57.016  -0.650  31.355  0.00  0.00    -0.295 N 
ATOM     25  C   UNL d   1      56.725  -1.399  31.558  0.00  0.00     0.107 A 
ATOM     26  C   UNL d   1      56.535  -1.581  32.348  0.00  0.00     0.142 A 
ATOM     27  O   UNL d   1      56.644  -0.998  32.924  0.00  0.00    -0.300 OA
ATOM     28  C   UNL d   1      56.938  -0.237  32.731  0.00  0.00     0.142 A 
ATOM     29  C   UNL d   1      57.124  -0.069  31.937  0.00  0.00     0.107 A 
ENDBRANCH  23  24
ENDBRANCH   2  23
TORSDOF 5
ENDMDL
