MODEL 1
REMARK VINA RESULT:      71.9      0.000      0.000
REMARK  9 active torsions:
REMARK  status: ('A' for Active; 'I' for Inactive)
REMARK    1  A    between atoms: C_17  and  N_4 
REMARK    2  A    between atoms: S_16  and  C_7 
REMARK    3  A    between atoms: S_15  and  C_8 
REMARK    4  A    between atoms: C_11  and  C_19 
REMARK    5  A    between atoms: C_22  and  S_15 
REMARK    6  A    between atoms: C_19  and  S_16 
REMARK    7  A    between atoms: C_20  and  C_22 
REMARK    8  A    between atoms: O_25  and  C_20 
REMARK    9  A    between atoms: C_29  and  O_25 
ROOT
ATOM      1  N   UNL d   1     -50.678  26.330  33.443  0.00  0.00    -0.269 N 
ATOM      2  C   UNL d   1     -51.507  26.244  33.372  0.00  0.00     0.201 A 
ATOM      3  C   UNL d   1     -50.506  27.130  33.482  0.00  0.00     0.177 A 
ATOM      4  N   UNL d   1     -51.846  26.998  33.367  0.00  0.00    -0.121 NA
ATOM      5  N   UNL d   1     -51.221  27.534  33.435  0.00  0.00    -0.127 NA
ENDROOT
BRANCH   3   6
ATOM      6  C   UNL d   1     -49.732  27.375  33.553  0.00  0.00     0.078 C 
BRANCH   6   7
ATOM      7  S   UNL d   1     -49.532  28.179  33.489  0.00  0.00    -0.045 SA
BRANCH   7   8
ATOM      8  C   UNL d   1     -49.039  28.558  34.055  0.00  0.00     0.198 A 
ATOM      9  N   UNL d   1     -48.872  28.178  34.783  0.00  0.00    -0.183 NA
ATOM     10  C   UNL d   1     -48.394  28.541  35.339  0.00  0.00     0.283 A 
ATOM     11  C   UNL d   1     -48.067  29.282  35.200  0.00  0.00     0.082 A 
ATOM     12  O   UNL d   1     -48.236  28.137  36.074  0.00  0.00    -0.265 OA
ATOM     13  C   UNL d   1     -48.220  29.671  34.490  0.00  0.00     0.117 A 
ATOM     14  C   UNL d   1     -47.585  29.760  35.641  0.00  0.00     0.013 A 
ATOM     15  N   UNL d   1     -48.699  29.328  33.913  0.00  0.00    -0.214 NA
ATOM     16  S   UNL d   1     -47.837  30.385  34.491  0.00  0.00    -0.068 SA
ATOM     17  C   UNL d   1     -47.441  30.441  35.209  0.00  0.00     0.031 A 
ATOM     18  C   UNL d   1     -46.949  30.913  35.677  0.00  0.00     0.006 A 
ATOM     19  C   UNL d   1     -46.785  30.552  36.378  0.00  0.00     0.001 A 
ATOM     20  C   UNL d   1     -47.190  29.815  36.359  0.00  0.00     0.001 A 
ENDBRANCH   7   8
ENDBRANCH   6   7
ENDBRANCH   3   6
BRANCH   1  21
ATOM     21  C   UNL d   1     -50.152  25.692  33.466  0.00  0.00     0.067 A 
ATOM     22  C   UNL d   1     -49.348  25.810  33.319  0.00  0.00     0.018 A 
ATOM     23  C   UNL d   1     -48.827  25.138  33.349  0.00  0.00     0.002 A 
ATOM     24  C   UNL d   1     -49.110  24.391  33.520  0.00  0.00     0.000 A 
ATOM     25  C   UNL d   1     -49.923  24.271  33.669  0.00  0.00     0.002 A 
ATOM     26  C   UNL d   1     -50.442  24.914  33.643  0.00  0.00     0.018 A 
ENDBRANCH   1  21
BRANCH   2  27
ATOM     27  S   UNL d   1     -51.968  25.527  33.312  0.00  0.00    -0.042 SA
BRANCH  27  28
ATOM     28  C   UNL d   1     -52.783  25.579  33.403  0.00  0.00     0.107 C 
BRANCH  28  29
ATOM     29  C   UNL d   1     -53.206  24.957  33.763  0.00  0.00     0.307 C 
ATOM     30  O   UNL d   1     -53.427  25.005  34.559  0.00  0.00    -0.258 OA
BRANCH  29  31
ATOM     31  O   UNL d   1     -53.397  24.298  33.308  0.00  0.00    -0.271 OA
BRANCH  31  32
ATOM     32  C   UNL d   1     -53.301  23.525  33.595  0.00  0.00     0.126 C 
ATOM     33  C   UNL d   1     -52.555  23.190  33.699  0.00  0.00     0.029 C 
ENDBRANCH  31  32
ENDBRANCH  29  31
ENDBRANCH  28  29
ENDBRANCH  27  28
ENDBRANCH   2  27
TORSDOF 9
ENDMDL
