MODEL 1
REMARK VINA RESULT:      13.1      0.000      0.000
REMARK  2 active torsions:
REMARK  status: ('A' for Active; 'I' for Inactive)
REMARK    1  A    between atoms: C_6  and  C_2 
REMARK    2  A    between atoms: C_7  and  C_3 
ROOT
ATOM      1  N   UNL d   1      45.915 -15.378  44.098  0.00  0.00    -0.238 NA
ATOM      2  C   UNL d   1      45.486 -14.770  44.424  0.00  0.00     0.112 A 
ATOM      3  C   UNL d   1      45.639 -16.087  44.425  0.00  0.00     0.088 A 
ATOM      4  S   UNL d   1      44.939 -15.083  44.955  0.00  0.00    -0.066 SA
ATOM      5  C   UNL d   1      45.037 -15.907  44.954  0.00  0.00     0.056 A 
ENDROOT
BRANCH   3   6
ATOM      6  C   UNL d   1      45.864 -16.863  44.304  0.00  0.00     0.020 A 
ATOM      7  C   UNL d   1      45.958 -17.163  43.530  0.00  0.00     0.028 A 
ATOM      8  C   UNL d   1      46.191 -17.971  43.416  0.00  0.00     0.123 A 
ATOM      9  O   UNL d   1      46.283 -18.263  42.658  0.00  0.00    -0.301 OA
ATOM     10  C   UNL d   1      46.323 -18.453  44.067  0.00  0.00     0.123 A 
ATOM     11  C   UNL d   1      46.507 -19.039  42.537  0.00  0.00     0.149 A 
ATOM     12  C   UNL d   1      46.643 -19.533  43.183  0.00  0.00     0.149 A 
ATOM     13  O   UNL d   1      46.551 -19.243  43.950  0.00  0.00    -0.301 OA
ATOM     14  C   UNL d   1      46.225 -18.138  44.831  0.00  0.00     0.027 A 
ATOM     15  C   UNL d   1      45.998 -17.355  44.955  0.00  0.00     0.004 A 
ENDBRANCH   3   6
BRANCH   2  16
ATOM     16  C   UNL d   1      45.523 -13.946  44.302  0.00  0.00     0.043 A 
ATOM     17  C   UNL d   1      45.204 -13.609  43.622  0.00  0.00     0.101 A 
ATOM     18  N   UNL d   1      45.247 -12.780  43.510  0.00  0.00    -0.242 NA
ATOM     19  C   UNL d   1      45.613 -12.297  44.088  0.00  0.00     0.099 A 
ATOM     20  C   UNL d   1      45.929 -12.645  44.763  0.00  0.00     0.021 A 
ATOM     21  C   UNL d   1      45.888 -13.460  44.876  0.00  0.00     0.005 A 
ENDBRANCH   2  16
TORSDOF 2
ENDMDL
MODEL 2
REMARK VINA RESULT:      14.1      2.068      4.742
REMARK  2 active torsions:
REMARK  status: ('A' for Active; 'I' for Inactive)
REMARK    1  A    between atoms: C_6  and  C_2 
REMARK    2  A    between atoms: C_7  and  C_3 
ROOT
ATOM      1  N   UNL d   1      45.966 -17.228  43.589  0.00  0.00    -0.238 NA
ATOM      2  C   UNL d   1      46.184 -17.990  43.766  0.00  0.00     0.112 A 
ATOM      3  C   UNL d   1      45.892 -16.813  44.301  0.00  0.00     0.088 A 
ATOM      4  S   UNL d   1      46.250 -18.066  44.584  0.00  0.00    -0.066 SA
ATOM      5  C   UNL d   1      46.066 -17.328  44.916  0.00  0.00     0.056 A 
ENDROOT
BRANCH   3   6
ATOM      6  C   UNL d   1      45.688 -16.037  44.457  0.00  0.00     0.020 A 
ATOM      7  C   UNL d   1      46.219 -15.415  44.288  0.00  0.00     0.028 A 
ATOM      8  C   UNL d   1      45.997 -14.613  44.454  0.00  0.00     0.123 A 
ATOM      9  O   UNL d   1      46.518 -14.005  44.288  0.00  0.00    -0.301 OA
ATOM     10  C   UNL d   1      45.262 -14.453  44.780  0.00  0.00     0.123 A 
ATOM     11  C   UNL d   1      46.315 -13.230  44.444  0.00  0.00     0.149 A 
ATOM     12  C   UNL d   1      45.578 -13.057  44.772  0.00  0.00     0.149 A 
ATOM     13  O   UNL d   1      45.049 -13.667  44.941  0.00  0.00    -0.301 OA
ATOM     14  C   UNL d   1      44.744 -15.085  44.943  0.00  0.00     0.027 A 
ATOM     15  C   UNL d   1      44.949 -15.869  44.786  0.00  0.00     0.004 A 
ENDBRANCH   3   6
BRANCH   2  16
ATOM     16  C   UNL d   1      46.337 -18.646  43.274  0.00  0.00     0.043 A 
ATOM     17  C   UNL d   1      46.489 -18.540  42.472  0.00  0.00     0.101 A 
ATOM     18  N   UNL d   1      46.641 -19.206  41.987  0.00  0.00    -0.242 NA
ATOM     19  C   UNL d   1      46.637 -19.976  42.317  0.00  0.00     0.099 A 
ATOM     20  C   UNL d   1      46.483 -20.069  43.120  0.00  0.00     0.021 A 
ATOM     21  C   UNL d   1      46.333 -19.416  43.600  0.00  0.00     0.005 A 
ENDBRANCH   2  16
TORSDOF 2
ENDMDL
