MODEL 1
REMARK VINA RESULT:      12.5      0.000      0.000
REMARK  5 active torsions:
REMARK  status: ('A' for Active; 'I' for Inactive)
REMARK    1  A    between atoms: C_10  and  N_2 
REMARK    2  A    between atoms: C_11  and  N_4 
REMARK    3  A    between atoms: C_12  and  C_11 
REMARK       I    between atoms: N_16  and  C_12 
REMARK       I    between atoms: C_15  and  N_17 
REMARK    4  A    between atoms: C_22  and  N_16 
REMARK    5  A    between atoms: N_17  and  C_23 
ROOT
ATOM      1  C   UNL d   1      30.549  15.896 -22.770  0.00  0.00     0.172 A 
ATOM      2  N   UNL d   1      29.593  16.302 -23.765  0.00  0.00    -0.226 N 
ATOM      3  C   UNL d   1      30.231  16.598 -24.232  0.00  0.00     0.342 A 
ATOM      4  N   UNL d   1      30.999  16.538 -23.963  0.00  0.00    -0.252 N 
ATOM      5  C   UNL d   1      31.161  16.191 -23.238  0.00  0.00     0.098 A 
ATOM      6  C   UNL d   1      29.763  15.954 -23.039  0.00  0.00     0.292 A 
ATOM      7  O   UNL d   1      30.864  15.582 -22.083  0.00  0.00    -0.301 OA
ATOM      8  C   UNL d   1      31.849  16.046 -22.817  0.00  0.00     0.041 A 
ATOM      9  C   UNL d   1      31.652  15.676 -22.115  0.00  0.00     0.102 A 
ATOM     10  O   UNL d   1      30.076  16.957 -24.977  0.00  0.00    -0.245 OA
ATOM     11  O   UNL d   1      29.141  15.656 -22.566  0.00  0.00    -0.264 OA
ATOM     12  C   UNL d   1      32.645  16.213 -22.994  0.00  0.00     0.004 A 
ATOM     13  C   UNL d   1      32.247  15.464 -21.577  0.00  0.00     0.025 A 
ATOM     14  C   UNL d   1      33.240  16.001 -22.455  0.00  0.00     0.000 A 
ATOM     15  C   UNL d   1      33.027  15.631 -21.758  0.00  0.00     0.002 A 
ENDROOT
BRANCH   4  16
ATOM     16  C   UNL d   1      31.636  16.835 -24.430  0.00  0.00     0.147 C 
BRANCH  16  17
ATOM     17  C   UNL d   1      31.823  17.662 -24.397  0.00  0.00     0.297 C 
ATOM     18  N   UNL d   1      32.070  18.045 -25.067  0.00  0.00    -0.207 NA
ATOM     19  O   UNL d   1      31.749  18.060 -23.678  0.00  0.00    -0.264 OA
BRANCH  18  20
ATOM     20  C   UNL d   1      32.248  18.837 -25.033  0.00  0.00     0.085 A 
ATOM     21  C   UNL d   1      31.651  19.405 -24.993  0.00  0.00     0.021 A 
ATOM     22  C   UNL d   1      31.835  20.202 -24.959  0.00  0.00     0.021 A 
ATOM     23  C   UNL d   1      32.628  20.444 -24.964  0.00  0.00     0.085 A 
ATOM     24  C   UNL d   1      33.237  19.877 -25.004  0.00  0.00     0.021 A 
ATOM     25  C   UNL d   1      33.047  19.073 -25.039  0.00  0.00     0.021 A 
BRANCH  23  26
ATOM     26  N   UNL d   1      32.817  21.248 -24.929  0.00  0.00    -0.208 NA
ATOM     27  C   UNL d   1      32.901  21.622 -24.190  0.00  0.00     0.279 C 
ATOM     28  O   UNL d   1      33.084  22.401 -24.160  0.00  0.00    -0.265 OA
ATOM     29  C   UNL d   1      32.788  21.167 -23.490  0.00  0.00     0.068 C 
ENDBRANCH  23  26
ENDBRANCH  18  20
ENDBRANCH  16  17
ENDBRANCH   4  16
BRANCH   2  30
ATOM     30  C   UNL d   1      28.804  16.356 -24.026  0.00  0.00     0.071 A 
ATOM     31  C   UNL d   1      28.251  15.802 -23.790  0.00  0.00     0.020 A 
ATOM     32  C   UNL d   1      27.476  15.848 -24.041  0.00  0.00     0.031 A 
ATOM     33  C   UNL d   1      27.250  16.463 -24.541  0.00  0.00     0.140 A 
ATOM     34  C   UNL d   1      27.787  17.017 -24.783  0.00  0.00     0.031 A 
ATOM     35  F   UNL d   1      26.459  16.510 -24.798  0.00  0.00    -0.204 F 
ATOM     36  C   UNL d   1      28.578  16.970 -24.526  0.00  0.00     0.020 A 
ENDBRANCH   2  30
TORSDOF 5
ENDMDL
