MODEL 1
REMARK VINA RESULT:      -2.8      0.000      0.000
REMARK  8 active torsions:
REMARK  status: ('A' for Active; 'I' for Inactive)
REMARK    1  A    between atoms: C_7  and  N_1 
REMARK    2  A    between atoms: C_2  and  C_5 
REMARK    3  A    between atoms: C_9  and  C_4 
REMARK       I    between atoms: N_20  and  C_9 
REMARK    4  A    between atoms: O_25  and  C_14 
REMARK    5  A    between atoms: O_26  and  C_16 
REMARK    6  A    between atoms: C_27  and  N_20 
REMARK    7  A    between atoms: C_23  and  C_28 
REMARK    8  A    between atoms: C_28  and  C_27 
ROOT
ATOM      1  C   UNL d   1      30.984  16.707 -24.296  0.00  0.00     0.101 A 
ATOM      2  O   UNL d   1      31.285  17.417 -24.004  0.00  0.00    -0.302 OA
ATOM      3  C   UNL d   1      32.066  17.477 -24.254  0.00  0.00     0.158 A 
ATOM      4  C   UNL d   1      31.568  16.328 -24.722  0.00  0.00     0.027 A 
ATOM      5  C   UNL d   1      32.249  16.806 -24.699  0.00  0.00     0.032 A 
ENDROOT
BRANCH   3   6
ATOM      6  C   UNL d   1      32.583  18.100 -24.090  0.00  0.00     0.302 C 
ATOM      7  O   UNL d   1      33.147  18.326 -24.642  0.00  0.00    -0.263 OA
ATOM      8  N   UNL d   1      32.529  18.493 -23.368  0.00  0.00    -0.205 NA
BRANCH   8   9
ATOM      9  C   UNL d   1      33.048  19.118 -23.203  0.00  0.00     0.102 C 
BRANCH   9  10
ATOM     10  C   UNL d   1      33.109  19.414 -22.436  0.00  0.00     0.021 C 
BRANCH  10  11
ATOM     11  C   UNL d   1      33.083  20.221 -22.305  0.00  0.00     0.004 A 
ATOM     12  C   UNL d   1      32.901  20.503 -21.555  0.00  0.00     0.026 A 
ATOM     13  C   UNL d   1      32.874  21.317 -21.422  0.00  0.00     0.116 A 
ATOM     14  C   UNL d   1      33.030  21.845 -22.040  0.00  0.00     0.116 A 
ATOM     15  C   UNL d   1      33.212  21.557 -22.789  0.00  0.00     0.026 A 
ATOM     16  C   UNL d   1      33.238  20.743 -22.922  0.00  0.00     0.002 A 
BRANCH  13  17
ATOM     17  O   UNL d   1      32.691  21.608 -20.668  0.00  0.00    -0.326 OA
ATOM     18  C   UNL d   1      32.746  21.105 -20.013  0.00  0.00     0.181 C 
ENDBRANCH  13  17
BRANCH  14  19
ATOM     19  O   UNL d   1      33.003  22.655 -21.905  0.00  0.00    -0.326 OA
ATOM     20  C   UNL d   1      33.058  23.180 -22.537  0.00  0.00     0.181 C 
ENDBRANCH  14  19
ENDBRANCH  10  11
ENDBRANCH   9  10
ENDBRANCH   8   9
ENDBRANCH   3   6
BRANCH   1  21
ATOM     21  C   UNL d   1      30.215  16.433 -24.172  0.00  0.00     0.034 A 
ATOM     22  C   UNL d   1      29.605  16.633 -24.694  0.00  0.00     0.004 A 
ATOM     23  C   UNL d   1      28.841  16.352 -24.559  0.00  0.00     0.024 A 
ATOM     24  C   UNL d   1      28.685  15.877 -23.910  0.00  0.00     0.128 A 
ATOM     25  C   UNL d   1      29.296  15.677 -23.387  0.00  0.00     0.035 A 
ATOM     26  C   UNL d   1      30.060  15.953 -23.516  0.00  0.00     0.061 A 
ATOM     27 CL   UNL d   1      30.660  15.751 -22.995  0.00  0.00    -0.082 Cl
BRANCH  24  28
ATOM     28  N   UNL d   1      27.920  15.594 -23.772  0.00  0.00    -0.114 N 
ATOM     29  O   UNL d   1      27.658  15.454 -23.005  0.00  0.00    -0.532 OA
ATOM     30  O   UNL d   1      27.416  15.454 -24.410  0.00  0.00    -0.532 OA
ENDBRANCH  24  28
ENDBRANCH   1  21
TORSDOF 8
ENDMDL
MODEL 2
REMARK VINA RESULT:       0.1      2.941      7.031
REMARK  8 active torsions:
REMARK  status: ('A' for Active; 'I' for Inactive)
REMARK    1  A    between atoms: C_7  and  N_1 
REMARK    2  A    between atoms: C_2  and  C_5 
REMARK    3  A    between atoms: C_9  and  C_4 
REMARK       I    between atoms: N_20  and  C_9 
REMARK    4  A    between atoms: O_25  and  C_14 
REMARK    5  A    between atoms: O_26  and  C_16 
REMARK    6  A    between atoms: C_27  and  N_20 
REMARK    7  A    between atoms: C_23  and  C_28 
REMARK    8  A    between atoms: C_28  and  C_27 
ROOT
ATOM      1  C   UNL d   1      32.530  22.063 -20.070  0.00  0.00     0.101 A 
ATOM      2  O   UNL d   1      33.018  21.602 -20.549  0.00  0.00    -0.302 OA
ATOM      3  C   UNL d   1      32.655  21.535 -21.284  0.00  0.00     0.158 A 
ATOM      4  C   UNL d   1      31.870  22.282 -20.499  0.00  0.00     0.027 A 
ATOM      5  C   UNL d   1      31.943  21.953 -21.261  0.00  0.00     0.032 A 
ENDROOT
BRANCH   3   6
ATOM      6  C   UNL d   1      32.947  21.121 -21.935  0.00  0.00     0.302 C 
ATOM      7  O   UNL d   1      33.239  21.527 -22.587  0.00  0.00    -0.263 OA
ATOM      8  N   UNL d   1      32.945  20.297 -21.929  0.00  0.00    -0.205 NA
BRANCH   8   9
ATOM      9  C   UNL d   1      33.239  19.882 -22.582  0.00  0.00     0.102 C 
BRANCH   9  10
ATOM     10  C   UNL d   1      32.728  19.448 -23.061  0.00  0.00     0.021 C 
BRANCH  10  11
ATOM     11  C   UNL d   1      32.807  18.635 -23.116  0.00  0.00     0.004 A 
ATOM     12  C   UNL d   1      32.543  18.247 -23.790  0.00  0.00     0.026 A 
ATOM     13  C   UNL d   1      32.623  17.428 -23.845  0.00  0.00     0.116 A 
ATOM     14  C   UNL d   1      32.968  17.001 -23.226  0.00  0.00     0.116 A 
ATOM     15  C   UNL d   1      33.231  17.394 -22.553  0.00  0.00     0.026 A 
ATOM     16  C   UNL d   1      33.150  18.214 -22.498  0.00  0.00     0.002 A 
BRANCH  13  17
ATOM     17  O   UNL d   1      32.359  17.030 -24.523  0.00  0.00    -0.326 OA
ATOM     18  C   UNL d   1      31.857  17.419 -25.053  0.00  0.00     0.181 C 
ENDBRANCH  13  17
BRANCH  14  19
ATOM     19  O   UNL d   1      33.047  16.185 -23.283  0.00  0.00    -0.326 OA
ATOM     20  C   UNL d   1      33.144  15.732 -22.603  0.00  0.00     0.181 C 
ENDBRANCH  14  19
ENDBRANCH  10  11
ENDBRANCH   9  10
ENDBRANCH   8   9
ENDBRANCH   3   6
BRANCH   1  21
ATOM     21  C   UNL d   1      32.690  22.265 -19.287  0.00  0.00     0.034 A 
ATOM     22  C   UNL d   1      33.032  21.717 -18.769  0.00  0.00     0.004 A 
ATOM     23  C   UNL d   1      33.188  21.931 -17.988  0.00  0.00     0.024 A 
ATOM     24  C   UNL d   1      33.005  22.686 -17.724  0.00  0.00     0.128 A 
ATOM     25  C   UNL d   1      32.664  23.235 -18.241  0.00  0.00     0.035 A 
ATOM     26  C   UNL d   1      32.506  23.027 -19.021  0.00  0.00     0.061 A 
ATOM     27 CL   UNL d   1      32.167  23.575 -19.528  0.00  0.00    -0.082 Cl
BRANCH  24  28
ATOM     28  N   UNL d   1      33.161  22.903 -16.940  0.00  0.00    -0.114 N 
ATOM     29  O   UNL d   1      33.237  22.328 -16.355  0.00  0.00    -0.532 OA
ATOM     30  O   UNL d   1      33.240  23.699 -16.745  0.00  0.00    -0.532 OA
ENDBRANCH  24  28
ENDBRANCH   1  21
TORSDOF 8
ENDMDL
