MODEL 1
REMARK VINA RESULT:      -8.6      0.000      0.000
REMARK  5 active torsions:
REMARK  status: ('A' for Active; 'I' for Inactive)
REMARK    1  A    between atoms: N_5  and  C_1 
REMARK    2  A    between atoms: C_8  and  C_3 
REMARK       I    between atoms: C_7  and  N_5 
REMARK    3  A    between atoms: C_11  and  C_7 
REMARK    4  A    between atoms: C_21  and  C_20 
REMARK    5  A    between atoms: C_24  and  C_21 
ROOT
ATOM      1  N   UNL d   1     -44.689  13.274  21.823  0.00  0.00    -0.165 NA
ATOM      2  C   UNL d   1     -45.057  12.822  22.393  0.00  0.00     0.282 C 
ATOM      3  O   UNL d   1     -44.646  12.222  22.785  0.00  0.00    -0.265 OA
ENDROOT
BRANCH   1   4
ATOM      4  C   UNL d   1     -43.900  13.136  21.631  0.00  0.00     0.297 A 
ATOM      5  O   UNL d   1     -43.377  13.698  21.334  0.00  0.00    -0.253 OA
ATOM      6  C   UNL d   1     -42.645  13.328  21.218  0.00  0.00     0.206 A 
ATOM      7  N   UNL d   1     -42.725  12.545  21.445  0.00  0.00    -0.119 NA
ATOM      8  N   UNL d   1     -43.499  12.426  21.699  0.00  0.00    -0.101 NA
BRANCH   6   9
ATOM      9  C   UNL d   1     -41.962  13.692  20.926  0.00  0.00     0.045 A 
ATOM     10  C   UNL d   1     -41.807  13.694  20.108  0.00  0.00     0.030 A 
ATOM     11  C   UNL d   1     -41.140  14.049  19.832  0.00  0.00     0.123 A 
ATOM     12  O   UNL d   1     -40.994  14.046  19.016  0.00  0.00    -0.301 OA
ATOM     13  C   UNL d   1     -40.611  14.411  20.344  0.00  0.00     0.123 A 
ATOM     14  C   UNL d   1     -40.321  14.403  18.719  0.00  0.00     0.149 A 
ATOM     15  C   UNL d   1     -39.788  14.766  19.232  0.00  0.00     0.149 A 
ATOM     16  O   UNL d   1     -39.924  14.776  20.044  0.00  0.00    -0.301 OA
ATOM     17  C   UNL d   1     -40.749  14.417  21.141  0.00  0.00     0.027 A 
ATOM     18  C   UNL d   1     -41.432  14.055  21.448  0.00  0.00     0.006 A 
ENDBRANCH   6   9
ENDBRANCH   1   4
BRANCH   2  19
ATOM     19  C   UNL d   1     -45.847  12.960  22.586  0.00  0.00     0.058 A 
ATOM     20  C   UNL d   1     -46.275  12.356  22.948  0.00  0.00     0.005 A 
ATOM     21  C   UNL d   1     -47.068  12.493  23.142  0.00  0.00     0.000 A 
ATOM     22  C   UNL d   1     -47.422  13.219  22.976  0.00  0.00     0.000 A 
ATOM     23  C   UNL d   1     -46.980  13.813  22.613  0.00  0.00     0.000 A 
ATOM     24  C   UNL d   1     -46.192  13.680  22.419  0.00  0.00     0.005 A 
BRANCH  22  25
ATOM     25  C   UNL d   1     -48.210  13.349  23.171  0.00  0.00     0.000 C 
BRANCH  25  26
ATOM     26  C   UNL d   1     -48.809  13.119  22.654  0.00  0.00     0.000 A 
ATOM     27  C   UNL d   1     -49.007  13.598  22.007  0.00  0.00     0.000 A 
ATOM     28  C   UNL d   1     -49.607  13.365  21.493  0.00  0.00     0.000 A 
ATOM     29  C   UNL d   1     -50.016  12.647  21.622  0.00  0.00     0.000 A 
ATOM     30  C   UNL d   1     -49.815  12.172  22.267  0.00  0.00     0.000 A 
ATOM     31  C   UNL d   1     -49.212  12.405  22.787  0.00  0.00     0.000 A 
ENDBRANCH  25  26
ENDBRANCH  22  25
ENDBRANCH   2  19
TORSDOF 5
ENDMDL
MODEL 2
REMARK VINA RESULT:      -7.8      1.386      6.926
REMARK  5 active torsions:
REMARK  status: ('A' for Active; 'I' for Inactive)
REMARK    1  A    between atoms: N_5  and  C_1 
REMARK    2  A    between atoms: C_8  and  C_3 
REMARK       I    between atoms: C_7  and  N_5 
REMARK    3  A    between atoms: C_11  and  C_7 
REMARK    4  A    between atoms: C_21  and  C_20 
REMARK    5  A    between atoms: C_24  and  C_21 
ROOT
ATOM      1  N   UNL d   1     -42.802  13.409  20.970  0.00  0.00    -0.165 NA
ATOM      2  C   UNL d   1     -42.075  13.627  21.267  0.00  0.00     0.282 C 
ATOM      3  O   UNL d   1     -41.859  13.427  22.040  0.00  0.00    -0.265 OA
ENDROOT
BRANCH   1   4
ATOM      4  C   UNL d   1     -43.331  12.985  21.437  0.00  0.00     0.297 A 
ATOM      5  O   UNL d   1     -44.087  13.236  21.649  0.00  0.00    -0.253 OA
ATOM      6  C   UNL d   1     -44.427  12.646  22.120  0.00  0.00     0.206 A 
ATOM      7  N   UNL d   1     -43.880  12.040  22.192  0.00  0.00    -0.119 NA
ATOM      8  N   UNL d   1     -43.205  12.249  21.772  0.00  0.00    -0.101 NA
BRANCH   6   9
ATOM      9  C   UNL d   1     -45.184  12.672  22.452  0.00  0.00     0.045 A 
ATOM     10  C   UNL d   1     -45.686  13.320  22.301  0.00  0.00     0.030 A 
ATOM     11  C   UNL d   1     -46.420  13.337  22.628  0.00  0.00     0.123 A 
ATOM     12  O   UNL d   1     -46.912  13.987  22.471  0.00  0.00    -0.301 OA
ATOM     13  C   UNL d   1     -46.683  12.727  23.108  0.00  0.00     0.123 A 
ATOM     14  C   UNL d   1     -47.661  14.020  22.795  0.00  0.00     0.149 A 
ATOM     15  C   UNL d   1     -47.928  13.408  23.279  0.00  0.00     0.149 A 
ATOM     16  O   UNL d   1     -47.447  12.759  23.440  0.00  0.00    -0.301 OA
ATOM     17  C   UNL d   1     -46.208  12.092  23.264  0.00  0.00     0.027 A 
ATOM     18  C   UNL d   1     -45.445  12.053  22.936  0.00  0.00     0.006 A 
ENDBRANCH   6   9
ENDBRANCH   1   4
BRANCH   2  19
ATOM     19  C   UNL d   1     -41.545  14.052  20.799  0.00  0.00     0.058 A 
ATOM     20  C   UNL d   1     -40.953  13.639  20.403  0.00  0.00     0.005 A 
ATOM     21  C   UNL d   1     -40.420  14.064  19.933  0.00  0.00     0.000 A 
ATOM     22  C   UNL d   1     -40.482  14.884  19.863  0.00  0.00     0.000 A 
ATOM     23  C   UNL d   1     -41.081  15.282  20.267  0.00  0.00     0.000 A 
ATOM     24  C   UNL d   1     -41.611  14.862  20.734  0.00  0.00     0.005 A 
BRANCH  22  25
ATOM     25  C   UNL d   1     -39.950  15.300  19.395  0.00  0.00     0.000 C 
BRANCH  25  26
ATOM     26  C   UNL d   1     -40.052  15.331  18.577  0.00  0.00     0.000 A 
ATOM     27  C   UNL d   1     -40.558  15.895  18.242  0.00  0.00     0.000 A 
ATOM     28  C   UNL d   1     -40.657  15.922  17.424  0.00  0.00     0.000 A 
ATOM     29  C   UNL d   1     -40.247  15.383  16.934  0.00  0.00     0.000 A 
ATOM     30  C   UNL d   1     -39.743  14.822  17.272  0.00  0.00     0.000 A 
ATOM     31  C   UNL d   1     -39.642  14.793  18.094  0.00  0.00     0.000 A 
ENDBRANCH  25  26
ENDBRANCH  22  25
ENDBRANCH   2  19
TORSDOF 5
ENDMDL
MODEL 3
REMARK VINA RESULT:      -7.4      1.413      6.923
REMARK  5 active torsions:
REMARK  status: ('A' for Active; 'I' for Inactive)
REMARK    1  A    between atoms: N_5  and  C_1 
REMARK    2  A    between atoms: C_8  and  C_3 
REMARK       I    between atoms: C_7  and  N_5 
REMARK    3  A    between atoms: C_11  and  C_7 
REMARK    4  A    between atoms: C_21  and  C_20 
REMARK    5  A    between atoms: C_24  and  C_21 
ROOT
ATOM      1  N   UNL d   1     -43.892  13.562  21.954  0.00  0.00    -0.165 NA
ATOM      2  C   UNL d   1     -43.422  13.186  21.404  0.00  0.00     0.282 C 
ATOM      3  O   UNL d   1     -43.671  12.481  21.051  0.00  0.00    -0.265 OA
ENDROOT
BRANCH   1   4
ATOM      4  C   UNL d   1     -44.621  13.243  22.164  0.00  0.00     0.297 A 
ATOM      5  O   UNL d   1     -45.347  13.625  22.091  0.00  0.00    -0.253 OA
ATOM      6  C   UNL d   1     -45.934  13.110  22.364  0.00  0.00     0.206 A 
ATOM      7  N   UNL d   1     -45.565  12.417  22.602  0.00  0.00    -0.119 NA
ATOM      8  N   UNL d   1     -44.756  12.500  22.479  0.00  0.00    -0.101 NA
BRANCH   6   9
ATOM      9  C   UNL d   1     -46.745  13.272  22.390  0.00  0.00     0.045 A 
ATOM     10  C   UNL d   1     -47.261  12.909  21.846  0.00  0.00     0.030 A 
ATOM     11  C   UNL d   1     -48.048  13.072  21.877  0.00  0.00     0.123 A 
ATOM     12  O   UNL d   1     -48.554  12.706  21.332  0.00  0.00    -0.301 OA
ATOM     13  C   UNL d   1     -48.350  13.590  22.436  0.00  0.00     0.123 A 
ATOM     14  C   UNL d   1     -49.356  12.860  21.349  0.00  0.00     0.149 A 
ATOM     15  C   UNL d   1     -49.662  13.381  21.910  0.00  0.00     0.149 A 
ATOM     16  O   UNL d   1     -49.168  13.750  22.456  0.00  0.00    -0.301 OA
ATOM     17  C   UNL d   1     -47.862  13.951  22.970  0.00  0.00     0.027 A 
ATOM     18  C   UNL d   1     -47.044  13.796  22.956  0.00  0.00     0.006 A 
ENDBRANCH   6   9
ENDBRANCH   1   4
BRANCH   2  19
ATOM     19  C   UNL d   1     -42.692  13.504  21.193  0.00  0.00     0.058 A 
ATOM     20  C   UNL d   1     -42.061  12.991  21.061  0.00  0.00     0.005 A 
ATOM     21  C   UNL d   1     -41.328  13.310  20.850  0.00  0.00     0.000 A 
ATOM     22  C   UNL d   1     -41.230  14.125  20.772  0.00  0.00     0.000 A 
ATOM     23  C   UNL d   1     -41.871  14.626  20.908  0.00  0.00     0.000 A 
ATOM     24  C   UNL d   1     -42.601  14.311  21.118  0.00  0.00     0.005 A 
BRANCH  22  25
ATOM     25  C   UNL d   1     -40.499  14.436  20.562  0.00  0.00     0.000 C 
BRANCH  25  26
ATOM     26  C   UNL d   1     -40.352  14.662  19.782  0.00  0.00     0.000 A 
ATOM     27  C   UNL d   1     -40.099  14.100  19.228  0.00  0.00     0.000 A 
ATOM     28  C   UNL d   1     -39.953  14.329  18.450  0.00  0.00     0.000 A 
ATOM     29  C   UNL d   1     -40.060  15.125  18.219  0.00  0.00     0.000 A 
ATOM     30  C   UNL d   1     -40.312  15.682  18.775  0.00  0.00     0.000 A 
ATOM     31  C   UNL d   1     -40.460  15.455  19.559  0.00  0.00     0.000 A 
ENDBRANCH  25  26
ENDBRANCH  22  25
ENDBRANCH   2  19
TORSDOF 5
ENDMDL
