MODEL 1
REMARK VINA RESULT:      -9.0      0.000      0.000
REMARK  4 active torsions:
REMARK  status: ('A' for Active; 'I' for Inactive)
REMARK    1  A    between atoms: C_7  and  C_2 
REMARK    2  A    between atoms: C_6  and  C_3 
REMARK    3  A    between atoms: C_11  and  C_6 
REMARK    4  A    between atoms: N_10  and  C_9 
ROOT
ATOM      1  N   UNL d   1      53.601  33.061  53.761  0.00  0.00    -0.220 NA
ATOM      2  C   UNL d   1      54.137  32.792  54.335  0.00  0.00     0.161 A 
ATOM      3  C   UNL d   1      53.292  32.397  53.379  0.00  0.00     0.146 A 
ATOM      4  O   UNL d   1      54.151  31.966  54.300  0.00  0.00    -0.257 OA
ATOM      5  C   UNL d   1      53.631  31.722  53.712  0.00  0.00     0.319 A 
ATOM      6  O   UNL d   1      53.468  30.940  53.485  0.00  0.00    -0.257 OA
ENDROOT
BRANCH   3   7
ATOM      7  C   UNL d   1      52.738  32.408  52.769  0.00  0.00     0.025 C 
BRANCH   7   8
ATOM      8  C   UNL d   1      52.094  32.939  52.798  0.00  0.00     0.002 A 
ATOM      9  C   UNL d   1      52.140  33.650  52.395  0.00  0.00     0.002 A 
ATOM     10  C   UNL d   1      51.515  34.180  52.416  0.00  0.00     0.018 A 
ATOM     11  C   UNL d   1      50.832  33.987  52.851  0.00  0.00     0.064 A 
ATOM     12  C   UNL d   1      50.787  33.267  53.257  0.00  0.00     0.018 A 
ATOM     13  C   UNL d   1      51.418  32.745  53.229  0.00  0.00     0.002 A 
BRANCH  11  14
ATOM     14  N   UNL d   1      50.200  34.508  52.879  0.00  0.00    -0.301 N 
ATOM     15  C   UNL d   1      50.053  34.950  53.557  0.00  0.00     0.100 C 
ATOM     16  C   UNL d   1      49.708  34.591  52.219  0.00  0.00     0.100 C 
ENDBRANCH  11  14
ENDBRANCH   7   8
ENDBRANCH   3   7
BRANCH   2  17
ATOM     17  C   UNL d   1      54.569  33.261  54.841  0.00  0.00     0.058 C 
ATOM     18  C   UNL d   1      55.189  33.710  54.559  0.00  0.00     0.008 C 
ATOM     19  C   UNL d   1      55.049  33.756  55.284  0.00  0.00     0.008 C 
ATOM     20  C   UNL d   1      54.379  33.283  55.644  0.00  0.00     0.008 C 
ENDBRANCH   2  17
TORSDOF 4
ENDMDL
MODEL 2
REMARK VINA RESULT:      -8.7      1.112      2.162
REMARK  4 active torsions:
REMARK  status: ('A' for Active; 'I' for Inactive)
REMARK    1  A    between atoms: C_7  and  C_2 
REMARK    2  A    between atoms: C_6  and  C_3 
REMARK    3  A    between atoms: C_11  and  C_6 
REMARK    4  A    between atoms: N_10  and  C_9 
ROOT
ATOM      1  N   UNL d   1      52.941  32.041  53.563  0.00  0.00    -0.220 NA
ATOM      2  C   UNL d   1      53.458  31.395  53.492  0.00  0.00     0.161 A 
ATOM      3  C   UNL d   1      53.403  32.718  53.665  0.00  0.00     0.146 A 
ATOM      4  O   UNL d   1      54.232  31.683  53.552  0.00  0.00    -0.257 OA
ATOM      5  C   UNL d   1      54.198  32.497  53.659  0.00  0.00     0.319 A 
ATOM      6  O   UNL d   1      54.842  33.014  53.746  0.00  0.00    -0.257 OA
ENDROOT
BRANCH   3   7
ATOM      7  C   UNL d   1      53.116  33.486  53.759  0.00  0.00     0.025 C 
BRANCH   7   8
ATOM      8  C   UNL d   1      52.389  33.705  53.414  0.00  0.00     0.002 A 
ATOM      9  C   UNL d   1      52.383  34.061  52.677  0.00  0.00     0.002 A 
ATOM     10  C   UNL d   1      51.675  34.280  52.328  0.00  0.00     0.018 A 
ATOM     11  C   UNL d   1      50.960  34.138  52.731  0.00  0.00     0.064 A 
ATOM     12  C   UNL d   1      50.968  33.778  53.476  0.00  0.00     0.018 A 
ATOM     13  C   UNL d   1      51.682  33.562  53.815  0.00  0.00     0.002 A 
BRANCH  11  14
ATOM     14  N   UNL d   1      50.246  34.353  52.391  0.00  0.00    -0.301 N 
ATOM     15  C   UNL d   1      50.077  34.153  51.611  0.00  0.00     0.100 C 
ATOM     16  C   UNL d   1      49.691  34.776  52.836  0.00  0.00     0.100 C 
ENDBRANCH  11  14
ENDBRANCH   7   8
ENDBRANCH   3   7
BRANCH   2  17
ATOM     17  C   UNL d   1      53.239  30.618  53.383  0.00  0.00     0.058 C 
ATOM     18  C   UNL d   1      53.332  30.075  53.983  0.00  0.00     0.008 C 
ATOM     19  C   UNL d   1      53.044  29.823  53.350  0.00  0.00     0.008 C 
ATOM     20  C   UNL d   1      52.921  30.380  52.659  0.00  0.00     0.008 C 
ENDBRANCH   2  17
TORSDOF 4
ENDMDL
MODEL 3
REMARK VINA RESULT:      -8.4      1.656      3.974
REMARK  4 active torsions:
REMARK  status: ('A' for Active; 'I' for Inactive)
REMARK    1  A    between atoms: C_7  and  C_2 
REMARK    2  A    between atoms: C_6  and  C_3 
REMARK    3  A    between atoms: C_11  and  C_6 
REMARK    4  A    between atoms: N_10  and  C_9 
ROOT
ATOM      1  N   UNL d   1      52.546  33.500  53.277  0.00  0.00    -0.220 NA
ATOM      2  C   UNL d   1      52.072  34.181  53.290  0.00  0.00     0.161 A 
ATOM      3  C   UNL d   1      53.205  33.647  53.752  0.00  0.00     0.146 A 
ATOM      4  O   UNL d   1      52.445  34.740  53.774  0.00  0.00    -0.257 OA
ATOM      5  C   UNL d   1      53.143  34.411  54.058  0.00  0.00     0.319 A 
ATOM      6  O   UNL d   1      53.693  34.774  54.563  0.00  0.00    -0.257 OA
ENDROOT
BRANCH   3   7
ATOM      7  C   UNL d   1      53.822  33.118  53.896  0.00  0.00     0.025 C 
BRANCH   7   8
ATOM      8  C   UNL d   1      53.686  32.296  53.854  0.00  0.00     0.002 A 
ATOM      9  C   UNL d   1      53.502  31.883  54.537  0.00  0.00     0.002 A 
ATOM     10  C   UNL d   1      53.366  31.075  54.509  0.00  0.00     0.018 A 
ATOM     11  C   UNL d   1      53.416  30.678  53.778  0.00  0.00     0.064 A 
ATOM     12  C   UNL d   1      53.602  31.098  53.090  0.00  0.00     0.018 A 
ATOM     13  C   UNL d   1      53.736  31.905  53.129  0.00  0.00     0.002 A 
BRANCH  11  14
ATOM     14  N   UNL d   1      53.282  29.871  53.739  0.00  0.00    -0.301 N 
ATOM     15  C   UNL d   1      53.528  29.376  54.347  0.00  0.00     0.100 C 
ATOM     16  C   UNL d   1      52.896  29.552  53.080  0.00  0.00     0.100 C 
ENDBRANCH  11  14
ENDBRANCH   7   8
ENDBRANCH   3   7
BRANCH   2  17
ATOM     17  C   UNL d   1      51.366  34.279  52.896  0.00  0.00     0.058 C 
ATOM     18  C   UNL d   1      50.662  34.281  53.307  0.00  0.00     0.008 C 
ATOM     19  C   UNL d   1      50.618  34.371  52.573  0.00  0.00     0.008 C 
ATOM     20  C   UNL d   1      51.363  34.376  52.077  0.00  0.00     0.008 C 
ENDBRANCH   2  17
TORSDOF 4
ENDMDL
MODEL 4
REMARK VINA RESULT:      -7.9      1.958      3.298
REMARK  4 active torsions:
REMARK  status: ('A' for Active; 'I' for Inactive)
REMARK    1  A    between atoms: C_7  and  C_2 
REMARK    2  A    between atoms: C_6  and  C_3 
REMARK    3  A    between atoms: C_11  and  C_6 
REMARK    4  A    between atoms: N_10  and  C_9 
ROOT
ATOM      1  N   UNL d   1      53.676  30.403  53.966  0.00  0.00    -0.220 NA
ATOM      2  C   UNL d   1      53.275  29.680  54.035  0.00  0.00     0.161 A 
ATOM      3  C   UNL d   1      53.478  30.728  53.233  0.00  0.00     0.146 A 
ATOM      4  O   UNL d   1      52.836  29.567  53.342  0.00  0.00    -0.257 OA
ATOM      5  C   UNL d   1      52.961  30.213  52.849  0.00  0.00     0.319 A 
ATOM      6  O   UNL d   1      52.631  30.333  52.097  0.00  0.00    -0.257 OA
ENDROOT
BRANCH   3   7
ATOM      7  C   UNL d   1      53.753  31.447  52.936  0.00  0.00     0.025 C 
BRANCH   7   8
ATOM      8  C   UNL d   1      53.649  32.148  53.376  0.00  0.00     0.002 A 
ATOM      9  C   UNL d   1      54.267  32.433  53.832  0.00  0.00     0.002 A 
ATOM     10  C   UNL d   1      54.178  33.120  54.269  0.00  0.00     0.018 A 
ATOM     11  C   UNL d   1      53.452  33.527  54.244  0.00  0.00     0.064 A 
ATOM     12  C   UNL d   1      52.829  33.238  53.783  0.00  0.00     0.018 A 
ATOM     13  C   UNL d   1      52.929  32.549  53.350  0.00  0.00     0.002 A 
BRANCH  11  14
ATOM     14  N   UNL d   1      53.351  34.216  54.677  0.00  0.00    -0.301 N 
ATOM     15  C   UNL d   1      53.576  34.249  55.467  0.00  0.00     0.100 C 
ATOM     16  C   UNL d   1      53.021  34.883  54.315  0.00  0.00     0.100 C 
ENDBRANCH  11  14
ENDBRANCH   7   8
ENDBRANCH   3   7
BRANCH   2  17
ATOM     17  C   UNL d   1      53.311  29.173  54.671  0.00  0.00     0.058 C 
ATOM     18  C   UNL d   1      52.960  29.375  55.379  0.00  0.00     0.008 C 
ATOM     19  C   UNL d   1      53.303  28.719  55.354  0.00  0.00     0.008 C 
ATOM     20  C   UNL d   1      53.704  28.451  54.600  0.00  0.00     0.008 C 
ENDBRANCH   2  17
TORSDOF 4
ENDMDL
MODEL 5
REMARK VINA RESULT:      -7.4      1.153      3.942
REMARK  4 active torsions:
REMARK  status: ('A' for Active; 'I' for Inactive)
REMARK    1  A    between atoms: C_7  and  C_2 
REMARK    2  A    between atoms: C_6  and  C_3 
REMARK    3  A    between atoms: C_11  and  C_6 
REMARK    4  A    between atoms: N_10  and  C_9 
ROOT
ATOM      1  N   UNL d   1      52.338  33.049  52.985  0.00  0.00    -0.220 NA
ATOM      2  C   UNL d   1      51.522  33.050  52.829  0.00  0.00     0.161 A 
ATOM      3  C   UNL d   1      52.568  32.263  53.093  0.00  0.00     0.146 A 
ATOM      4  O   UNL d   1      51.261  32.265  52.843  0.00  0.00    -0.257 OA
ATOM      5  C   UNL d   1      51.905  31.780  53.006  0.00  0.00     0.319 A 
ATOM      6  O   UNL d   1      51.899  30.953  53.072  0.00  0.00    -0.257 OA
ENDROOT
BRANCH   3   7
ATOM      7  C   UNL d   1      53.334  32.005  53.261  0.00  0.00     0.025 C 
BRANCH   7   8
ATOM      8  C   UNL d   1      53.822  32.450  53.769  0.00  0.00     0.002 A 
ATOM      9  C   UNL d   1      53.717  32.396  54.580  0.00  0.00     0.002 A 
ATOM     10  C   UNL d   1      54.191  32.829  55.090  0.00  0.00     0.018 A 
ATOM     11  C   UNL d   1      54.781  33.325  54.776  0.00  0.00     0.064 A 
ATOM     12  C   UNL d   1      54.886  33.378  53.956  0.00  0.00     0.018 A 
ATOM     13  C   UNL d   1      54.407  32.941  53.456  0.00  0.00     0.002 A 
BRANCH  11  14
ATOM     14  N   UNL d   1      55.261  33.761  55.276  0.00  0.00    -0.301 N 
ATOM     15  C   UNL d   1      55.938  34.130  54.990  0.00  0.00     0.100 C 
ATOM     16  C   UNL d   1      55.062  33.832  56.076  0.00  0.00     0.100 C 
ENDBRANCH  11  14
ENDBRANCH   7   8
ENDBRANCH   3   7
BRANCH   2  17
ATOM     17  C   UNL d   1      51.065  33.709  52.688  0.00  0.00     0.058 C 
ATOM     18  C   UNL d   1      50.560  33.991  53.262  0.00  0.00     0.008 C 
ATOM     19  C   UNL d   1      50.575  34.363  52.622  0.00  0.00     0.008 C 
ATOM     20  C   UNL d   1      51.113  34.093  51.959  0.00  0.00     0.008 C 
ENDBRANCH   2  17
TORSDOF 4
ENDMDL
MODEL 6
REMARK VINA RESULT:      -7.2      2.023      3.239
REMARK  4 active torsions:
REMARK  status: ('A' for Active; 'I' for Inactive)
REMARK    1  A    between atoms: C_7  and  C_2 
REMARK    2  A    between atoms: C_6  and  C_3 
REMARK    3  A    between atoms: C_11  and  C_6 
REMARK    4  A    between atoms: N_10  and  C_9 
ROOT
ATOM      1  N   UNL d   1      53.972  32.970  53.940  0.00  0.00    -0.220 NA
ATOM      2  C   UNL d   1      54.111  33.651  54.394  0.00  0.00     0.161 A 
ATOM      3  C   UNL d   1      53.354  33.142  53.419  0.00  0.00     0.146 A 
ATOM      4  O   UNL d   1      53.578  34.234  54.147  0.00  0.00    -0.257 OA
ATOM      5  C   UNL d   1      53.112  33.920  53.547  0.00  0.00     0.319 A 
ATOM      6  O   UNL d   1      52.504  34.309  53.136  0.00  0.00    -0.257 OA
ENDROOT
BRANCH   3   7
ATOM      7  C   UNL d   1      53.035  32.621  52.865  0.00  0.00     0.025 C 
BRANCH   7   8
ATOM      8  C   UNL d   1      52.982  31.807  53.038  0.00  0.00     0.002 A 
ATOM      9  C   UNL d   1      52.270  31.494  53.293  0.00  0.00     0.002 A 
ATOM     10  C   UNL d   1      52.205  30.696  53.466  0.00  0.00     0.018 A 
ATOM     11  C   UNL d   1      52.872  30.205  53.380  0.00  0.00     0.064 A 
ATOM     12  C   UNL d   1      53.591  30.523  53.122  0.00  0.00     0.018 A 
ATOM     13  C   UNL d   1      53.644  31.323  52.952  0.00  0.00     0.002 A 
BRANCH  11  14
ATOM     14  N   UNL d   1      52.819  29.405  53.551  0.00  0.00    -0.301 N 
ATOM     15  C   UNL d   1      52.385  28.902  53.066  0.00  0.00     0.100 C 
ATOM     16  C   UNL d   1      53.205  29.102  54.217  0.00  0.00     0.100 C 
ENDBRANCH  11  14
ENDBRANCH   7   8
ENDBRANCH   3   7
BRANCH   2  17
ATOM     17  C   UNL d   1      54.674  33.728  54.978  0.00  0.00     0.058 C 
ATOM     18  C   UNL d   1      55.409  34.034  54.805  0.00  0.00     0.008 C 
ATOM     19  C   UNL d   1      55.289  33.836  55.508  0.00  0.00     0.008 C 
ATOM     20  C   UNL d   1      54.498  33.495  55.751  0.00  0.00     0.008 C 
ENDBRANCH   2  17
TORSDOF 4
ENDMDL
