MODEL 1
REMARK VINA RESULT:      81.2      0.000      0.000
REMARK  5 active torsions:
REMARK  status: ('A' for Active; 'I' for Inactive)
REMARK    1  A    between atoms: N_4  and  C_2 
REMARK    2  A    between atoms: C_11  and  C_3 
REMARK       I    between atoms: C_8  and  N_4 
REMARK    3  A    between atoms: C_14  and  C_5 
REMARK    4  A    between atoms: C_7  and  C_8 
REMARK    5  A    between atoms: C_17  and  C_14 
ROOT
ATOM      1  C   UNL d   1      61.905  44.588  50.051  0.00  0.00     0.101 A 
ATOM      2  O   UNL d   1      62.003  45.349  50.366  0.00  0.00    -0.302 OA
ATOM      3  C   UNL d   1      61.685  45.886  49.833  0.00  0.00     0.158 A 
ATOM      4  C   UNL d   1      61.527  44.662  49.325  0.00  0.00     0.027 A 
ATOM      5  C   UNL d   1      61.388  45.462  49.185  0.00  0.00     0.032 A 
ENDROOT
BRANCH   3   6
ATOM      6  C   UNL d   1      61.663  46.708  49.925  0.00  0.00     0.304 C 
ATOM      7  N   UNL d   1      61.000  47.066  50.260  0.00  0.00    -0.180 NA
ATOM      8  O   UNL d   1      62.302  47.161  49.682  0.00  0.00    -0.263 OA
BRANCH   7   9
ATOM      9  C   UNL d   1      60.977  47.884  50.353  0.00  0.00     0.216 A 
ATOM     10  N   UNL d   1      60.692  48.289  51.008  0.00  0.00    -0.200 NA
ATOM     11  C   UNL d   1      60.774  49.095  50.864  0.00  0.00     0.175 A 
ATOM     12  N   UNL d   1      61.111  49.189  50.116  0.00  0.00    -0.187 NA
ATOM     13  S   UNL d   1      61.236  48.434  49.799  0.00  0.00     0.054 SA
BRANCH  11  14
ATOM     14  C   UNL d   1      60.559  49.707  51.374  0.00  0.00     0.082 C 
BRANCH  14  15
ATOM     15  C   UNL d   1      60.817  49.697  52.158  0.00  0.00     0.199 C 
ATOM     16  O   UNL d   1      61.621  49.695  52.327  0.00  0.00    -0.286 OA
ATOM     17  C   UNL d   1      60.268  49.688  52.774  0.00  0.00     0.045 C 
ENDBRANCH  14  15
ENDBRANCH  11  14
ENDBRANCH   7   9
ENDBRANCH   3   6
BRANCH   1  18
ATOM     18  C   UNL d   1      62.145  43.881  50.405  0.00  0.00     0.033 A 
ATOM     19  C   UNL d   1      61.773  43.616  51.092  0.00  0.00     0.060 A 
ATOM     20 CL   UNL d   1      61.160  44.056  51.428  0.00  0.00    -0.082 Cl
ATOM     21  C   UNL d   1      62.009  42.914  51.447  0.00  0.00     0.011 A 
ATOM     22  C   UNL d   1      62.626  42.468  51.114  0.00  0.00     0.001 A 
ATOM     23  C   UNL d   1      62.998  42.729  50.429  0.00  0.00     0.000 A 
ATOM     24  C   UNL d   1      62.762  43.434  50.071  0.00  0.00     0.003 A 
ENDBRANCH   1  18
TORSDOF 5
ENDMDL
MODEL 2
REMARK VINA RESULT:      82.3      1.702      5.196
REMARK  5 active torsions:
REMARK  status: ('A' for Active; 'I' for Inactive)
REMARK    1  A    between atoms: N_4  and  C_2 
REMARK    2  A    between atoms: C_11  and  C_3 
REMARK       I    between atoms: C_8  and  N_4 
REMARK    3  A    between atoms: C_14  and  C_5 
REMARK    4  A    between atoms: C_7  and  C_8 
REMARK    5  A    between atoms: C_17  and  C_14 
ROOT
ATOM      1  C   UNL d   1      60.626  48.874  50.837  0.00  0.00     0.101 A 
ATOM      2  O   UNL d   1      60.786  48.078  50.666  0.00  0.00    -0.302 OA
ATOM      3  C   UNL d   1      61.385  48.055  50.106  0.00  0.00     0.158 A 
ATOM      4  C   UNL d   1      61.129  49.336  50.380  0.00  0.00     0.027 A 
ATOM      5  C   UNL d   1      61.601  48.836  49.926  0.00  0.00     0.032 A 
ENDROOT
BRANCH   3   6
ATOM      6  C   UNL d   1      61.718  47.373  49.777  0.00  0.00     0.304 C 
ATOM      7  N   UNL d   1      61.400  46.634  49.956  0.00  0.00    -0.180 NA
ATOM      8  O   UNL d   1      62.362  47.437  49.274  0.00  0.00    -0.263 OA
BRANCH   7   9
ATOM      9  C   UNL d   1      61.729  45.954  49.630  0.00  0.00     0.216 A 
ATOM     10  N   UNL d   1      61.617  45.185  49.897  0.00  0.00    -0.200 NA
ATOM     11  C   UNL d   1      62.048  44.681  49.409  0.00  0.00     0.175 A 
ATOM     12  N   UNL d   1      62.428  45.140  48.839  0.00  0.00    -0.187 NA
ATOM     13  S   UNL d   1      62.229  45.932  48.977  0.00  0.00     0.054 SA
BRANCH  11  14
ATOM     14  C   UNL d   1      62.095  43.860  49.476  0.00  0.00     0.082 C 
BRANCH  14  15
ATOM     15  C   UNL d   1      62.097  43.508  50.222  0.00  0.00     0.199 C 
ATOM     16  O   UNL d   1      61.636  43.821  50.826  0.00  0.00    -0.286 OA
ATOM     17  C   UNL d   1      62.563  42.842  50.364  0.00  0.00     0.045 C 
ENDBRANCH  14  15
ENDBRANCH  11  14
ENDBRANCH   7   9
ENDBRANCH   3   6
BRANCH   1  18
ATOM     18  C   UNL d   1      60.061  49.152  51.373  0.00  0.00     0.033 A 
ATOM     19  C   UNL d   1      60.293  49.409  52.121  0.00  0.00     0.060 A 
ATOM     20 CL   UNL d   1      61.090  49.391  52.338  0.00  0.00    -0.082 Cl
ATOM     21  C   UNL d   1      59.735  49.686  52.656  0.00  0.00     0.011 A 
ATOM     22  C   UNL d   1      58.931  49.707  52.443  0.00  0.00     0.001 A 
ATOM     23  C   UNL d   1      58.698  49.451  51.698  0.00  0.00     0.000 A 
ATOM     24  C   UNL d   1      59.258  49.172  51.160  0.00  0.00     0.003 A 
ENDBRANCH   1  18
TORSDOF 5
ENDMDL
MODEL 3
REMARK VINA RESULT:      83.5      1.026      1.273
REMARK  5 active torsions:
REMARK  status: ('A' for Active; 'I' for Inactive)
REMARK    1  A    between atoms: N_4  and  C_2 
REMARK    2  A    between atoms: C_11  and  C_3 
REMARK       I    between atoms: C_8  and  N_4 
REMARK    3  A    between atoms: C_14  and  C_5 
REMARK    4  A    between atoms: C_7  and  C_8 
REMARK    5  A    between atoms: C_17  and  C_14 
ROOT
ATOM      1  C   UNL d   1      61.760  44.560  50.288  0.00  0.00     0.101 A 
ATOM      2  O   UNL d   1      61.718  45.339  50.573  0.00  0.00    -0.302 OA
ATOM      3  C   UNL d   1      61.595  45.837  49.931  0.00  0.00     0.158 A 
ATOM      4  C   UNL d   1      61.662  44.585  49.472  0.00  0.00     0.027 A 
ATOM      5  C   UNL d   1      61.560  45.371  49.246  0.00  0.00     0.032 A 
ENDROOT
BRANCH   3   6
ATOM      6  C   UNL d   1      61.519  46.659  49.962  0.00  0.00     0.304 C 
ATOM      7  N   UNL d   1      61.150  47.014  50.608  0.00  0.00    -0.180 NA
ATOM      8  O   UNL d   1      61.813  47.118  49.349  0.00  0.00    -0.263 OA
BRANCH   7   9
ATOM      9  C   UNL d   1      61.073  47.833  50.641  0.00  0.00     0.216 A 
ATOM     10  N   UNL d   1      60.394  48.263  50.473  0.00  0.00    -0.200 NA
ATOM     11  C   UNL d   1      60.566  49.061  50.576  0.00  0.00     0.175 A 
ATOM     12  N   UNL d   1      61.355  49.124  50.810  0.00  0.00    -0.187 NA
ATOM     13  S   UNL d   1      61.669  48.359  50.849  0.00  0.00     0.054 SA
BRANCH  11  14
ATOM     14  C   UNL d   1      60.044  49.691  50.467  0.00  0.00     0.082 C 
BRANCH  14  15
ATOM     15  C   UNL d   1      59.311  49.687  50.846  0.00  0.00     0.199 C 
ATOM     16  O   UNL d   1      59.271  49.693  51.667  0.00  0.00    -0.286 OA
ATOM     17  C   UNL d   1      58.616  49.677  50.401  0.00  0.00     0.045 C 
ENDBRANCH  14  15
ENDBRANCH  11  14
ENDBRANCH   7   9
ENDBRANCH   3   6
BRANCH   1  18
ATOM     18  C   UNL d   1      61.879  43.882  50.744  0.00  0.00     0.033 A 
ATOM     19  C   UNL d   1      62.469  43.344  50.537  0.00  0.00     0.060 A 
ATOM     20 CL   UNL d   1      62.942  43.481  49.874  0.00  0.00    -0.082 Cl
ATOM     21  C   UNL d   1      62.591  42.668  50.988  0.00  0.00     0.011 A 
ATOM     22  C   UNL d   1      62.118  42.525  51.657  0.00  0.00     0.001 A 
ATOM     23  C   UNL d   1      61.529  43.060  51.865  0.00  0.00     0.000 A 
ATOM     24  C   UNL d   1      61.406  43.739  51.412  0.00  0.00     0.003 A 
ENDBRANCH   1  18
TORSDOF 5
ENDMDL
