MODEL 1
REMARK VINA RESULT:       2.6      0.000      0.000
REMARK  1 active torsions:
REMARK  status: ('A' for Active; 'I' for Inactive)
REMARK    1  A    between atoms: C_6  and  C_3 
ROOT
ATOM      1  N   UNL d   1      43.752 -15.112  36.606  0.00  0.00    -0.228 NA
ATOM      2  C   UNL d   1      43.196 -15.693  36.424  0.00  0.00     0.166 A 
ATOM      3  C   UNL d   1      44.494 -15.473  36.623  0.00  0.00     0.089 A 
ATOM      4  S   UNL d   1      43.588 -16.403  36.330  0.00  0.00    -0.055 SA
ATOM      5  C   UNL d   1      44.397 -16.278  36.452  0.00  0.00     0.057 A 
ATOM      6  S   UNL d   1      42.381 -15.572  36.351  0.00  0.00    -0.050 SA
ENDROOT
BRANCH   3   7
ATOM      7  C   UNL d   1      45.214 -15.097  36.783  0.00  0.00     0.018 A 
ATOM      8  C   UNL d   1      45.918 -15.444  36.543  0.00  0.00     0.002 A 
ATOM      9  C   UNL d   1      46.635 -15.075  36.700  0.00  0.00     0.000 A 
ATOM     10  C   UNL d   1      46.647 -14.347  37.104  0.00  0.00     0.000 A 
ATOM     11  C   UNL d   1      45.939 -14.006  37.340  0.00  0.00     0.000 A 
ATOM     12  C   UNL d   1      45.220 -14.378  37.182  0.00  0.00     0.002 A 
ENDBRANCH   3   7
TORSDOF 1
ENDMDL
MODEL 2
REMARK VINA RESULT:       3.5      7.211      7.777
REMARK  1 active torsions:
REMARK  status: ('A' for Active; 'I' for Inactive)
REMARK    1  A    between atoms: C_6  and  C_3 
ROOT
ATOM      1  N   UNL d   1      45.153 -13.268  43.047  0.00  0.00    -0.228 NA
ATOM      2  C   UNL d   1      45.182 -12.456  42.911  0.00  0.00     0.166 A 
ATOM      3  C   UNL d   1      45.372 -13.398  43.832  0.00  0.00     0.089 A 
ATOM      4  S   UNL d   1      45.415 -12.088  43.602  0.00  0.00    -0.055 SA
ATOM      5  C   UNL d   1      45.536 -12.666  44.182  0.00  0.00     0.057 A 
ATOM      6  S   UNL d   1      45.004 -12.082  42.195  0.00  0.00    -0.050 SA
ENDROOT
BRANCH   3   7
ATOM      7  C   UNL d   1      45.420 -14.135  44.207  0.00  0.00     0.018 A 
ATOM      8  C   UNL d   1      44.754 -14.452  44.568  0.00  0.00     0.002 A 
ATOM      9  C   UNL d   1      44.796 -15.183  44.942  0.00  0.00     0.000 A 
ATOM     10  C   UNL d   1      45.516 -15.601  44.955  0.00  0.00     0.000 A 
ATOM     11  C   UNL d   1      46.176 -15.277  44.592  0.00  0.00     0.000 A 
ATOM     12  C   UNL d   1      46.132 -14.543  44.217  0.00  0.00     0.002 A 
ENDBRANCH   3   7
TORSDOF 1
ENDMDL
MODEL 3
REMARK VINA RESULT:       4.4      1.692      2.966
REMARK  1 active torsions:
REMARK  status: ('A' for Active; 'I' for Inactive)
REMARK    1  A    between atoms: C_6  and  C_3 
ROOT
ATOM      1  N   UNL d   1      45.415 -14.503  37.163  0.00  0.00    -0.228 NA
ATOM      2  C   UNL d   1      46.227 -14.375  37.096  0.00  0.00     0.166 A 
ATOM      3  C   UNL d   1      45.230 -15.173  36.719  0.00  0.00     0.089 A 
ATOM      4  S   UNL d   1      46.539 -14.957  36.617  0.00  0.00    -0.055 SA
ATOM      5  C   UNL d   1      45.928 -15.460  36.376  0.00  0.00     0.057 A 
ATOM      6  S   UNL d   1      46.647 -13.760  37.455  0.00  0.00    -0.050 SA
ENDROOT
BRANCH   3   7
ATOM      7  C   UNL d   1      44.476 -15.504  36.629  0.00  0.00     0.018 A 
ATOM      8  C   UNL d   1      43.810 -15.040  36.752  0.00  0.00     0.002 A 
ATOM      9  C   UNL d   1      43.060 -15.363  36.664  0.00  0.00     0.000 A 
ATOM     10  C   UNL d   1      42.976 -16.164  36.450  0.00  0.00     0.000 A 
ATOM     11  C   UNL d   1      43.646 -16.620  36.330  0.00  0.00     0.000 A 
ATOM     12  C   UNL d   1      44.399 -16.294  36.419  0.00  0.00     0.002 A 
ENDBRANCH   3   7
TORSDOF 1
ENDMDL
MODEL 4
REMARK VINA RESULT:       4.7      7.295      7.700
REMARK  1 active torsions:
REMARK  status: ('A' for Active; 'I' for Inactive)
REMARK    1  A    between atoms: C_6  and  C_3 
ROOT
ATOM      1  N   UNL d   1      45.148 -14.714  44.216  0.00  0.00    -0.228 NA
ATOM      2  C   UNL d   1      45.608 -15.174  44.722  0.00  0.00     0.166 A 
ATOM      3  C   UNL d   1      45.521 -13.981  44.139  0.00  0.00     0.089 A 
ATOM      4  S   UNL d   1      46.255 -14.734  44.955  0.00  0.00    -0.055 SA
ATOM      5  C   UNL d   1      46.211 -13.988  44.597  0.00  0.00     0.057 A 
ATOM      6  S   UNL d   1      45.438 -15.950  44.952  0.00  0.00    -0.050 SA
ENDROOT
BRANCH   3   7
ATOM      7  C   UNL d   1      45.252 -13.345  43.681  0.00  0.00     0.018 A 
ATOM      8  C   UNL d   1      45.782 -12.772  43.429  0.00  0.00     0.002 A 
ATOM      9  C   UNL d   1      45.521 -12.139  42.975  0.00  0.00     0.000 A 
ATOM     10  C   UNL d   1      44.715 -12.080  42.770  0.00  0.00     0.000 A 
ATOM     11  C   UNL d   1      44.192 -12.658  43.026  0.00  0.00     0.000 A 
ATOM     12  C   UNL d   1      44.457 -13.292  43.482  0.00  0.00     0.002 A 
ENDBRANCH   3   7
TORSDOF 1
ENDMDL
MODEL 5
REMARK VINA RESULT:       4.7      7.626      7.831
REMARK  1 active torsions:
REMARK  status: ('A' for Active; 'I' for Inactive)
REMARK    1  A    between atoms: C_6  and  C_3 
ROOT
ATOM      1  N   UNL d   1      46.647 -19.496  41.928  0.00  0.00    -0.228 NA
ATOM      2  C   UNL d   1      46.337 -19.191  41.227  0.00  0.00     0.166 A 
ATOM      3  C   UNL d   1      46.181 -19.215  42.549  0.00  0.00     0.089 A 
ATOM      4  S   UNL d   1      45.690 -18.729  41.412  0.00  0.00    -0.055 SA
ATOM      5  C   UNL d   1      45.583 -18.737  42.233  0.00  0.00     0.057 A 
ATOM      6  S   UNL d   1      46.635 -19.332  40.469  0.00  0.00    -0.050 SA
ENDROOT
BRANCH   3   7
ATOM      7  C   UNL d   1      46.291 -19.383  43.353  0.00  0.00     0.018 A 
ATOM      8  C   UNL d   1      46.231 -20.157  43.619  0.00  0.00     0.002 A 
ATOM      9  C   UNL d   1      46.339 -20.329  44.416  0.00  0.00     0.000 A 
ATOM     10  C   UNL d   1      46.510 -19.715  44.953  0.00  0.00     0.000 A 
ATOM     11  C   UNL d   1      46.569 -18.945  44.678  0.00  0.00     0.000 A 
ATOM     12  C   UNL d   1      46.460 -18.774  43.878  0.00  0.00     0.002 A 
ENDBRANCH   3   7
TORSDOF 1
ENDMDL
MODEL 6
REMARK VINA RESULT:       5.1      7.639      7.911
REMARK  1 active torsions:
REMARK  status: ('A' for Active; 'I' for Inactive)
REMARK    1  A    between atoms: C_6  and  C_3 
ROOT
ATOM      1  N   UNL d   1      46.326 -18.165  43.616  0.00  0.00    -0.228 NA
ATOM      2  C   UNL d   1      46.281 -18.138  44.439  0.00  0.00     0.166 A 
ATOM      3  C   UNL d   1      46.430 -18.954  43.399  0.00  0.00     0.089 A 
ATOM      4  S   UNL d   1      46.356 -18.898  44.726  0.00  0.00    -0.055 SA
ATOM      5  C   UNL d   1      46.449 -19.416  44.087  0.00  0.00     0.057 A 
ATOM      6  S   UNL d   1      46.178 -17.453  44.891  0.00  0.00    -0.050 SA
ENDROOT
BRANCH   3   7
ATOM      7  C   UNL d   1      46.502 -19.240  42.625  0.00  0.00     0.018 A 
ATOM      8  C   UNL d   1      46.570 -18.711  42.000  0.00  0.00     0.002 A 
ATOM      9  C   UNL d   1      46.642 -18.988  41.230  0.00  0.00     0.000 A 
ATOM     10  C   UNL d   1      46.647 -19.808  41.084  0.00  0.00     0.000 A 
ATOM     11  C   UNL d   1      46.579 -20.330  41.713  0.00  0.00     0.000 A 
ATOM     12  C   UNL d   1      46.506 -20.049  42.485  0.00  0.00     0.002 A 
ENDBRANCH   3   7
TORSDOF 1
ENDMDL
