MODEL 1
REMARK VINA RESULT:      67.6      0.000      0.000
REMARK  7 active torsions:
REMARK  status: ('A' for Active; 'I' for Inactive)
REMARK    1  A    between atoms: C_4  and  C_1 
REMARK    2  A    between atoms: C_13  and  N_3 
REMARK    3  A    between atoms: C_15  and  N_5 
REMARK    4  A    between atoms: C_12  and  C_15 
REMARK    5  A    between atoms: C_18  and  C_13 
REMARK    6  A    between atoms: O_16  and  C_18 
REMARK    7  A    between atoms: C_17  and  O_16 
ROOT
ATOM      1  C   UNL d   1     -51.947  25.210  33.796  0.00  0.00     0.149 A 
ATOM      2  N   UNL d   1     -52.148  24.574  33.308  0.00  0.00    -0.227 NA
ATOM      3  N   UNL d   1     -52.438  25.189  34.463  0.00  0.00    -0.287 N 
ATOM      4  C   UNL d   1     -52.949  24.533  34.386  0.00  0.00     0.083 A 
ATOM      5  C   UNL d   1     -52.765  24.158  33.672  0.00  0.00     0.099 A 
ATOM      6  C   UNL d   1     -53.548  24.233  34.867  0.00  0.00     0.019 A 
ATOM      7  C   UNL d   1     -53.180  23.484  33.440  0.00  0.00     0.021 A 
ATOM      8  C   UNL d   1     -53.963  23.559  34.635  0.00  0.00     0.002 A 
ATOM      9  C   UNL d   1     -53.781  23.188  33.928  0.00  0.00     0.002 A 
ENDROOT
BRANCH   1  10
ATOM     10  C   UNL d   1     -51.359  25.774  33.652  0.00  0.00     0.057 A 
ATOM     11  C   UNL d   1     -50.552  25.629  33.569  0.00  0.00     0.086 A 
ATOM     12  N   UNL d   1     -50.177  26.353  33.431  0.00  0.00    -0.272 N 
ATOM     13  C   UNL d   1     -50.756  26.944  33.429  0.00  0.00     0.265 A 
ATOM     14  C   UNL d   1     -51.484  26.580  33.565  0.00  0.00     0.066 A 
ATOM     15  O   UNL d   1     -50.622  27.749  33.311  0.00  0.00    -0.267 OA
BRANCH  12  16
ATOM     16  C   UNL d   1     -49.364  26.457  33.317  0.00  0.00     0.083 C 
BRANCH  16  17
ATOM     17  C   UNL d   1     -48.816  25.977  33.707  0.00  0.00     0.019 C 
ATOM     18  C   UNL d   1     -48.946  25.164  33.774  0.00  0.00     0.002 C 
ENDBRANCH  16  17
ENDBRANCH  12  16
ENDBRANCH   1  10
BRANCH   3  19
ATOM     19  C   UNL d   1     -52.304  25.794  35.007  0.00  0.00     0.108 C 
BRANCH  19  20
ATOM     20  C   UNL d   1     -52.231  25.620  35.808  0.00  0.00     0.142 C 
BRANCH  20  21
ATOM     21  O   UNL d   1     -52.170  26.225  36.358  0.00  0.00    -0.304 OA
BRANCH  21  22
ATOM     22  C   UNL d   1     -52.054  26.052  37.154  0.00  0.00     0.100 A 
ATOM     23  C   UNL d   1     -51.363  26.277  37.521  0.00  0.00     0.025 A 
ATOM     24  C   UNL d   1     -51.250  26.102  38.315  0.00  0.00     0.002 A 
ATOM     25  C   UNL d   1     -51.829  25.705  38.734  0.00  0.00     0.000 A 
ATOM     26  C   UNL d   1     -52.527  25.481  38.350  0.00  0.00     0.002 A 
ATOM     27  C   UNL d   1     -52.639  25.653  37.564  0.00  0.00     0.025 A 
ENDBRANCH  21  22
ENDBRANCH  20  21
ENDBRANCH  19  20
ENDBRANCH   3  19
TORSDOF 7
ENDMDL
