MODEL 1
REMARK VINA RESULT:       6.9      0.000      0.000
REMARK  2 active torsions:
REMARK  status: ('A' for Active; 'I' for Inactive)
REMARK    1  A    between atoms: C_6  and  C_1 
REMARK    2  A    between atoms: C_11  and  C_6 
ROOT
ATOM      1  C   UNL d   1     -51.676  24.672  33.349  0.00  0.00     0.059 A 
ATOM      2  C   UNL d   1     -50.982  24.230  33.326  0.00  0.00     0.085 A 
ATOM      3  N   UNL d   1     -50.320  24.730  33.309  0.00  0.00    -0.245 NA
ATOM      4  C   UNL d   1     -51.449  25.478  33.347  0.00  0.00     0.022 A 
ATOM      5  C   UNL d   1     -50.619  25.519  33.323  0.00  0.00     0.082 A 
ATOM      6  C   UNL d   1     -51.001  23.411  33.321  0.00  0.00     0.021 C 
ATOM      7  C   UNL d   1     -51.894  26.170  33.364  0.00  0.00     0.002 A 
ATOM      8  C   UNL d   1     -50.235  26.252  33.316  0.00  0.00     0.019 A 
ATOM      9  C   UNL d   1     -51.493  26.905  33.357  0.00  0.00     0.000 A 
ATOM     10  C   UNL d   1     -50.694  26.937  33.334  0.00  0.00     0.002 A 
ENDROOT
BRANCH   1  11
ATOM     11  C   UNL d   1     -52.448  24.368  33.369  0.00  0.00     0.208 C 
ATOM     12  O   UNL d   1     -53.099  24.862  33.308  0.00  0.00    -0.286 OA
BRANCH  11  13
ATOM     13  C   UNL d   1     -52.560  23.569  33.451  0.00  0.00     0.110 C 
ATOM     14 CL   UNL d   1     -53.307  23.268  33.393  0.00  0.00    -0.078 Cl
ENDBRANCH  11  13
ENDBRANCH   1  11
TORSDOF 2
ENDMDL
MODEL 2
REMARK VINA RESULT:       8.7      1.759      3.043
REMARK  2 active torsions:
REMARK  status: ('A' for Active; 'I' for Inactive)
REMARK    1  A    between atoms: C_6  and  C_1 
REMARK    2  A    between atoms: C_11  and  C_6 
ROOT
ATOM      1  C   UNL d   1     -51.306  25.401  33.325  0.00  0.00     0.059 A 
ATOM      2  C   UNL d   1     -51.936  25.929  33.325  0.00  0.00     0.085 A 
ATOM      3  N   UNL d   1     -52.658  25.520  33.330  0.00  0.00    -0.245 NA
ATOM      4  C   UNL d   1     -51.635  24.632  33.331  0.00  0.00     0.022 A 
ATOM      5  C   UNL d   1     -52.464  24.699  33.334  0.00  0.00     0.082 A 
ATOM      6  C   UNL d   1     -51.811  26.740  33.320  0.00  0.00     0.021 C 
ATOM      7  C   UNL d   1     -51.283  23.887  33.334  0.00  0.00     0.002 A 
ATOM      8  C   UNL d   1     -52.940  24.021  33.340  0.00  0.00     0.019 A 
ATOM      9  C   UNL d   1     -51.776  23.211  33.339  0.00  0.00     0.000 A 
ATOM     10  C   UNL d   1     -52.574  23.282  33.342  0.00  0.00     0.002 A 
ENDROOT
BRANCH   1  11
ATOM     11  C   UNL d   1     -50.500  25.602  33.321  0.00  0.00     0.208 C 
ATOM     12  O   UNL d   1     -49.920  25.024  33.327  0.00  0.00    -0.286 OA
BRANCH  11  13
ATOM     13  C   UNL d   1     -50.285  26.384  33.310  0.00  0.00     0.110 C 
ATOM     14 CL   UNL d   1     -49.501  26.576  33.307  0.00  0.00    -0.078 Cl
ENDBRANCH  11  13
ENDBRANCH   1  11
TORSDOF 2
ENDMDL
