MODEL 1
REMARK VINA RESULT:       0.5      0.000      0.000
REMARK  6 active torsions:
REMARK  status: ('A' for Active; 'I' for Inactive)
REMARK    1  A    between atoms: C_7  and  C_1 
REMARK    2  A    between atoms: C_9  and  N_2 
REMARK    3  A    between atoms: C_18  and  C_7 
REMARK    4  A    between atoms: C_8  and  C_9 
REMARK       I    between atoms: N_14  and  C_8 
REMARK    5  A    between atoms: C_16  and  N_14 
REMARK    6  A    between atoms: C_29  and  C_23 
ROOT
ATOM      1  C   UNL d   1      32.208  21.624 -21.201  0.00  0.00     0.095 A 
ATOM      2  N   UNL d   1      32.893  20.870 -22.229  0.00  0.00    -0.300 N 
ATOM      3  C   UNL d   1      32.205  22.288 -21.691  0.00  0.00     0.202 A 
ATOM      4  C   UNL d   1      32.553  20.907 -21.466  0.00  0.00     0.087 A 
ATOM      5  C   UNL d   1      32.546  22.251 -22.454  0.00  0.00     0.055 A 
ATOM      6  C   UNL d   1      32.891  21.533 -22.719  0.00  0.00     0.067 A 
ATOM      7  C   UNL d   1      33.228  21.491 -23.471  0.00  0.00     0.018 A 
ATOM      8  C   UNL d   1      32.543  22.915 -22.943  0.00  0.00     0.005 A 
ATOM      9  O   UNL d   1      31.865  22.995 -21.429  0.00  0.00    -0.286 OA
ATOM     10  C   UNL d   1      32.881  22.871 -23.694  0.00  0.00     0.000 A 
ATOM     11  C   UNL d   1      33.225  22.154 -23.960  0.00  0.00     0.002 A 
ENDROOT
BRANCH   2  12
ATOM     12  C   UNL d   1      33.233  20.163 -22.491  0.00  0.00     0.144 C 
BRANCH  12  13
ATOM     13  C   UNL d   1      32.761  19.498 -22.614  0.00  0.00     0.297 C 
ATOM     14  N   UNL d   1      32.867  19.034 -23.290  0.00  0.00    -0.207 NA
ATOM     15  O   UNL d   1      32.183  19.297 -22.061  0.00  0.00    -0.264 OA
BRANCH  14  16
ATOM     16  C   UNL d   1      32.394  18.369 -23.413  0.00  0.00     0.086 A 
ATOM     17  C   UNL d   1      31.629  18.457 -23.708  0.00  0.00     0.031 A 
ATOM     18  C   UNL d   1      31.153  17.803 -23.834  0.00  0.00     0.059 A 
ATOM     19 CL   UNL d   1      30.386  17.896 -24.130  0.00  0.00    -0.082 Cl
ATOM     20  C   UNL d   1      31.450  17.039 -23.659  0.00  0.00     0.011 A 
ATOM     21  C   UNL d   1      32.215  16.951 -23.364  0.00  0.00     0.002 A 
ATOM     22  C   UNL d   1      30.976  16.377 -23.782  0.00  0.00     0.001 C 
ATOM     23  C   UNL d   1      32.688  17.615 -23.241  0.00  0.00     0.019 A 
ENDBRANCH  14  16
ENDBRANCH  12  13
ENDBRANCH   2  12
BRANCH   1  24
ATOM     24  C   UNL d   1      31.873  21.651 -20.443  0.00  0.00     0.200 C 
ATOM     25  O   UNL d   1      31.076  21.406 -20.342  0.00  0.00    -0.286 OA
BRANCH  24  26
ATOM     26  C   UNL d   1      32.309  21.914 -19.794  0.00  0.00     0.039 A 
ATOM     27  C   UNL d   1      32.788  21.378 -19.385  0.00  0.00     0.003 A 
ATOM     28  C   UNL d   1      33.224  21.641 -18.736  0.00  0.00     0.000 A 
ATOM     29  C   UNL d   1      33.179  22.431 -18.503  0.00  0.00     0.000 A 
ATOM     30  C   UNL d   1      32.698  22.959 -18.920  0.00  0.00     0.000 A 
ATOM     31  C   UNL d   1      32.261  22.696 -19.568  0.00  0.00     0.003 A 
ENDBRANCH  24  26
ENDBRANCH   1  24
BRANCH  10  32
ATOM     32  C   UNL d   1      32.878  23.536 -24.185  0.00  0.00     0.000 C 
ATOM     33  C   UNL d   1      32.857  23.442 -25.008  0.00  0.00     0.000 C 
ENDBRANCH  10  32
TORSDOF 6
ENDMDL
