MODEL 1
REMARK VINA RESULT:      72.3      0.000      0.000
REMARK  3 active torsions:
REMARK  status: ('A' for Active; 'I' for Inactive)
REMARK    1  A    between atoms: S_2  and  C_1 
REMARK    2  A    between atoms: N_8  and  S_2 
REMARK    3  A    between atoms: C_12  and  N_9 
ROOT
ATOM      1  N   UNL d   1      14.266  14.533  -3.107  0.00  0.00    -0.226 N 
ATOM      2  N   UNL d   1      14.198  15.613  -4.345  0.00  0.00    -0.299 N 
ATOM      3  C   UNL d   1      13.767  14.403  -3.740  0.00  0.00     0.111 A 
ATOM      4  C   UNL d   1      14.735  15.215  -3.098  0.00  0.00     0.111 A 
ATOM      5  C   UNL d   1      13.728  14.930  -4.354  0.00  0.00     0.100 A 
ATOM      6  C   UNL d   1      14.701  15.757  -3.719  0.00  0.00     0.100 A 
ENDROOT
BRANCH   1   7
ATOM      7  S   UNL d   1      14.298  13.987  -2.484  0.00  0.00     0.278 S 
ATOM      8  O   UNL d   1      14.382  13.385  -3.041  0.00  0.00    -0.199 OA
ATOM      9  O   UNL d   1      14.213  14.603  -1.933  0.00  0.00    -0.199 OA
BRANCH   7  10
ATOM     10  C   UNL d   1      14.332  13.435  -1.871  0.00  0.00     0.178 A 
ATOM     11  C   UNL d   1      14.978  13.443  -1.352  0.00  0.00     0.282 A 
ATOM     12  N   UNL d   1      15.009  12.892  -0.744  0.00  0.00    -0.224 N 
ATOM     13  O   UNL d   1      15.571  13.989  -1.446  0.00  0.00    -0.266 OA
ATOM     14  C   UNL d   1      15.657  12.905  -0.228  0.00  0.00     0.107 C 
ATOM     15  C   UNL d   1      14.407  12.338  -0.649  0.00  0.00     0.342 A 
ATOM     16  N   UNL d   1      13.771  12.331  -1.162  0.00  0.00    -0.255 N 
ATOM     17  O   UNL d   1      14.438  11.782  -0.036  0.00  0.00    -0.245 OA
ATOM     18  C   UNL d   1      13.730  12.880  -1.777  0.00  0.00     0.102 A 
ATOM     19  C   UNL d   1      13.172  11.779  -1.068  0.00  0.00     0.104 C 
ENDBRANCH   7  10
ENDBRANCH   1   7
BRANCH   2  20
ATOM     20  C   UNL d   1      14.160  16.157  -4.975  0.00  0.00     0.092 A 
ATOM     21  C   UNL d   1      14.594  16.862  -4.934  0.00  0.00     0.156 A 
ATOM     22  F   UNL d   1      15.057  17.027  -4.283  0.00  0.00    -0.203 F 
ATOM     23  C   UNL d   1      14.553  17.398  -5.560  0.00  0.00     0.031 A 
ATOM     24  C   UNL d   1      14.085  17.232  -6.218  0.00  0.00     0.002 A 
ATOM     25  C   UNL d   1      13.651  16.527  -6.259  0.00  0.00     0.002 A 
ATOM     26  C   UNL d   1      13.692  15.991  -5.632  0.00  0.00     0.020 A 
ENDBRANCH   2  20
TORSDOF 3
ENDMDL
MODEL 2
REMARK VINA RESULT:      73.5      2.820      5.370
REMARK  3 active torsions:
REMARK  status: ('A' for Active; 'I' for Inactive)
REMARK    1  A    between atoms: S_2  and  C_1 
REMARK    2  A    between atoms: N_8  and  S_2 
REMARK    3  A    between atoms: C_12  and  N_9 
ROOT
ATOM      1  N   UNL d   1      13.716  15.697  -5.009  0.00  0.00    -0.226 N 
ATOM      2  N   UNL d   1      13.417  14.136  -4.588  0.00  0.00    -0.299 N 
ATOM      3  C   UNL d   1      13.715  15.111  -5.576  0.00  0.00     0.111 A 
ATOM      4  C   UNL d   1      13.564  15.494  -4.221  0.00  0.00     0.111 A 
ATOM      5  C   UNL d   1      13.568  14.339  -5.378  0.00  0.00     0.100 A 
ATOM      6  C   UNL d   1      13.415  14.711  -4.009  0.00  0.00     0.100 A 
ENDROOT
BRANCH   1   7
ATOM      7  S   UNL d   1      13.866  16.484  -5.224  0.00  0.00     0.278 S 
ATOM      8  O   UNL d   1      14.017  16.652  -4.430  0.00  0.00    -0.199 OA
ATOM      9  O   UNL d   1      13.713  16.301  -6.019  0.00  0.00    -0.199 OA
BRANCH   7  10
ATOM     10  C   UNL d   1      14.019  17.270  -5.426  0.00  0.00     0.178 A 
ATOM     11  C   UNL d   1      14.755  17.601  -5.239  0.00  0.00     0.282 A 
ATOM     12  N   UNL d   1      14.905  18.383  -5.441  0.00  0.00    -0.224 N 
ATOM     13  O   UNL d   1      15.320  17.157  -4.862  0.00  0.00    -0.266 OA
ATOM     14  C   UNL d   1      15.642  18.709  -5.253  0.00  0.00     0.107 C 
ATOM     15  C   UNL d   1      14.331  18.834  -5.824  0.00  0.00     0.342 A 
ATOM     16  N   UNL d   1      13.606  18.505  -6.008  0.00  0.00    -0.255 N 
ATOM     17  O   UNL d   1      14.481  19.622  -6.028  0.00  0.00    -0.245 OA
ATOM     18  C   UNL d   1      13.445  17.721  -5.809  0.00  0.00     0.102 A 
ATOM     19  C   UNL d   1      13.035  18.954  -6.389  0.00  0.00     0.104 C 
ENDBRANCH   7  10
ENDBRANCH   1   7
BRANCH   2  20
ATOM     20  C   UNL d   1      13.266  13.344  -4.380  0.00  0.00     0.092 A 
ATOM     21  C   UNL d   1      13.467  13.074  -3.622  0.00  0.00     0.156 A 
ATOM     22  F   UNL d   1      13.810  13.578  -3.080  0.00  0.00    -0.203 F 
ATOM     23  C   UNL d   1      13.316  12.288  -3.420  0.00  0.00     0.031 A 
ATOM     24  C   UNL d   1      12.970  11.779  -3.968  0.00  0.00     0.002 A 
ATOM     25  C   UNL d   1      12.769  12.049  -4.726  0.00  0.00     0.002 A 
ATOM     26  C   UNL d   1      12.920  12.835  -4.928  0.00  0.00     0.020 A 
ENDBRANCH   2  20
TORSDOF 3
ENDMDL
