MODEL 1
REMARK VINA RESULT:      -3.0      0.000      0.000
REMARK  6 active torsions:
REMARK  status: ('A' for Active; 'I' for Inactive)
REMARK    1  A    between atoms: N_2  and  S_1 
REMARK    2  A    between atoms: C_4  and  S_1 
REMARK    3  A    between atoms: C_5  and  N_3 
REMARK    4  A    between atoms: C_10  and  C_4 
REMARK    5  A    between atoms: C_14  and  C_10 
REMARK    6  A    between atoms: O_15  and  C_13 
ROOT
ATOM      1  N   UNL d   1      33.011  19.289 -22.791  0.00  0.00    -0.226 N 
ATOM      2  N   UNL d   1      32.780  17.915 -23.688  0.00  0.00    -0.300 N 
ATOM      3  C   UNL d   1      32.753  19.343 -23.582  0.00  0.00     0.111 A 
ATOM      4  C   UNL d   1      33.147  18.559 -22.467  0.00  0.00     0.111 A 
ATOM      5  C   UNL d   1      33.036  17.876 -22.901  0.00  0.00     0.100 A 
ATOM      6  C   UNL d   1      32.642  18.660 -24.016  0.00  0.00     0.100 A 
ENDROOT
BRANCH   1   7
ATOM      7  S   UNL d   1      33.127  19.979 -22.341  0.00  0.00     0.272 S 
ATOM      8  O   UNL d   1      33.007  19.532 -21.631  0.00  0.00    -0.200 OA
ATOM      9  O   UNL d   1      33.241  20.407 -23.027  0.00  0.00    -0.200 OA
BRANCH   7  10
ATOM     10  C   UNL d   1      33.239  20.651 -21.890  0.00  0.00     0.116 C 
BRANCH  10  11
ATOM     11  C   UNL d   1      32.646  20.893 -21.350  0.00  0.00     0.014 C 
BRANCH  11  12
ATOM     12  C   UNL d   1      32.640  21.687 -21.034  0.00  0.00     0.001 A 
ATOM     13  C   UNL d   1      33.220  21.920 -20.467  0.00  0.00     0.000 A 
ATOM     14  C   UNL d   1      33.203  22.690 -20.170  0.00  0.00     0.000 A 
ATOM     15  C   UNL d   1      32.638  23.222 -20.415  0.00  0.00     0.000 A 
ATOM     16  C   UNL d   1      32.068  22.977 -20.980  0.00  0.00     0.000 A 
ATOM     17  C   UNL d   1      32.067  22.212 -21.289  0.00  0.00     0.000 A 
ENDBRANCH  11  12
ENDBRANCH  10  11
ENDBRANCH   7  10
ENDBRANCH   1   7
BRANCH   2  18
ATOM     18  C   UNL d   1      32.663  17.243 -24.139  0.00  0.00     0.086 A 
ATOM     19  C   UNL d   1      31.928  16.829 -24.089  0.00  0.00     0.110 A 
ATOM     20  C   UNL d   1      31.806  16.147 -24.545  0.00  0.00     0.026 A 
ATOM     21  C   UNL d   1      32.416  15.861 -25.064  0.00  0.00     0.002 A 
ATOM     22  C   UNL d   1      33.124  16.281 -25.097  0.00  0.00     0.002 A 
ATOM     23  C   UNL d   1      33.239  16.970 -24.632  0.00  0.00     0.019 A 
BRANCH  19  24
ATOM     24  O   UNL d   1      31.338  17.103 -23.588  0.00  0.00    -0.327 OA
ATOM     25  C   UNL d   1      30.636  16.681 -23.488  0.00  0.00     0.181 C 
ENDBRANCH  19  24
ENDBRANCH   2  18
TORSDOF 6
ENDMDL
MODEL 2
REMARK VINA RESULT:      -0.9      1.076      5.442
REMARK  6 active torsions:
REMARK  status: ('A' for Active; 'I' for Inactive)
REMARK    1  A    between atoms: N_2  and  S_1 
REMARK    2  A    between atoms: C_4  and  S_1 
REMARK    3  A    between atoms: C_5  and  N_3 
REMARK    4  A    between atoms: C_10  and  C_4 
REMARK    5  A    between atoms: C_14  and  C_10 
REMARK    6  A    between atoms: O_15  and  C_13 
ROOT
ATOM      1  N   UNL d   1      32.965  19.701 -22.761  0.00  0.00    -0.226 N 
ATOM      2  N   UNL d   1      32.864  21.233 -22.138  0.00  0.00    -0.300 N 
ATOM      3  C   UNL d   1      32.631  20.316 -23.215  0.00  0.00     0.111 A 
ATOM      4  C   UNL d   1      33.238  19.860 -22.016  0.00  0.00     0.111 A 
ATOM      5  C   UNL d   1      33.193  20.612 -21.699  0.00  0.00     0.100 A 
ATOM      6  C   UNL d   1      32.586  21.068 -22.898  0.00  0.00     0.100 A 
ENDROOT
BRANCH   1   7
ATOM      7  S   UNL d   1      33.016  18.932 -23.074  0.00  0.00     0.272 S 
ATOM      8  O   UNL d   1      32.981  18.614 -22.290  0.00  0.00    -0.200 OA
ATOM      9  O   UNL d   1      33.049  19.242 -23.830  0.00  0.00    -0.200 OA
BRANCH   7  10
ATOM     10  C   UNL d   1      33.065  18.172 -23.372  0.00  0.00     0.116 C 
BRANCH  10  11
ATOM     11  C   UNL d   1      32.590  17.950 -24.025  0.00  0.00     0.014 C 
BRANCH  11  12
ATOM     12  C   UNL d   1      32.446  17.126 -24.201  0.00  0.00     0.001 A 
ATOM     13  C   UNL d   1      31.829  16.711 -23.804  0.00  0.00     0.000 A 
ATOM     14  C   UNL d   1      31.701  15.916 -23.983  0.00  0.00     0.000 A 
ATOM     15  C   UNL d   1      32.159  15.531 -24.534  0.00  0.00     0.000 A 
ATOM     16  C   UNL d   1      32.770  15.956 -24.921  0.00  0.00     0.000 A 
ATOM     17  C   UNL d   1      32.915  16.751 -24.757  0.00  0.00     0.000 A 
ENDBRANCH  11  12
ENDBRANCH  10  11
ENDBRANCH   7  10
ENDBRANCH   1   7
BRANCH   2  18
ATOM     18  C   UNL d   1      32.809  21.992 -21.840  0.00  0.00     0.086 A 
ATOM     19  C   UNL d   1      32.300  22.148 -21.183  0.00  0.00     0.110 A 
ATOM     20  C   UNL d   1      32.243  22.916 -20.878  0.00  0.00     0.026 A 
ATOM     21  C   UNL d   1      32.692  23.551 -21.222  0.00  0.00     0.002 A 
ATOM     22  C   UNL d   1      33.181  23.376 -21.861  0.00  0.00     0.002 A 
ATOM     23  C   UNL d   1      33.234  22.595 -22.164  0.00  0.00     0.019 A 
BRANCH  19  24
ATOM     24  O   UNL d   1      31.865  21.536 -20.849  0.00  0.00    -0.327 OA
ATOM     25  C   UNL d   1      31.469  21.638 -20.134  0.00  0.00     0.181 C 
ENDBRANCH  19  24
ENDBRANCH   2  18
TORSDOF 6
ENDMDL
