MODEL 1
REMARK VINA RESULT:      -3.6      0.000      0.000
REMARK  4 active torsions:
REMARK  status: ('A' for Active; 'I' for Inactive)
REMARK       I    between atoms: C_6  and  N_7 
REMARK    1  A    between atoms: C_8  and  C_6 
REMARK    2  A    between atoms: N_7  and  C_14 
REMARK    3  A    between atoms: C_14  and  C_13 
REMARK    4  A    between atoms: O_17  and  C_15 
ROOT
ATOM      1  C   UNL d   1      32.863  18.452 -22.997  0.00  0.00     0.279 C 
ATOM      2  N   UNL d   1      32.831  19.258 -22.836  0.00  0.00    -0.206 NA
ATOM      3  O   UNL d   1      33.241  17.943 -22.469  0.00  0.00    -0.265 OA
ENDROOT
BRANCH   2   4
ATOM      4  C   UNL d   1      33.173  19.561 -22.151  0.00  0.00     0.102 C 
BRANCH   4   5
ATOM      5  C   UNL d   1      33.095  20.361 -21.967  0.00  0.00     0.019 A 
ATOM      6  C   UNL d   1      33.241  20.938 -22.539  0.00  0.00     0.003 A 
ATOM      7  C   UNL d   1      33.160  21.741 -22.345  0.00  0.00     0.019 A 
ATOM      8  C   UNL d   1      32.934  21.963 -21.585  0.00  0.00     0.081 A 
ATOM      9  C   UNL d   1      32.787  21.387 -21.013  0.00  0.00     0.019 A 
ATOM     10  N   UNL d   1      32.813  22.703 -21.248  0.00  0.00    -0.246 NA
ATOM     11  C   UNL d   1      32.867  20.589 -21.201  0.00  0.00     0.003 A 
ATOM     12  C   UNL d   1      32.575  21.775 -20.316  0.00  0.00     0.021 A 
ATOM     13  C   UNL d   1      32.591  22.586 -20.462  0.00  0.00     0.082 A 
ATOM     14  C   UNL d   1      32.415  23.180 -19.916  0.00  0.00     0.021 C 
ENDBRANCH   4   5
ENDBRANCH   2   4
BRANCH   1  15
ATOM     15  C   UNL d   1      32.519  18.157 -23.685  0.00  0.00     0.060 A 
ATOM     16  C   UNL d   1      31.754  17.848 -23.663  0.00  0.00     0.029 A 
ATOM     17  C   UNL d   1      31.412  17.554 -24.350  0.00  0.00     0.094 A 
ATOM     18  C   UNL d   1      31.840  17.569 -25.070  0.00  0.00     0.024 A 
ATOM     19  C   UNL d   1      32.605  17.878 -25.092  0.00  0.00     0.002 A 
ATOM     20  C   UNL d   1      32.950  18.176 -24.393  0.00  0.00     0.005 A 
BRANCH  17  21
ATOM     21  O   UNL d   1      30.644  17.242 -24.336  0.00  0.00    -0.328 OA
ATOM     22  C   UNL d   1      30.145  17.329 -24.989  0.00  0.00     0.181 C 
ENDBRANCH  17  21
ENDBRANCH   1  15
TORSDOF 4
ENDMDL
MODEL 2
REMARK VINA RESULT:      -3.6      1.298      1.903
REMARK  4 active torsions:
REMARK  status: ('A' for Active; 'I' for Inactive)
REMARK       I    between atoms: C_6  and  N_7 
REMARK    1  A    between atoms: C_8  and  C_6 
REMARK    2  A    between atoms: N_7  and  C_14 
REMARK    3  A    between atoms: C_14  and  C_13 
REMARK    4  A    between atoms: O_17  and  C_15 
ROOT
ATOM      1  C   UNL d   1      32.389  17.073 -23.772  0.00  0.00     0.279 C 
ATOM      2  N   UNL d   1      32.420  17.858 -23.530  0.00  0.00    -0.206 NA
ATOM      3  O   UNL d   1      33.079  16.620 -23.784  0.00  0.00    -0.265 OA
ENDROOT
BRANCH   2   4
ATOM      4  C   UNL d   1      33.133  18.197 -23.298  0.00  0.00     0.102 C 
BRANCH   4   5
ATOM      5  C   UNL d   1      33.161  18.987 -23.062  0.00  0.00     0.019 A 
ATOM      6  C   UNL d   1      33.213  19.589 -23.624  0.00  0.00     0.003 A 
ATOM      7  C   UNL d   1      33.240  20.381 -23.378  0.00  0.00     0.019 A 
ATOM      8  C   UNL d   1      33.216  20.568 -22.576  0.00  0.00     0.081 A 
ATOM      9  C   UNL d   1      33.164  19.966 -22.014  0.00  0.00     0.019 A 
ATOM     10  N   UNL d   1      33.234  21.290 -22.186  0.00  0.00    -0.246 NA
ATOM     11  C   UNL d   1      33.137  19.178 -22.254  0.00  0.00     0.003 A 
ATOM     12  C   UNL d   1      33.150  20.321 -21.269  0.00  0.00     0.021 A 
ATOM     13  C   UNL d   1      33.193  21.137 -21.375  0.00  0.00     0.082 A 
ATOM     14  C   UNL d   1      33.196  21.704 -20.775  0.00  0.00     0.021 C 
ENDBRANCH   4   5
ENDBRANCH   2   4
BRANCH   1  15
ATOM     15  C   UNL d   1      31.671  16.742 -24.003  0.00  0.00     0.060 A 
ATOM     16  C   UNL d   1      31.227  16.304 -23.463  0.00  0.00     0.029 A 
ATOM     17  C   UNL d   1      30.511  15.975 -23.695  0.00  0.00     0.094 A 
ATOM     18  C   UNL d   1      30.234  16.084 -24.478  0.00  0.00     0.024 A 
ATOM     19  C   UNL d   1      30.679  16.521 -25.018  0.00  0.00     0.002 A 
ATOM     20  C   UNL d   1      31.406  16.855 -24.780  0.00  0.00     0.005 A 
BRANCH  17  21
ATOM     21  O   UNL d   1      30.058  15.534 -23.158  0.00  0.00    -0.328 OA
ATOM     22  C   UNL d   1      29.259  15.711 -23.039  0.00  0.00     0.181 C 
ENDBRANCH  17  21
ENDBRANCH   1  15
TORSDOF 4
ENDMDL
MODEL 3
REMARK VINA RESULT:      -3.0      1.253      2.045
REMARK  4 active torsions:
REMARK  status: ('A' for Active; 'I' for Inactive)
REMARK       I    between atoms: C_6  and  N_7 
REMARK    1  A    between atoms: C_8  and  C_6 
REMARK    2  A    between atoms: N_7  and  C_14 
REMARK    3  A    between atoms: C_14  and  C_13 
REMARK    4  A    between atoms: O_17  and  C_15 
ROOT
ATOM      1  C   UNL d   1      32.187  17.452 -24.162  0.00  0.00     0.279 C 
ATOM      2  N   UNL d   1      32.382  17.941 -23.529  0.00  0.00    -0.206 NA
ATOM      3  O   UNL d   1      32.622  17.496 -24.862  0.00  0.00    -0.265 OA
ENDROOT
BRANCH   2   4
ATOM      4  C   UNL d   1      33.007  18.473 -23.588  0.00  0.00     0.102 C 
BRANCH   4   5
ATOM      5  C   UNL d   1      33.069  19.101 -23.057  0.00  0.00     0.019 A 
ATOM      6  C   UNL d   1      33.162  18.957 -22.250  0.00  0.00     0.003 A 
ATOM      7  C   UNL d   1      33.225  19.595 -21.722  0.00  0.00     0.019 A 
ATOM      8  C   UNL d   1      33.194  20.369 -22.001  0.00  0.00     0.081 A 
ATOM      9  C   UNL d   1      33.101  20.513 -22.808  0.00  0.00     0.019 A 
ATOM     10  N   UNL d   1      33.241  21.090 -21.610  0.00  0.00    -0.246 NA
ATOM     11  C   UNL d   1      33.039  19.883 -23.336  0.00  0.00     0.003 A 
ATOM     12  C   UNL d   1      33.091  21.332 -22.916  0.00  0.00     0.021 A 
ATOM     13  C   UNL d   1      33.177  21.686 -22.178  0.00  0.00     0.082 A 
ATOM     14  C   UNL d   1      33.196  22.499 -22.030  0.00  0.00     0.021 C 
ENDBRANCH   4   5
ENDBRANCH   2   4
BRANCH   1  15
ATOM     15  C   UNL d   1      31.560  16.923 -24.094  0.00  0.00     0.060 A 
ATOM     16  C   UNL d   1      30.817  17.123 -24.391  0.00  0.00     0.029 A 
ATOM     17  C   UNL d   1      30.193  16.593 -24.323  0.00  0.00     0.094 A 
ATOM     18  C   UNL d   1      30.313  15.851 -23.952  0.00  0.00     0.024 A 
ATOM     19  C   UNL d   1      31.056  15.651 -23.655  0.00  0.00     0.002 A 
ATOM     20  C   UNL d   1      31.688  16.191 -23.726  0.00  0.00     0.005 A 
BRANCH  17  21
ATOM     21  O   UNL d   1      29.443  16.787 -24.618  0.00  0.00    -0.328 OA
ATOM     22  C   UNL d   1      28.766  16.654 -24.163  0.00  0.00     0.181 C 
ENDBRANCH  17  21
ENDBRANCH   1  15
TORSDOF 4
ENDMDL
MODEL 4
REMARK VINA RESULT:      -1.9      2.739      3.883
REMARK  4 active torsions:
REMARK  status: ('A' for Active; 'I' for Inactive)
REMARK       I    between atoms: C_6  and  N_7 
REMARK    1  A    between atoms: C_8  and  C_6 
REMARK    2  A    between atoms: N_7  and  C_14 
REMARK    3  A    between atoms: C_14  and  C_13 
REMARK    4  A    between atoms: O_17  and  C_15 
ROOT
ATOM      1  C   UNL d   1      30.737  16.069 -23.663  0.00  0.00     0.279 C 
ATOM      2  N   UNL d   1      31.183  16.675 -23.997  0.00  0.00    -0.206 NA
ATOM      3  O   UNL d   1      31.082  15.561 -23.113  0.00  0.00    -0.265 OA
ENDROOT
BRANCH   2   4
ATOM      4  C   UNL d   1      31.972  16.777 -23.786  0.00  0.00     0.102 C 
BRANCH   4   5
ATOM      5  C   UNL d   1      32.303  17.533 -23.771  0.00  0.00     0.019 A 
ATOM      6  C   UNL d   1      32.682  17.809 -23.091  0.00  0.00     0.003 A 
ATOM      7  C   UNL d   1      33.012  18.570 -23.085  0.00  0.00     0.019 A 
ATOM      8  C   UNL d   1      32.964  19.049 -23.753  0.00  0.00     0.081 A 
ATOM      9  C   UNL d   1      32.586  18.773 -24.432  0.00  0.00     0.019 A 
ATOM     10  N   UNL d   1      33.238  19.811 -23.896  0.00  0.00    -0.246 NA
ATOM     11  C   UNL d   1      32.256  18.018 -24.443  0.00  0.00     0.003 A 
ATOM     12  C   UNL d   1      32.626  19.370 -25.001  0.00  0.00     0.021 A 
ATOM     13  C   UNL d   1      33.028  20.009 -24.670  0.00  0.00     0.082 A 
ATOM     14  C   UNL d   1      33.193  20.725 -25.047  0.00  0.00     0.021 C 
ENDBRANCH   4   5
ENDBRANCH   2   4
BRANCH   1  15
ATOM     15  C   UNL d   1      29.948  15.974 -23.880  0.00  0.00     0.060 A 
ATOM     16  C   UNL d   1      29.349  16.290 -23.408  0.00  0.00     0.029 A 
ATOM     17  C   UNL d   1      28.563  16.194 -23.626  0.00  0.00     0.094 A 
ATOM     18  C   UNL d   1      28.371  15.774 -24.326  0.00  0.00     0.024 A 
ATOM     19  C   UNL d   1      28.969  15.458 -24.797  0.00  0.00     0.002 A 
ATOM     20  C   UNL d   1      29.767  15.558 -24.574  0.00  0.00     0.005 A 
BRANCH  17  21
ATOM     21  O   UNL d   1      27.956  16.508 -23.157  0.00  0.00    -0.328 OA
ATOM     22  C   UNL d   1      27.217  16.139 -23.125  0.00  0.00     0.181 C 
ENDBRANCH  17  21
ENDBRANCH   1  15
TORSDOF 4
ENDMDL
