MODEL 1
REMARK VINA RESULT:      -6.6      0.000      0.000
REMARK  4 active torsions:
REMARK  status: ('A' for Active; 'I' for Inactive)
REMARK    1  A    between atoms: N_3  and  C_1 
REMARK       I    between atoms: C_7  and  N_3 
REMARK    2  A    between atoms: S_10  and  C_5 
REMARK    3  A    between atoms: C_9  and  C_7 
REMARK    4  A    between atoms: C_13  and  S_10 
ROOT
ATOM      1  N   UNL d   1     -48.122  12.869  23.276  0.00  0.00    -0.181 NA
ATOM      2  C   UNL d   1     -48.563  12.282  22.892  0.00  0.00     0.281 C 
ATOM      3  O   UNL d   1     -48.191  11.733  22.384  0.00  0.00    -0.265 OA
ENDROOT
BRANCH   1   4
ATOM      4  C   UNL d   1     -47.332  12.904  23.152  0.00  0.00     0.219 A 
ATOM      5  S   UNL d   1     -46.874  13.229  22.545  0.00  0.00    -0.019 SA
ATOM      6  C   UNL d   1     -46.079  13.093  22.722  0.00  0.00     0.165 A 
ATOM      7  N   UNL d   1     -46.041  12.698  23.416  0.00  0.00    -0.133 NA
ATOM      8  N   UNL d   1     -46.788  12.588  23.668  0.00  0.00    -0.120 NA
BRANCH   6   9
ATOM      9  S   UNL d   1     -45.404  13.320  22.269  0.00  0.00    -0.059 SA
BRANCH   9  10
ATOM     10  C   UNL d   1     -44.836  12.796  22.099  0.00  0.00     0.037 C 
ATOM     11  C   UNL d   1     -44.208  13.006  21.620  0.00  0.00     0.008 C 
ENDBRANCH   9  10
ENDBRANCH   6   9
ENDBRANCH   1   4
BRANCH   2  12
ATOM     12  C   UNL d   1     -49.404  12.255  23.032  0.00  0.00     0.058 A 
ATOM     13  C   UNL d   1     -49.741  11.745  23.584  0.00  0.00     0.005 A 
ATOM     14  C   UNL d   1     -50.575  11.746  23.694  0.00  0.00     0.000 A 
ATOM     15  C   UNL d   1     -51.062  12.246  23.262  0.00  0.00     0.000 A 
ATOM     16  C   UNL d   1     -50.735  12.757  22.710  0.00  0.00     0.000 A 
ATOM     17  C   UNL d   1     -49.897  12.763  22.592  0.00  0.00     0.005 A 
ENDBRANCH   2  12
TORSDOF 4
ENDMDL
MODEL 2
REMARK VINA RESULT:      -6.3      1.904      2.139
REMARK  4 active torsions:
REMARK  status: ('A' for Active; 'I' for Inactive)
REMARK    1  A    between atoms: N_3  and  C_1 
REMARK       I    between atoms: C_7  and  N_3 
REMARK    2  A    between atoms: S_10  and  C_5 
REMARK    3  A    between atoms: C_9  and  C_7 
REMARK    4  A    between atoms: C_13  and  S_10 
ROOT
ATOM      1  N   UNL d   1     -48.199  13.968  23.012  0.00  0.00    -0.181 NA
ATOM      2  C   UNL d   1     -48.466  14.688  22.700  0.00  0.00     0.281 C 
ATOM      3  O   UNL d   1     -47.940  15.203  22.306  0.00  0.00    -0.265 OA
ENDROOT
BRANCH   1   4
ATOM      4  C   UNL d   1     -47.428  13.772  22.930  0.00  0.00     0.219 A 
ATOM      5  S   UNL d   1     -47.025  13.299  22.384  0.00  0.00    -0.019 SA
ATOM      6  C   UNL d   1     -46.223  13.304  22.583  0.00  0.00     0.165 A 
ATOM      7  N   UNL d   1     -46.128  13.763  23.229  0.00  0.00    -0.133 NA
ATOM      8  N   UNL d   1     -46.846  14.040  23.432  0.00  0.00    -0.120 NA
BRANCH   6   9
ATOM      9  S   UNL d   1     -45.594  12.903  22.189  0.00  0.00    -0.059 SA
BRANCH   9  10
ATOM     10  C   UNL d   1     -44.935  13.290  21.980  0.00  0.00     0.037 C 
ATOM     11  C   UNL d   1     -44.311  12.891  21.636  0.00  0.00     0.008 C 
ENDBRANCH   9  10
ENDBRANCH   6   9
ENDBRANCH   1   4
BRANCH   2  12
ATOM     12  C   UNL d   1     -49.291  14.886  22.794  0.00  0.00     0.058 A 
ATOM     13  C   UNL d   1     -49.879  14.546  22.329  0.00  0.00     0.005 A 
ATOM     14  C   UNL d   1     -50.682  14.765  22.450  0.00  0.00     0.000 A 
ATOM     15  C   UNL d   1     -50.893  15.313  23.023  0.00  0.00     0.000 A 
ATOM     16  C   UNL d   1     -50.314  15.657  23.491  0.00  0.00     0.000 A 
ATOM     17  C   UNL d   1     -49.503  15.443  23.376  0.00  0.00     0.005 A 
ENDBRANCH   2  12
TORSDOF 4
ENDMDL
MODEL 3
REMARK VINA RESULT:      -5.3      1.985      4.315
REMARK  4 active torsions:
REMARK  status: ('A' for Active; 'I' for Inactive)
REMARK    1  A    between atoms: N_3  and  C_1 
REMARK       I    between atoms: C_7  and  N_3 
REMARK    2  A    between atoms: S_10  and  C_5 
REMARK    3  A    between atoms: C_9  and  C_7 
REMARK    4  A    between atoms: C_13  and  S_10 
ROOT
ATOM      1  N   UNL d   1     -47.730  13.370  22.401  0.00  0.00    -0.181 NA
ATOM      2  C   UNL d   1     -47.100  13.417  22.937  0.00  0.00     0.281 C 
ATOM      3  O   UNL d   1     -47.212  13.743  23.698  0.00  0.00    -0.265 OA
ENDROOT
BRANCH   1   4
ATOM      4  C   UNL d   1     -48.450  13.641  22.623  0.00  0.00     0.219 A 
ATOM      5  S   UNL d   1     -48.819  14.377  22.543  0.00  0.00    -0.019 SA
ATOM      6  C   UNL d   1     -49.570  14.325  22.883  0.00  0.00     0.165 A 
ATOM      7  N   UNL d   1     -49.666  13.584  23.165  0.00  0.00    -0.133 NA
ATOM      8  N   UNL d   1     -48.998  13.180  23.008  0.00  0.00    -0.120 NA
BRANCH   6   9
ATOM      9  S   UNL d   1     -50.154  14.932  22.938  0.00  0.00    -0.059 SA
BRANCH   9  10
ATOM     10  C   UNL d   1     -50.309  15.283  23.630  0.00  0.00     0.037 C 
ATOM     11  C   UNL d   1     -50.895  15.849  23.685  0.00  0.00     0.008 C 
ENDBRANCH   9  10
ENDBRANCH   6   9
ENDBRANCH   1   4
BRANCH   2  12
ATOM     12  C   UNL d   1     -46.338  13.125  22.689  0.00  0.00     0.058 A 
ATOM     13  C   UNL d   1     -46.045  12.396  22.939  0.00  0.00     0.005 A 
ATOM     14  C   UNL d   1     -45.289  12.141  22.673  0.00  0.00     0.000 A 
ATOM     15  C   UNL d   1     -44.835  12.602  22.169  0.00  0.00     0.000 A 
ATOM     16  C   UNL d   1     -45.118  13.329  21.915  0.00  0.00     0.000 A 
ATOM     17  C   UNL d   1     -45.879  13.595  22.177  0.00  0.00     0.005 A 
ENDBRANCH   2  12
TORSDOF 4
ENDMDL
MODEL 4
REMARK VINA RESULT:      -5.1      8.654      9.853
REMARK  4 active torsions:
REMARK  status: ('A' for Active; 'I' for Inactive)
REMARK    1  A    between atoms: N_3  and  C_1 
REMARK       I    between atoms: C_7  and  N_3 
REMARK    2  A    between atoms: S_10  and  C_5 
REMARK    3  A    between atoms: C_9  and  C_7 
REMARK    4  A    between atoms: C_13  and  S_10 
ROOT
ATOM      1  N   UNL d   1     -39.415  14.571  18.601  0.00  0.00    -0.181 NA
ATOM      2  C   UNL d   1     -40.229  14.503  18.745  0.00  0.00     0.281 C 
ATOM      3  O   UNL d   1     -40.733  14.151  18.180  0.00  0.00    -0.265 OA
ENDROOT
BRANCH   1   4
ATOM      4  C   UNL d   1     -39.119  14.295  17.911  0.00  0.00     0.219 A 
ATOM      5  S   UNL d   1     -38.939  14.662  17.192  0.00  0.00    -0.019 SA
ATOM      6  C   UNL d   1     -38.645  14.086  16.677  0.00  0.00     0.165 A 
ATOM      7  N   UNL d   1     -38.640  13.386  17.061  0.00  0.00    -0.133 NA
ATOM      8  N   UNL d   1     -38.922  13.514  17.794  0.00  0.00    -0.120 NA
BRANCH   6   9
ATOM      9  S   UNL d   1     -38.386  14.192  15.881  0.00  0.00    -0.059 SA
BRANCH   9  10
ATOM     10  C   UNL d   1     -38.111  13.580  15.460  0.00  0.00     0.037 C 
ATOM     11  C   UNL d   1     -37.940  13.668  14.666  0.00  0.00     0.008 C 
ENDBRANCH   9  10
ENDBRANCH   6   9
ENDBRANCH   1   4
BRANCH   2  12
ATOM     12  C   UNL d   1     -40.533  14.802  19.483  0.00  0.00     0.058 A 
ATOM     13  C   UNL d   1     -40.597  14.329  20.155  0.00  0.00     0.005 A 
ATOM     14  C   UNL d   1     -40.902  14.658  20.866  0.00  0.00     0.000 A 
ATOM     15  C   UNL d   1     -41.138  15.443  20.906  0.00  0.00     0.000 A 
ATOM     16  C   UNL d   1     -41.078  15.921  20.243  0.00  0.00     0.000 A 
ATOM     17  C   UNL d   1     -40.772  15.599  19.522  0.00  0.00     0.005 A 
ENDBRANCH   2  12
TORSDOF 4
ENDMDL
MODEL 5
REMARK VINA RESULT:      -4.7      8.603      9.265
REMARK  4 active torsions:
REMARK  status: ('A' for Active; 'I' for Inactive)
REMARK    1  A    between atoms: N_3  and  C_1 
REMARK       I    between atoms: C_7  and  N_3 
REMARK    2  A    between atoms: S_10  and  C_5 
REMARK    3  A    between atoms: C_9  and  C_7 
REMARK    4  A    between atoms: C_13  and  S_10 
ROOT
ATOM      1  N   UNL d   1     -40.344  15.331  19.255  0.00  0.00    -0.181 NA
ATOM      2  C   UNL d   1     -40.479  14.843  18.599  0.00  0.00     0.281 C 
ATOM      3  O   UNL d   1     -40.530  14.014  18.688  0.00  0.00    -0.265 OA
ENDROOT
BRANCH   1   4
ATOM      4  C   UNL d   1     -40.263  14.996  19.978  0.00  0.00     0.219 A 
ATOM      5  S   UNL d   1     -39.608  14.872  20.467  0.00  0.00    -0.019 SA
ATOM      6  C   UNL d   1     -39.870  14.496  21.155  0.00  0.00     0.165 A 
ATOM      7  N   UNL d   1     -40.659  14.388  21.097  0.00  0.00    -0.133 NA
ATOM      8  N   UNL d   1     -40.889  14.687  20.396  0.00  0.00    -0.120 NA
BRANCH   6   9
ATOM      9  S   UNL d   1     -39.406  14.256  21.817  0.00  0.00    -0.059 SA
BRANCH   9  10
ATOM     10  C   UNL d   1     -39.071  13.538  21.839  0.00  0.00     0.037 C 
ATOM     11  C   UNL d   1     -38.650  13.297  22.496  0.00  0.00     0.008 C 
ENDBRANCH   9  10
ENDBRANCH   6   9
ENDBRANCH   1   4
BRANCH   2  12
ATOM     12  C   UNL d   1     -40.563  15.212  17.834  0.00  0.00     0.058 A 
ATOM     13  C   UNL d   1     -41.268  15.560  17.590  0.00  0.00     0.005 A 
ATOM     14  C   UNL d   1     -41.314  15.914  16.829  0.00  0.00     0.000 A 
ATOM     15  C   UNL d   1     -40.669  15.920  16.322  0.00  0.00     0.000 A 
ATOM     16  C   UNL d   1     -39.963  15.576  16.556  0.00  0.00     0.000 A 
ATOM     17  C   UNL d   1     -39.907  15.217  17.321  0.00  0.00     0.005 A 
ENDBRANCH   2  12
TORSDOF 4
ENDMDL
