MODEL 1
REMARK VINA RESULT:       5.4      0.000      0.000
REMARK  3 active torsions:
REMARK  status: ('A' for Active; 'I' for Inactive)
REMARK    1  A    between atoms: C_24  and  N_10 
REMARK    2  A    between atoms: C_12  and  N_15 
REMARK       I    between atoms: N_15  and  C_16 
REMARK    3  A    between atoms: C_16  and  C_24 
ROOT
ATOM      1  N   UNL d   1     -42.181-121.572 -52.023  0.00  0.00    -0.188 NA
ATOM      2  C   UNL d   1     -42.180-122.006 -51.319  0.00  0.00     0.298 C 
ATOM      3  O   UNL d   1     -42.000-122.817 -51.342  0.00  0.00    -0.263 OA
ENDROOT
BRANCH   1   4
ATOM      4  C   UNL d   1     -42.004-121.945 -52.742  0.00  0.00     0.166 A 
ATOM      5  N   UNL d   1     -42.178-121.569 -53.458  0.00  0.00    -0.226 NA
ATOM      6  C   UNL d   1     -42.004-121.937 -54.174  0.00  0.00     0.090 A 
ATOM      7  C   UNL d   1     -42.175-121.565 -54.892  0.00  0.00     0.041 A 
ATOM      8  C   UNL d   1     -41.653-122.687 -54.181  0.00  0.00     0.081 A 
ATOM      9  C   UNL d   1     -41.998-121.939 -55.611  0.00  0.00     0.105 A 
ATOM     10  C   UNL d   1     -42.525-120.816 -54.890  0.00  0.00     0.004 A 
ATOM     11  C   UNL d   1     -42.173-121.560 -56.323  0.00  0.00     0.025 A 
ATOM     12  O   UNL d   1     -41.650-122.683 -55.612  0.00  0.00    -0.273 OA
ATOM     13  C   UNL d   1     -42.522-120.814 -56.324  0.00  0.00     0.002 A 
ATOM     14  C   UNL d   1     -42.700-120.439 -55.601  0.00  0.00     0.000 A 
ATOM     15  C   UNL d   1     -41.476-123.060 -54.900  0.00  0.00     0.301 A 
ATOM     16  O   UNL d   1     -41.124-123.813 -54.901  0.00  0.00    -0.259 OA
ATOM     17  C   UNL d   1     -41.479-123.064 -53.466  0.00  0.00     0.010 A 
ATOM     18  C   UNL d   1     -41.652-122.697 -52.752  0.00  0.00     0.039 A 
ATOM     19  C   UNL d   1     -41.127-123.817 -53.476  0.00  0.00     0.000 C 
ENDBRANCH   1   4
BRANCH   2  20
ATOM     20  C   UNL d   1     -42.355-121.640 -50.596  0.00  0.00     0.143 C 
BRANCH  20  21
ATOM     21  N   UNL d   1     -42.275-122.058 -49.891  0.00  0.00    -0.306 N 
ATOM     22  C   UNL d   1     -41.525-122.122 -49.670  0.00  0.00     0.059 A 
ATOM     23  C   UNL d   1     -41.151-122.459 -49.053  0.00  0.00     0.080 A 
ATOM     24  C   UNL d   1     -41.378-122.857 -48.427  0.00  0.00     0.061 A 
ATOM     25  C   UNL d   1     -42.226-122.435 -49.259  0.00  0.00     0.024 A 
ATOM     26  N   UNL d   1     -42.067-123.101 -48.129  0.00  0.00    -0.280 N 
ATOM     27  C   UNL d   1     -42.828-123.035 -48.356  0.00  0.00     0.049 A 
ATOM     28  C   UNL d   1     -41.889-123.489 -47.459  0.00  0.00     0.264 A 
ATOM     29  C   UNL d   1     -43.192-122.706 -48.957  0.00  0.00     0.079 A 
ATOM     30  C   UNL d   1     -43.396-123.359 -47.906  0.00  0.00     0.014 A 
ATOM     31  C   UNL d   1     -42.968-122.301 -49.596  0.00  0.00     0.059 A 
ATOM     32  C   UNL d   1     -43.219-123.742 -47.243  0.00  0.00     0.006 A 
ATOM     33  C   UNL d   1     -42.458-123.809 -47.016  0.00  0.00     0.061 A 
ATOM     34  O   UNL d   1     -41.124-123.551 -47.237  0.00  0.00    -0.267 OA
ENDBRANCH  20  21
ENDBRANCH   2  20
TORSDOF 3
ENDMDL
