MODEL 1
REMARK VINA RESULT:      17.0      0.000      0.000
REMARK  2 active torsions:
REMARK  status: ('A' for Active; 'I' for Inactive)
REMARK       I    between atoms: N_2  and  C_1 
REMARK       I    between atoms: N_3  and  C_1 
REMARK    1  A    between atoms: C_12  and  N_3 
REMARK    2  A    between atoms: C_5  and  N_4 
ROOT
ATOM      1  C   UNL d   1      45.873 -17.459  44.337  0.00  0.00     0.339 C 
ATOM      2  N   UNL d   1      45.813 -16.637  44.343  0.00  0.00    -0.254 N 
ATOM      3  N   UNL d   1      46.282 -17.843  43.730  0.00  0.00    -0.257 N 
ATOM      4  N   UNL d   1      45.691 -14.978  44.355  0.00  0.00    -0.286 N 
ATOM      5  O   UNL d   1      45.518 -17.895  44.947  0.00  0.00    -0.245 OA
ATOM      6  C   UNL d   1      45.404 -16.249  44.949  0.00  0.00     0.104 A 
ATOM      7  C   UNL d   1      46.165 -16.184  43.736  0.00  0.00     0.104 A 
ATOM      8  C   UNL d   1      45.344 -15.426  44.955  0.00  0.00     0.101 A 
ATOM      9  C   UNL d   1      46.104 -15.357  43.742  0.00  0.00     0.101 A 
ATOM     10  C   UNL d   1      46.631 -17.407  43.131  0.00  0.00     0.104 C 
ENDROOT
BRANCH   3  11
ATOM     11  C   UNL d   1      46.341 -18.674  43.727  0.00  0.00     0.068 A 
ATOM     12  C   UNL d   1      46.537 -19.079  44.425  0.00  0.00     0.018 A 
ATOM     13  C   UNL d   1      46.592 -19.902  44.411  0.00  0.00     0.002 A 
ATOM     14  C   UNL d   1      46.455 -20.320  43.710  0.00  0.00     0.000 A 
ATOM     15  C   UNL d   1      46.261 -19.902  43.021  0.00  0.00     0.002 A 
ATOM     16  C   UNL d   1      46.204 -19.079  43.032  0.00  0.00     0.018 A 
ENDBRANCH   3  11
BRANCH   4  17
ATOM     17  C   UNL d   1      45.631 -14.155  44.362  0.00  0.00     0.148 A 
ATOM     18  N   UNL d   1      45.163 -13.784  43.803  0.00  0.00    -0.227 NA
ATOM     19  C   UNL d   1      45.103 -12.966  43.809  0.00  0.00     0.101 A 
ATOM     20  C   UNL d   1      45.503 -12.527  44.363  0.00  0.00     0.021 A 
ATOM     21  C   UNL d   1      45.972 -12.910  44.922  0.00  0.00     0.005 A 
ATOM     22  C   UNL d   1      46.031 -13.721  44.916  0.00  0.00     0.037 A 
ENDBRANCH   4  17
TORSDOF 2
ENDMDL
