MODEL 1
REMARK VINA RESULT:       5.3      0.000      0.000
REMARK  4 active torsions:
REMARK  status: ('A' for Active; 'I' for Inactive)
REMARK    1  A    between atoms: C_13  and  N_1 
REMARK    2  A    between atoms: N_6  and  C_15 
REMARK    3  A    between atoms: C_14  and  C_13 
REMARK    4  A    between atoms: C_15  and  C_14 
ROOT
ATOM      1  C   UNL d   1      13.965  11.779  -1.874  0.00  0.00     0.087 C 
ENDROOT
BRANCH   1   2
ATOM      2  N   UNL d   1      14.348  12.183  -1.263  0.00  0.00    -0.248 N 
ATOM      3  C   UNL d   1      14.136  12.166  -0.486  0.00  0.00     0.208 A 
ATOM      4  N   UNL d   1      14.652  12.633  -0.082  0.00  0.00    -0.212 NA
ATOM      5  S   UNL d   1      13.583  11.822  -0.083  0.00  0.00    -0.038 SA
ATOM      6  C   UNL d   1      15.178  12.934  -0.604  0.00  0.00     0.162 A 
ATOM      7  C   UNL d   1      14.985  12.652  -1.338  0.00  0.00     0.286 A 
ATOM      8  O   UNL d   1      15.423  12.905  -1.764  0.00  0.00    -0.265 OA
ENDBRANCH   1   2
BRANCH   1   9
ATOM      9  C   UNL d   1      13.765  12.176  -2.571  0.00  0.00     0.038 C 
BRANCH   9  10
ATOM     10  C   UNL d   1      13.283  11.808  -3.133  0.00  0.00     0.083 C 
BRANCH  10  11
ATOM     11  N   UNL d   1      13.242  12.108  -3.899  0.00  0.00    -0.285 N 
ATOM     12  C   UNL d   1      13.665  11.835  -4.548  0.00  0.00     0.183 A 
ATOM     13  N   UNL d   1      13.451  12.297  -5.203  0.00  0.00    -0.222 NA
ATOM     14  C   UNL d   1      12.900  12.851  -4.959  0.00  0.00     0.120 A 
ATOM     15  C   UNL d   1      12.771  12.734  -4.152  0.00  0.00     0.102 A 
ENDBRANCH  10  11
ENDBRANCH   9  10
ENDBRANCH   1   9
TORSDOF 4
ENDMDL
MODEL 2
REMARK VINA RESULT:       8.0      9.599     10.318
REMARK  4 active torsions:
REMARK  status: ('A' for Active; 'I' for Inactive)
REMARK    1  A    between atoms: C_13  and  N_1 
REMARK    2  A    between atoms: N_6  and  C_15 
REMARK    3  A    between atoms: C_14  and  C_13 
REMARK    4  A    between atoms: C_15  and  C_14 
ROOT
ATOM      1  C   UNL d   1      24.550  12.378  -1.483  0.00  0.00     0.087 C 
ENDROOT
BRANCH   1   2
ATOM      2  N   UNL d   1      23.955  12.741  -1.039  0.00  0.00    -0.248 N 
ATOM      3  C   UNL d   1      24.024  13.443  -0.649  0.00  0.00     0.208 A 
ATOM      4  N   UNL d   1      23.320  13.592  -0.290  0.00  0.00    -0.212 NA
ATOM      5  S   UNL d   1      24.583  13.959  -0.558  0.00  0.00    -0.038 SA
ATOM      6  C   UNL d   1      22.821  12.989  -0.456  0.00  0.00     0.162 A 
ATOM      7  C   UNL d   1      23.221  12.462  -0.922  0.00  0.00     0.286 A 
ATOM      8  O   UNL d   1      22.803  11.967  -1.055  0.00  0.00    -0.265 OA
ENDBRANCH   1   2
BRANCH   1   9
ATOM      9  C   UNL d   1      24.432  12.225  -2.286  0.00  0.00     0.038 C 
BRANCH   9  10
ATOM     10  C   UNL d   1      24.714  12.754  -2.855  0.00  0.00     0.083 C 
BRANCH  10  11
ATOM     11  N   UNL d   1      24.708  12.545  -3.651  0.00  0.00    -0.285 N 
ATOM     12  C   UNL d   1      24.682  11.779  -3.948  0.00  0.00     0.183 A 
ATOM     13  N   UNL d   1      24.684  11.829  -4.777  0.00  0.00    -0.222 NA
ATOM     14  C   UNL d   1      24.711  12.620  -4.988  0.00  0.00     0.120 A 
ATOM     15  C   UNL d   1      24.726  13.062  -4.291  0.00  0.00     0.102 A 
ENDBRANCH  10  11
ENDBRANCH   9  10
ENDBRANCH   1   9
TORSDOF 4
ENDMDL
