MODEL 1
REMARK VINA RESULT:       4.8      0.000      0.000
REMARK  4 active torsions:
REMARK  status: ('A' for Active; 'I' for Inactive)
REMARK    1  A    between atoms: C_16  and  N_3 
REMARK    2  A    between atoms: S_12  and  C_6 
REMARK    3  A    between atoms: C_10  and  C_14 
REMARK       I    between atoms: N_11  and  C_10 
REMARK    4  A    between atoms: C_14  and  S_12 
ROOT
ATOM      1  C   UNL d   1     -41.735-121.288 -53.719  0.00  0.00     0.155 A 
ATOM      2  C   UNL d   1     -41.706-122.051 -53.391  0.00  0.00     0.107 A 
ATOM      3  N   UNL d   1     -41.350-120.731 -52.471  0.00  0.00    -0.252 N 
ATOM      4  C   UNL d   1     -41.559-120.640 -53.261  0.00  0.00     0.285 A 
ATOM      5  N   UNL d   1     -41.497-122.142 -52.600  0.00  0.00    -0.220 NA
ATOM      6  C   UNL d   1     -41.319-121.483 -52.140  0.00  0.00     0.182 A 
ATOM      7  N   UNL d   1     -41.957-121.371 -54.508  0.00  0.00    -0.239 NA
ATOM      8  C   UNL d   1     -41.908-122.585 -53.975  0.00  0.00     0.037 A 
ATOM      9  C   UNL d   1     -42.064-122.170 -54.666  0.00  0.00     0.083 A 
ATOM     10  O   UNL d   1     -41.590-119.882 -53.597  0.00  0.00    -0.265 OA
ATOM     11  C   UNL d   1     -41.970-123.404 -53.964  0.00  0.00     0.003 A 
ATOM     12  C   UNL d   1     -42.281-122.574 -55.346  0.00  0.00     0.019 A 
ATOM     13  C   UNL d   1     -42.187-123.807 -54.643  0.00  0.00     0.000 A 
ATOM     14  C   UNL d   1     -42.342-123.383 -55.335  0.00  0.00     0.002 A 
ENDROOT
BRANCH   6  15
ATOM     15  S   UNL d   1     -41.123-123.817 -50.740  0.00  0.00    -0.044 SA
BRANCH  15  16
ATOM     16  C   UNL d   1     -41.187-123.814 -49.812  0.00  0.00     0.099 C 
BRANCH  16  17
ATOM     17  C   UNL d   1     -42.013-123.675 -49.409  0.00  0.00     0.272 C 
ATOM     18  N   UNL d   1     -42.062-123.426 -48.522  0.00  0.00    -0.267 N 
ATOM     19  C   UNL d   1     -42.867-123.290 -48.128  0.00  0.00     0.110 A 
ATOM     20  C   UNL d   1     -41.284-123.318 -48.047  0.00  0.00     0.110 A 
ATOM     21  C   UNL d   1     -42.921-123.038 -47.234  0.00  0.00     0.142 A 
ATOM     22  O   UNL d   1     -42.149-122.928 -46.749  0.00  0.00    -0.300 OA
ATOM     23  C   UNL d   1     -41.322-123.067 -47.154  0.00  0.00     0.142 A 
ATOM     24  O   UNL d   1     -42.794-123.784 -49.890  0.00  0.00    -0.266 OA
ENDBRANCH  16  17
ENDBRANCH  15  16
ENDBRANCH   6  15
BRANCH   3  25
ATOM     25  C   UNL d   1     -41.149-119.986 -51.952  0.00  0.00     0.085 C 
ATOM     26  C   UNL d   1     -41.170-120.048 -51.031  0.00  0.00     0.021 C 
ENDBRANCH   3  25
TORSDOF 4
ENDMDL
