MODEL 1
REMARK VINA RESULT:      -7.0      0.000      0.000
REMARK  7 active torsions:
REMARK  status: ('A' for Active; 'I' for Inactive)
REMARK       I    between atoms: N_2  and  C_13 
REMARK    1  A    between atoms: C_11  and  C_6 
REMARK    2  A    between atoms: C_14  and  C_7 
REMARK    3  A    between atoms: S_18  and  C_9 
REMARK    4  A    between atoms: C_13  and  C_19 
REMARK    5  A    between atoms: O_26  and  C_15 
REMARK    6  A    between atoms: C_19  and  S_18 
REMARK    7  A    between atoms: O_29  and  C_22 
ROOT
ATOM      1  N   UNL d   1      51.811  32.545  53.124  0.00  0.00    -0.194 N 
ATOM      2  N   UNL d   1      51.893  31.730  53.191  0.00  0.00    -0.162 NA
ATOM      3  C   UNL d   1      52.546  32.884  53.288  0.00  0.00     0.090 A 
ATOM      4  C   UNL d   1      52.682  31.572  53.397  0.00  0.00     0.109 A 
ATOM      5  C   UNL d   1      53.064  32.286  53.451  0.00  0.00     0.041 A 
ATOM      6  C   UNL d   1      51.130  32.935  52.932  0.00  0.00     0.287 C 
ATOM      7  O   UNL d   1      50.437  32.517  52.783  0.00  0.00    -0.265 OA
ENDROOT
BRANCH   6   8
ATOM      8  C   UNL d   1      51.121  33.760  52.883  0.00  0.00     0.100 C 
BRANCH   8   9
ATOM      9  S   UNL d   1      50.659  34.132  52.305  0.00  0.00    -0.054 SA
BRANCH   9  10
ATOM     10  C   UNL d   1      49.997  34.584  52.524  0.00  0.00     0.163 A 
ATOM     11  S   UNL d   1      49.351  34.790  52.021  0.00  0.00    -0.021 SA
ATOM     12  C   UNL d   1      48.813  35.245  52.468  0.00  0.00     0.200 A 
ATOM     13  N   UNL d   1      48.154  35.485  52.044  0.00  0.00    -0.182 NA
ATOM     14  N   UNL d   1      49.114  35.328  53.249  0.00  0.00    -0.204 N 
ATOM     15  C   UNL d   1      47.634  35.919  52.461  0.00  0.00     0.281 A 
ATOM     16  O   UNL d   1      47.194  35.939  51.750  0.00  0.00    -0.265 OA
ATOM     17  C   UNL d   1      47.588  36.210  53.268  0.00  0.00     0.064 A 
ATOM     18  C   UNL d   1      48.161  36.089  53.906  0.00  0.00     0.026 A 
ATOM     19  C   UNL d   1      48.880  35.659  53.853  0.00  0.00     0.103 A 
ATOM     20  N   UNL d   1      49.848  34.918  53.283  0.00  0.00    -0.150 NA
ENDBRANCH   9  10
ENDBRANCH   8   9
ENDBRANCH   6   8
BRANCH   3  21
ATOM     21  C   UNL d   1      52.695  33.687  53.280  0.00  0.00     0.042 A 
ATOM     22  C   UNL d   1      52.846  34.064  53.997  0.00  0.00     0.118 A 
ATOM     23  C   UNL d   1      53.000  34.881  54.004  0.00  0.00     0.116 A 
ATOM     24  C   UNL d   1      53.000  35.305  53.296  0.00  0.00     0.026 A 
ATOM     25  C   UNL d   1      52.849  34.924  52.589  0.00  0.00     0.002 A 
ATOM     26  C   UNL d   1      52.696  34.108  52.585  0.00  0.00     0.004 A 
BRANCH  22  27
ATOM     27  O   UNL d   1      52.847  33.643  54.704  0.00  0.00    -0.326 OA
ATOM     28  C   UNL d   1      53.418  33.821  55.267  0.00  0.00     0.181 C 
ENDBRANCH  22  27
BRANCH  23  29
ATOM     29  O   UNL d   1      53.151  35.257  54.719  0.00  0.00    -0.326 OA
ATOM     30  C   UNL d   1      53.102  36.078  54.773  0.00  0.00     0.181 C 
ENDBRANCH  23  29
ENDBRANCH   3  21
BRANCH   4  31
ATOM     31  C   UNL d   1      52.999  30.830  53.518  0.00  0.00     0.049 A 
ATOM     32  S   UNL d   1      53.438  30.397  52.974  0.00  0.00    -0.085 SA
ATOM     33  C   UNL d   1      53.647  29.677  53.332  0.00  0.00     0.035 A 
ATOM     34  C   UNL d   1      53.333  29.679  54.093  0.00  0.00     0.007 A 
ATOM     35  C   UNL d   1      52.937  30.396  54.194  0.00  0.00     0.009 A 
ENDBRANCH   4  31
TORSDOF 7
ENDMDL
MODEL 2
REMARK VINA RESULT:      -5.1      1.711      5.307
REMARK  7 active torsions:
REMARK  status: ('A' for Active; 'I' for Inactive)
REMARK       I    between atoms: N_2  and  C_13 
REMARK    1  A    between atoms: C_11  and  C_6 
REMARK    2  A    between atoms: C_14  and  C_7 
REMARK    3  A    between atoms: S_18  and  C_9 
REMARK    4  A    between atoms: C_13  and  C_19 
REMARK    5  A    between atoms: O_26  and  C_15 
REMARK    6  A    between atoms: C_19  and  S_18 
REMARK    7  A    between atoms: O_29  and  C_22 
ROOT
ATOM      1  N   UNL d   1      51.785  32.856  53.008  0.00  0.00    -0.194 N 
ATOM      2  N   UNL d   1      51.019  33.100  52.839  0.00  0.00    -0.162 NA
ATOM      3  C   UNL d   1      52.236  33.531  53.157  0.00  0.00     0.090 A 
ATOM      4  C   UNL d   1      51.004  33.929  52.884  0.00  0.00     0.109 A 
ATOM      5  C   UNL d   1      51.753  34.174  53.078  0.00  0.00     0.041 A 
ATOM      6  C   UNL d   1      52.041  32.090  53.025  0.00  0.00     0.287 C 
ATOM      7  O   UNL d   1      51.522  31.472  52.863  0.00  0.00    -0.265 OA
ENDROOT
BRANCH   6   8
ATOM      8  C   UNL d   1      52.829  31.917  53.204  0.00  0.00     0.100 C 
BRANCH   8   9
ATOM      9  S   UNL d   1      53.136  31.168  53.028  0.00  0.00    -0.054 SA
BRANCH   9  10
ATOM     10  C   UNL d   1      53.204  30.591  53.623  0.00  0.00     0.163 A 
ATOM     11  S   UNL d   1      53.271  29.759  53.499  0.00  0.00    -0.021 SA
ATOM     12  C   UNL d   1      53.326  29.393  54.247  0.00  0.00     0.200 A 
ATOM     13  N   UNL d   1      53.395  28.577  54.209  0.00  0.00    -0.182 NA
ATOM     14  N   UNL d   1      53.294  29.986  54.841  0.00  0.00    -0.204 N 
ATOM     15  C   UNL d   1      53.448  28.217  54.916  0.00  0.00     0.281 A 
ATOM     16  O   UNL d   1      53.494  27.511  54.470  0.00  0.00    -0.265 OA
ATOM     17  C   UNL d   1      53.452  28.476  55.735  0.00  0.00     0.064 A 
ATOM     18  C   UNL d   1      53.392  29.287  56.033  0.00  0.00     0.026 A 
ATOM     19  C   UNL d   1      53.318  29.982  55.568  0.00  0.00     0.103 A 
ATOM     20  N   UNL d   1      53.218  30.730  54.453  0.00  0.00    -0.150 NA
ENDBRANCH   9  10
ENDBRANCH   8   9
ENDBRANCH   6   8
BRANCH   3  21
ATOM     21  C   UNL d   1      53.030  33.523  53.347  0.00  0.00     0.042 A 
ATOM     22  C   UNL d   1      53.254  33.772  54.100  0.00  0.00     0.118 A 
ATOM     23  C   UNL d   1      54.059  33.769  54.308  0.00  0.00     0.116 A 
ATOM     24  C   UNL d   1      54.624  33.517  53.762  0.00  0.00     0.026 A 
ATOM     25  C   UNL d   1      54.394  33.272  53.017  0.00  0.00     0.002 A 
ATOM     26  C   UNL d   1      53.589  33.276  52.812  0.00  0.00     0.004 A 
BRANCH  22  27
ATOM     27  O   UNL d   1      52.693  34.023  54.648  0.00  0.00    -0.326 OA
ATOM     28  C   UNL d   1      52.887  34.636  55.157  0.00  0.00     0.181 C 
ENDBRANCH  22  27
BRANCH  23  29
ATOM     29  O   UNL d   1      54.282  34.017  55.059  0.00  0.00    -0.326 OA
ATOM     30  C   UNL d   1      55.017  33.801  55.365  0.00  0.00     0.181 C 
ENDBRANCH  23  29
ENDBRANCH   3  21
BRANCH   4  31
ATOM     31  C   UNL d   1      50.348  34.398  52.754  0.00  0.00     0.049 A 
ATOM     32  S   UNL d   1      49.958  34.495  52.037  0.00  0.00    -0.085 SA
ATOM     33  C   UNL d   1      49.325  35.019  52.161  0.00  0.00     0.035 A 
ATOM     34  C   UNL d   1      49.336  35.236  52.955  0.00  0.00     0.007 A 
ATOM     35  C   UNL d   1      49.972  34.846  53.308  0.00  0.00     0.009 A 
ENDBRANCH   4  31
TORSDOF 7
ENDMDL
