MODEL 1
REMARK VINA RESULT:     112.3      0.000      0.000
REMARK  6 active torsions:
REMARK  status: ('A' for Active; 'I' for Inactive)
REMARK    1  A    between atoms: C_7  and  C_2 
REMARK    2  A    between atoms: C_16  and  N_3 
REMARK    3  A    between atoms: O_17  and  C_9 
REMARK    4  A    between atoms: O_19  and  C_10 
REMARK    5  A    between atoms: O_18  and  C_11 
REMARK    6  A    between atoms: C_25  and  C_16 
ROOT
ATOM      1  N   UNL d   1      59.654  47.017  50.821  0.00  0.00    -0.206 NA
ATOM      2  C   UNL d   1      59.601  47.843  50.775  0.00  0.00     0.151 A 
ATOM      3  N   UNL d   1      60.309  48.125  50.445  0.00  0.00    -0.273 N 
ATOM      4  C   UNL d   1      60.787  47.471  50.292  0.00  0.00     0.185 A 
ATOM      5  C   UNL d   1      60.387  46.789  50.523  0.00  0.00     0.199 A 
ATOM      6  N   UNL d   1      61.551  47.405  49.967  0.00  0.00    -0.224 NA
ATOM      7  N   UNL d   1      60.738  46.050  50.432  0.00  0.00    -0.223 NA
ATOM      8  C   UNL d   1      61.899  46.663  49.878  0.00  0.00     0.101 A 
ATOM      9  C   UNL d   1      61.490  45.985  50.112  0.00  0.00     0.101 A 
ATOM     10  C   UNL d   1      62.660  46.606  49.553  0.00  0.00     0.021 A 
ATOM     11  C   UNL d   1      61.839  45.250  50.022  0.00  0.00     0.021 A 
ATOM     12  C   UNL d   1      62.594  45.185  49.700  0.00  0.00     0.002 A 
ATOM     13  C   UNL d   1      63.004  45.863  49.466  0.00  0.00     0.002 A 
ENDROOT
BRANCH   2  14
ATOM     14  C   UNL d   1      58.964  48.302  51.013  0.00  0.00     0.039 A 
ATOM     15  C   UNL d   1      59.025  48.769  51.717  0.00  0.00     0.029 A 
ATOM     16  C   UNL d   1      58.388  49.240  51.973  0.00  0.00     0.118 A 
ATOM     17  C   UNL d   1      57.686  49.242  51.520  0.00  0.00     0.138 A 
ATOM     18  C   UNL d   1      57.624  48.774  50.816  0.00  0.00     0.118 A 
ATOM     19  C   UNL d   1      58.264  48.300  50.557  0.00  0.00     0.029 A 
BRANCH  16  20
ATOM     20  O   UNL d   1      58.449  49.697  52.661  0.00  0.00    -0.326 OA
ATOM     21  C   UNL d   1      58.194  49.282  53.588  0.00  0.00     0.181 C 
ENDBRANCH  16  20
BRANCH  17  22
ATOM     22  O   UNL d   1      57.047  49.697  51.753  0.00  0.00    -0.324 OA
ATOM     23  C   UNL d   1      56.035  49.313  51.746  0.00  0.00     0.182 C 
ENDBRANCH  17  22
BRANCH  18  24
ATOM     24  O   UNL d   1      56.925  48.772  50.360  0.00  0.00    -0.326 OA
ATOM     25  C   UNL d   1      56.543  49.703  49.893  0.00  0.00     0.181 C 
ENDBRANCH  18  24
ENDBRANCH   2  14
BRANCH   3  26
ATOM     26  C   UNL d   1      60.495  48.909  50.299  0.00  0.00     0.083 C 
BRANCH  26  27
ATOM     27  C   UNL d   1      61.275  49.162  50.337  0.00  0.00     0.019 C 
ATOM     28  C   UNL d   1      61.504  49.708  50.908  0.00  0.00     0.002 C 
ENDBRANCH  26  27
ENDBRANCH   3  26
TORSDOF 6
ENDMDL
MODEL 2
REMARK VINA RESULT:     114.3      2.929      5.379
REMARK  6 active torsions:
REMARK  status: ('A' for Active; 'I' for Inactive)
REMARK    1  A    between atoms: C_7  and  C_2 
REMARK    2  A    between atoms: C_16  and  N_3 
REMARK    3  A    between atoms: O_17  and  C_9 
REMARK    4  A    between atoms: O_19  and  C_10 
REMARK    5  A    between atoms: O_18  and  C_11 
REMARK    6  A    between atoms: C_25  and  C_16 
ROOT
ATOM      1  N   UNL d   1      60.642  45.973  51.284  0.00  0.00    -0.206 NA
ATOM      2  C   UNL d   1      61.268  45.606  50.883  0.00  0.00     0.151 A 
ATOM      3  N   UNL d   1      61.677  46.193  50.460  0.00  0.00    -0.273 N 
ATOM      4  C   UNL d   1      61.299  46.911  50.606  0.00  0.00     0.185 A 
ATOM      5  C   UNL d   1      60.662  46.778  51.112  0.00  0.00     0.199 A 
ATOM      6  N   UNL d   1      61.453  47.685  50.339  0.00  0.00    -0.224 NA
ATOM      7  N   UNL d   1      60.184  47.404  51.351  0.00  0.00    -0.223 NA
ATOM      8  C   UNL d   1      60.971  48.309  50.581  0.00  0.00     0.101 A 
ATOM      9  C   UNL d   1      60.335  48.165  51.088  0.00  0.00     0.101 A 
ATOM     10  C   UNL d   1      61.131  49.076  50.311  0.00  0.00     0.021 A 
ATOM     11  C   UNL d   1      59.859  48.787  51.326  0.00  0.00     0.021 A 
ATOM     12  C   UNL d   1      60.012  49.552  51.062  0.00  0.00     0.002 A 
ATOM     13  C   UNL d   1      60.648  49.695  50.555  0.00  0.00     0.002 A 
ENDROOT
BRANCH   2  14
ATOM     14  C   UNL d   1      61.452  44.807  50.900  0.00  0.00     0.039 A 
ATOM     15  C   UNL d   1      61.667  44.413  50.181  0.00  0.00     0.029 A 
ATOM     16  C   UNL d   1      61.856  43.603  50.180  0.00  0.00     0.118 A 
ATOM     17  C   UNL d   1      61.831  43.185  50.903  0.00  0.00     0.138 A 
ATOM     18  C   UNL d   1      61.616  43.579  51.622  0.00  0.00     0.118 A 
ATOM     19  C   UNL d   1      61.425  44.395  51.625  0.00  0.00     0.029 A 
BRANCH  16  20
ATOM     20  O   UNL d   1      62.066  43.217  49.477  0.00  0.00    -0.326 OA
ATOM     21  C   UNL d   1      61.321  42.865  48.832  0.00  0.00     0.181 C 
ENDBRANCH  16  20
BRANCH  17  22
ATOM     22  O   UNL d   1      62.013  42.388  50.926  0.00  0.00    -0.324 OA
ATOM     23  C   UNL d   1      62.885  42.012  51.446  0.00  0.00     0.182 C 
ENDBRANCH  17  22
BRANCH  18  24
ATOM     24  O   UNL d   1      61.589  43.167  52.347  0.00  0.00    -0.326 OA
ATOM     25  C   UNL d   1      61.395  43.700  53.301  0.00  0.00     0.181 C 
ENDBRANCH  18  24
ENDBRANCH   2  14
BRANCH   3  26
ATOM     26  C   UNL d   1      62.335  46.076  49.987  0.00  0.00     0.083 C 
BRANCH  26  27
ATOM     27  C   UNL d   1      62.427  46.509  49.294  0.00  0.00     0.019 C 
ATOM     28  C   UNL d   1      63.096  46.402  48.828  0.00  0.00     0.002 C 
ENDBRANCH  26  27
ENDBRANCH   3  26
TORSDOF 6
ENDMDL
