MODEL 1
REMARK VINA RESULT:      53.3      0.000      0.000
REMARK  6 active torsions:
REMARK  status: ('A' for Active; 'I' for Inactive)
REMARK    1  A    between atoms: C_9  and  C_2 
REMARK    2  A    between atoms: N_3  and  C_7 
REMARK       I    between atoms: C_8  and  N_14 
REMARK    3  A    between atoms: C_10  and  C_8 
REMARK    4  A    between atoms: C_13  and  C_10 
REMARK    5  A    between atoms: C_19  and  C_13 
REMARK    6  A    between atoms: N_14  and  C_20 
ROOT
ATOM      1  C   UNL d   1      13.845  13.822  -3.241  0.00  0.00     0.041 A 
ATOM      2  C   UNL d   1      14.145  14.582  -3.289  0.00  0.00     0.005 A 
ATOM      3  C   UNL d   1      13.354  13.506  -3.810  0.00  0.00     0.005 A 
ATOM      4  C   UNL d   1      13.448  14.725  -4.512  0.00  0.00     0.085 A 
ATOM      5  C   UNL d   1      13.925  15.029  -3.956  0.00  0.00     0.019 A 
ATOM      6  C   UNL d   1      13.150  13.964  -4.460  0.00  0.00     0.019 A 
ENDROOT
BRANCH   4   7
ATOM      7  N   UNL d   1      13.258  15.206  -5.155  0.00  0.00    -0.208 NA
ATOM      8  C   UNL d   1      13.809  15.761  -5.431  0.00  0.00     0.279 C 
ATOM      9  O   UNL d   1      14.533  15.815  -5.053  0.00  0.00    -0.265 OA
BRANCH   8  10
ATOM     10  C   UNL d   1      13.623  16.244  -6.074  0.00  0.00     0.062 C 
BRANCH  10  11
ATOM     11  C   UNL d   1      14.104  16.869  -6.289  0.00  0.00     0.005 C 
BRANCH  11  12
ATOM     12  C   UNL d   1      13.833  17.668  -6.256  0.00  0.00     0.002 A 
ATOM     13  C   UNL d   1      14.367  18.278  -6.093  0.00  0.00     0.024 A 
ATOM     14  C   UNL d   1      14.089  19.076  -6.062  0.00  0.00     0.127 A 
ATOM     15  C   UNL d   1      13.285  19.229  -6.196  0.00  0.00     0.024 A 
ATOM     16  C   UNL d   1      12.770  18.606  -6.356  0.00  0.00     0.002 A 
ATOM     17  C   UNL d   1      13.036  17.822  -6.388  0.00  0.00     0.000 A 
BRANCH  14  18
ATOM     18  N   UNL d   1      14.605  19.693  -5.902  0.00  0.00    -0.114 N 
ATOM     19  O   UNL d   1      14.502  20.495  -6.134  0.00  0.00    -0.532 OA
ATOM     20  O   UNL d   1      15.310  19.600  -5.480  0.00  0.00    -0.532 OA
ENDBRANCH  14  18
ENDBRANCH  11  12
ENDBRANCH  10  11
ENDBRANCH   8  10
ENDBRANCH   4   7
BRANCH   1  21
ATOM     21  C   UNL d   1      14.058  13.369  -2.579  0.00  0.00     0.182 A 
ATOM     22  N   UNL d   1      13.966  12.569  -2.373  0.00  0.00    -0.220 NA
ATOM     23  C   UNL d   1      14.299  12.454  -1.634  0.00  0.00     0.106 A 
ATOM     24  C   UNL d   1      14.597  13.179  -1.383  0.00  0.00     0.119 A 
ATOM     25  C   UNL d   1      14.369  11.779  -1.155  0.00  0.00     0.021 A 
ATOM     26  C   UNL d   1      14.966  13.232  -0.652  0.00  0.00     0.026 A 
ATOM     27  O   UNL d   1      14.450  13.719  -1.951  0.00  0.00    -0.288 OA
ATOM     28  C   UNL d   1      15.046  12.585  -0.170  0.00  0.00     0.002 A 
ATOM     29  C   UNL d   1      14.746  11.841  -0.414  0.00  0.00     0.002 A 
ENDBRANCH   1  21
TORSDOF 6
ENDMDL
