MODEL 1
REMARK VINA RESULT:      39.5      0.000      0.000
REMARK  3 active torsions:
REMARK  status: ('A' for Active; 'I' for Inactive)
REMARK    1  A    between atoms: S_3  and  N_1 
REMARK    2  A    between atoms: C_7  and  C_4 
REMARK    3  A    between atoms: C_11  and  C_5 
ROOT
ATOM      1  N   UNL d   1      14.863  13.226  -0.916  0.00  0.00    -0.155 N 
ATOM      2  N   UNL d   1      15.133  13.958  -0.665  0.00  0.00    -0.156 NA
ATOM      3  C   UNL d   1      14.430  13.328  -1.625  0.00  0.00     0.102 A 
ATOM      4  C   UNL d   1      14.868  14.528  -1.220  0.00  0.00     0.104 A 
ATOM      5  C   UNL d   1      14.441  14.130  -1.799  0.00  0.00     0.041 A 
ENDROOT
BRANCH   4   6
ATOM      6  C   UNL d   1      15.010  15.348  -1.191  0.00  0.00     0.019 A 
ATOM      7  C   UNL d   1      14.947  15.804  -1.888  0.00  0.00     0.002 A 
ATOM      8  C   UNL d   1      15.089  16.627  -1.860  0.00  0.00     0.000 A 
ATOM      9  C   UNL d   1      15.293  16.989  -1.143  0.00  0.00     0.000 A 
ATOM     10  C   UNL d   1      15.350  16.522  -0.468  0.00  0.00     0.000 A 
ATOM     11  C   UNL d   1      15.428  17.774  -1.123  0.00  0.00     0.000 C 
ATOM     12  C   UNL d   1      15.214  15.711  -0.474  0.00  0.00     0.002 A 
ENDBRANCH   4   6
BRANCH   1  13
ATOM     13  S   UNL d   1      15.008  12.495  -0.512  0.00  0.00     0.266 S 
ATOM     14  O   UNL d   1      15.122  11.780  -0.092  0.00  0.00    -0.203 OA
ATOM     15  O   UNL d   1      15.653  12.347  -0.995  0.00  0.00    -0.203 OA
ATOM     16  C   UNL d   1      14.327  12.666  -0.014  0.00  0.00     0.165 C 
ENDBRANCH   1  13
BRANCH   3  17
ATOM     17  C   UNL d   1      14.062  12.715  -2.061  0.00  0.00     0.048 A 
ATOM     18  S   UNL d   1      14.373  12.363  -2.750  0.00  0.00    -0.085 SA
ATOM     19  C   UNL d   1      13.818  11.792  -2.980  0.00  0.00     0.035 A 
ATOM     20  C   UNL d   1      13.196  11.781  -2.471  0.00  0.00     0.007 A 
ATOM     21  C   UNL d   1      13.340  12.352  -1.897  0.00  0.00     0.009 A 
ENDBRANCH   3  17
TORSDOF 3
ENDMDL
