MODEL 1
REMARK VINA RESULT:     -10.0      0.000      0.000
REMARK  3 active torsions:
REMARK  status: ('A' for Active; 'I' for Inactive)
REMARK    1  A    between atoms: C_2  and  C_1 
REMARK    2  A    between atoms: C_3  and  C_2 
REMARK    3  A    between atoms: C_8  and  C_2 
ROOT
ATOM      1  C   UNL d   1      53.116  32.495  53.557  0.00  0.00     0.018 C 
ENDROOT
BRANCH   1   2
ATOM      2  C   UNL d   1      53.743  32.850  53.969  0.00  0.00     0.078 A 
ATOM      3  C   UNL d   1      53.627  33.084  54.833  0.00  0.00     0.195 A 
ATOM      4  C   UNL d   1      54.276  33.420  55.162  0.00  0.00     0.019 A 
ATOM      5  O   UNL d   1      53.077  33.015  55.232  0.00  0.00    -0.287 OA
ATOM      6  C   UNL d   1      54.993  33.553  54.778  0.00  0.00     0.043 A 
ATOM      7  C   UNL d   1      55.088  33.335  53.990  0.00  0.00     0.019 A 
ATOM      8  C   UNL d   1      55.774  33.838  54.799  0.00  0.00     0.009 C 
ATOM      9  C   UNL d   1      55.102  33.838  55.550  0.00  0.00     0.009 C 
ATOM     10  C   UNL d   1      54.464  32.984  53.586  0.00  0.00     0.195 A 
ATOM     11  O   UNL d   1      54.564  32.766  52.789  0.00  0.00    -0.287 OA
ENDBRANCH   1   2
BRANCH   1  12
ATOM     12  C   UNL d   1      52.490  32.960  53.273  0.00  0.00     0.078 A 
ATOM     13  C   UNL d   1      52.563  33.371  52.574  0.00  0.00     0.195 A 
ATOM     14  C   UNL d   1      51.947  33.832  52.291  0.00  0.00     0.019 A 
ATOM     15  O   UNL d   1      53.277  33.319  52.143  0.00  0.00    -0.287 OA
ATOM     16  C   UNL d   1      51.246  33.884  52.712  0.00  0.00     0.043 A 
ATOM     17  C   UNL d   1      51.158  33.471  53.426  0.00  0.00     0.019 A 
ATOM     18  C   UNL d   1      50.523  34.277  52.612  0.00  0.00     0.009 C 
ATOM     19  C   UNL d   1      51.055  34.376  52.074  0.00  0.00     0.009 C 
ATOM     20  C   UNL d   1      51.784  33.005  53.710  0.00  0.00     0.195 A 
ATOM     21  O   UNL d   1      51.699  32.768  54.144  0.00  0.00    -0.287 OA
ENDBRANCH   1  12
BRANCH   1  22
ATOM     22  C   UNL d   1      53.111  31.689  53.429  0.00  0.00     0.030 A 
ATOM     23  S   UNL d   1      53.043  31.235  52.740  0.00  0.00    -0.086 SA
ATOM     24  C   UNL d   1      53.074  30.443  52.952  0.00  0.00     0.035 A 
ATOM     25  C   UNL d   1      53.161  30.393  53.761  0.00  0.00     0.007 A 
ATOM     26  C   UNL d   1      53.184  31.161  54.055  0.00  0.00     0.007 A 
ENDBRANCH   1  22
TORSDOF 3
ENDMDL
MODEL 2
REMARK VINA RESULT:      -9.9      0.338      3.238
REMARK  3 active torsions:
REMARK  status: ('A' for Active; 'I' for Inactive)
REMARK    1  A    between atoms: C_2  and  C_1 
REMARK    2  A    between atoms: C_3  and  C_2 
REMARK    3  A    between atoms: C_8  and  C_2 
ROOT
ATOM      1  C   UNL d   1      53.037  32.514  53.526  0.00  0.00     0.018 C 
ENDROOT
BRANCH   1   2
ATOM      2  C   UNL d   1      52.427  32.987  53.218  0.00  0.00     0.078 A 
ATOM      3  C   UNL d   1      52.591  33.502  52.494  0.00  0.00     0.195 A 
ATOM      4  C   UNL d   1      51.955  33.928  52.257  0.00  0.00     0.019 A 
ATOM      5  O   UNL d   1      53.166  33.574  52.133  0.00  0.00    -0.287 OA
ATOM      6  C   UNL d   1      51.213  33.920  52.616  0.00  0.00     0.043 A 
ATOM      7  C   UNL d   1      51.075  33.448  53.275  0.00  0.00     0.019 A 
ATOM      8  C   UNL d   1      50.428  34.194  52.641  0.00  0.00     0.009 C 
ATOM      9  C   UNL d   1      51.144  34.451  51.981  0.00  0.00     0.009 C 
ATOM     10  C   UNL d   1      51.682  32.981  53.576  0.00  0.00     0.195 A 
ATOM     11  O   UNL d   1      51.538  32.505  54.243  0.00  0.00    -0.287 OA
ENDBRANCH   1   2
BRANCH   1  12
ATOM     12  C   UNL d   1      53.642  32.860  53.978  0.00  0.00     0.078 A 
ATOM     13  C   UNL d   1      54.377  32.995  53.654  0.00  0.00     0.195 A 
ATOM     14  C   UNL d   1      54.975  33.335  54.098  0.00  0.00     0.019 A 
ATOM     15  O   UNL d   1      54.516  32.781  52.858  0.00  0.00    -0.287 OA
ATOM     16  C   UNL d   1      54.840  33.545  54.878  0.00  0.00     0.043 A 
ATOM     17  C   UNL d   1      54.096  33.413  55.222  0.00  0.00     0.019 A 
ATOM     18  C   UNL d   1      55.287  33.889  55.485  0.00  0.00     0.009 C 
ATOM     19  C   UNL d   1      55.630  33.782  54.812  0.00  0.00     0.009 C 
ATOM     20  C   UNL d   1      53.492  33.068  54.769  0.00  0.00     0.195 A 
ATOM     21  O   UNL d   1      53.054  33.001  55.005  0.00  0.00    -0.287 OA
ENDBRANCH   1  12
BRANCH   1  22
ATOM     22  C   UNL d   1      53.045  31.711  53.385  0.00  0.00     0.030 A 
ATOM     23  S   UNL d   1      53.060  31.057  53.893  0.00  0.00    -0.086 SA
ATOM     24  C   UNL d   1      53.063  30.377  53.434  0.00  0.00     0.035 A 
ATOM     25  C   UNL d   1      53.050  30.593  52.648  0.00  0.00     0.007 A 
ATOM     26  C   UNL d   1      53.040  31.415  52.619  0.00  0.00     0.007 A 
ENDBRANCH   1  22
TORSDOF 3
ENDMDL
MODEL 3
REMARK VINA RESULT:      -9.6      0.970      2.623
REMARK  3 active torsions:
REMARK  status: ('A' for Active; 'I' for Inactive)
REMARK    1  A    between atoms: C_2  and  C_1 
REMARK    2  A    between atoms: C_3  and  C_2 
REMARK    3  A    between atoms: C_8  and  C_2 
ROOT
ATOM      1  C   UNL d   1      53.463  32.537  53.647  0.00  0.00     0.018 C 
ENDROOT
BRANCH   1   2
ATOM      2  C   UNL d   1      53.365  31.717  53.728  0.00  0.00     0.078 A 
ATOM      3  C   UNL d   1      53.225  31.214  52.990  0.00  0.00     0.195 A 
ATOM      4  C   UNL d   1      53.141  30.433  53.149  0.00  0.00     0.019 A 
ATOM      5  O   UNL d   1      53.183  31.405  52.336  0.00  0.00    -0.287 OA
ATOM      6  C   UNL d   1      53.172  30.091  53.898  0.00  0.00     0.043 A 
ATOM      7  C   UNL d   1      53.300  30.558  54.563  0.00  0.00     0.019 A 
ATOM      8  C   UNL d   1      53.133  29.411  54.376  0.00  0.00     0.009 C 
ATOM      9  C   UNL d   1      53.038  29.460  53.374  0.00  0.00     0.009 C 
ATOM     10  C   UNL d   1      53.397  31.371  54.478  0.00  0.00     0.195 A 
ATOM     11  O   UNL d   1      53.526  31.839  55.153  0.00  0.00    -0.287 OA
ENDBRANCH   1   2
BRANCH   1  12
ATOM     12  C   UNL d   1      52.808  33.018  53.474  0.00  0.00     0.078 A 
ATOM     13  C   UNL d   1      52.605  33.180  52.702  0.00  0.00     0.195 A 
ATOM     14  C   UNL d   1      51.960  33.654  52.528  0.00  0.00     0.019 A 
ATOM     15  O   UNL d   1      53.065  32.855  52.083  0.00  0.00    -0.287 OA
ATOM     16  C   UNL d   1      51.509  33.972  53.132  0.00  0.00     0.043 A 
ATOM     17  C   UNL d   1      51.704  33.816  53.924  0.00  0.00     0.019 A 
ATOM     18  C   UNL d   1      50.840  34.459  53.179  0.00  0.00     0.009 C 
ATOM     19  C   UNL d   1      51.099  34.283  52.484  0.00  0.00     0.009 C 
ATOM     20  C   UNL d   1      52.359  33.335  54.097  0.00  0.00     0.195 A 
ATOM     21  O   UNL d   1      52.450  33.260  54.584  0.00  0.00    -0.287 OA
ENDBRANCH   1  12
BRANCH   1  22
ATOM     22  C   UNL d   1      54.200  32.875  53.737  0.00  0.00     0.030 A 
ATOM     23  S   UNL d   1      54.544  33.306  54.354  0.00  0.00    -0.086 SA
ATOM     24  C   UNL d   1      55.308  33.505  54.132  0.00  0.00     0.035 A 
ATOM     25  C   UNL d   1      55.449  33.207  53.387  0.00  0.00     0.007 A 
ATOM     26  C   UNL d   1      54.766  32.819  53.143  0.00  0.00     0.007 A 
ENDBRANCH   1  22
TORSDOF 3
ENDMDL
MODEL 4
REMARK VINA RESULT:      -9.5      0.808      3.428
REMARK  3 active torsions:
REMARK  status: ('A' for Active; 'I' for Inactive)
REMARK    1  A    between atoms: C_2  and  C_1 
REMARK    2  A    between atoms: C_3  and  C_2 
REMARK    3  A    between atoms: C_8  and  C_2 
ROOT
ATOM      1  C   UNL d   1      53.170  32.491  53.677  0.00  0.00     0.018 C 
ENDROOT
BRANCH   1   2
ATOM      2  C   UNL d   1      53.156  31.662  53.620  0.00  0.00     0.078 A 
ATOM      3  C   UNL d   1      53.199  31.168  54.376  0.00  0.00     0.195 A 
ATOM      4  C   UNL d   1      53.181  30.378  54.240  0.00  0.00     0.019 A 
ATOM      5  O   UNL d   1      53.244  31.371  55.026  0.00  0.00    -0.287 OA
ATOM      6  C   UNL d   1      53.129  30.021  53.500  0.00  0.00     0.043 A 
ATOM      7  C   UNL d   1      53.090  30.480  52.818  0.00  0.00     0.019 A 
ATOM      8  C   UNL d   1      53.091  29.328  53.040  0.00  0.00     0.009 C 
ATOM      9  C   UNL d   1      53.157  29.394  54.044  0.00  0.00     0.009 C 
ATOM     10  C   UNL d   1      53.103  31.301  52.879  0.00  0.00     0.195 A 
ATOM     11  O   UNL d   1      53.064  31.762  52.187  0.00  0.00    -0.287 OA
ENDBRANCH   1   2
BRANCH   1  12
ATOM     12  C   UNL d   1      53.844  32.876  53.969  0.00  0.00     0.078 A 
ATOM     13  C   UNL d   1      53.846  33.198  54.717  0.00  0.00     0.195 A 
ATOM     14  C   UNL d   1      54.511  33.579  55.009  0.00  0.00     0.019 A 
ATOM     15  O   UNL d   1      53.159  33.137  55.189  0.00  0.00    -0.287 OA
ATOM     16  C   UNL d   1      55.185  33.640  54.548  0.00  0.00     0.043 A 
ATOM     17  C   UNL d   1      55.197  33.316  53.784  0.00  0.00     0.019 A 
ATOM     18  C   UNL d   1      55.939  33.970  54.642  0.00  0.00     0.009 C 
ATOM     19  C   UNL d   1      55.452  34.033  55.225  0.00  0.00     0.009 C 
ATOM     20  C   UNL d   1      54.522  32.931  53.491  0.00  0.00     0.195 A 
ATOM     21  O   UNL d   1      54.562  32.746  53.026  0.00  0.00    -0.287 OA
ENDBRANCH   1  12
BRANCH   1  22
ATOM     22  C   UNL d   1      52.522  32.929  53.446  0.00  0.00     0.030 A 
ATOM     23  S   UNL d   1      51.741  32.955  53.719  0.00  0.00    -0.086 SA
ATOM     24  C   UNL d   1      51.331  33.507  53.271  0.00  0.00     0.035 A 
ATOM     25  C   UNL d   1      51.842  33.827  52.722  0.00  0.00     0.007 A 
ATOM     26  C   UNL d   1      52.575  33.470  52.830  0.00  0.00     0.007 A 
ENDBRANCH   1  22
TORSDOF 3
ENDMDL
MODEL 5
REMARK VINA RESULT:      -9.4      0.805      2.731
REMARK  3 active torsions:
REMARK  status: ('A' for Active; 'I' for Inactive)
REMARK    1  A    between atoms: C_2  and  C_1 
REMARK    2  A    between atoms: C_3  and  C_2 
REMARK    3  A    between atoms: C_8  and  C_2 
ROOT
ATOM      1  C   UNL d   1      53.172  32.604  53.713  0.00  0.00     0.018 C 
ENDROOT
BRANCH   1   2
ATOM      2  C   UNL d   1      53.837  32.975  54.043  0.00  0.00     0.078 A 
ATOM      3  C   UNL d   1      54.599  33.025  53.561  0.00  0.00     0.195 A 
ATOM      4  C   UNL d   1      55.196  33.397  53.946  0.00  0.00     0.019 A 
ATOM      5  O   UNL d   1      54.731  32.795  52.931  0.00  0.00    -0.287 OA
ATOM      6  C   UNL d   1      55.151  33.713  54.705  0.00  0.00     0.043 A 
ATOM      7  C   UNL d   1      54.452  33.663  55.136  0.00  0.00     0.019 A 
ATOM      8  C   UNL d   1      55.517  34.114  55.336  0.00  0.00     0.009 C 
ATOM      9  C   UNL d   1      55.926  33.866  54.449  0.00  0.00     0.009 C 
ATOM     10  C   UNL d   1      53.795  33.294  54.805  0.00  0.00     0.195 A 
ATOM     11  O   UNL d   1      53.090  33.245  55.244  0.00  0.00    -0.287 OA
ENDBRANCH   1   2
BRANCH   1  12
ATOM     12  C   UNL d   1      53.146  31.776  53.652  0.00  0.00     0.078 A 
ATOM     13  C   UNL d   1      53.124  31.415  52.922  0.00  0.00     0.195 A 
ATOM     14  C   UNL d   1      53.099  30.599  52.859  0.00  0.00     0.019 A 
ATOM     15  O   UNL d   1      53.127  31.888  52.233  0.00  0.00    -0.287 OA
ATOM     16  C   UNL d   1      53.096  30.134  53.533  0.00  0.00     0.043 A 
ATOM     17  C   UNL d   1      53.118  30.488  54.283  0.00  0.00     0.019 A 
ATOM     18  C   UNL d   1      53.074  29.321  53.692  0.00  0.00     0.009 C 
ATOM     19  C   UNL d   1      53.069  29.537  52.960  0.00  0.00     0.009 C 
ATOM     20  C   UNL d   1      53.144  31.315  54.344  0.00  0.00     0.195 A 
ATOM     21  O   UNL d   1      53.157  31.499  54.811  0.00  0.00    -0.287 OA
ENDBRANCH   1  12
BRANCH   1  22
ATOM     22  C   UNL d   1      52.542  33.049  53.448  0.00  0.00     0.030 A 
ATOM     23  S   UNL d   1      51.753  33.099  53.695  0.00  0.00    -0.086 SA
ATOM     24  C   UNL d   1      51.370  33.646  53.218  0.00  0.00     0.035 A 
ATOM     25  C   UNL d   1      51.906  33.939  52.677  0.00  0.00     0.007 A 
ATOM     26  C   UNL d   1      52.627  33.571  52.819  0.00  0.00     0.007 A 
ENDBRANCH   1  22
TORSDOF 3
ENDMDL
MODEL 6
REMARK VINA RESULT:      -9.4      1.009      3.492
REMARK  3 active torsions:
REMARK  status: ('A' for Active; 'I' for Inactive)
REMARK    1  A    between atoms: C_2  and  C_1 
REMARK    2  A    between atoms: C_3  and  C_2 
REMARK    3  A    between atoms: C_8  and  C_2 
ROOT
ATOM      1  C   UNL d   1      53.517  32.573  53.640  0.00  0.00     0.018 C 
ENDROOT
BRANCH   1   2
ATOM      2  C   UNL d   1      52.864  33.059  53.479  0.00  0.00     0.078 A 
ATOM      3  C   UNL d   1      52.588  33.160  52.625  0.00  0.00     0.195 A 
ATOM      4  C   UNL d   1      51.952  33.644  52.552  0.00  0.00     0.019 A 
ATOM      5  O   UNL d   1      52.839  32.887  52.052  0.00  0.00    -0.287 OA
ATOM      6  C   UNL d   1      51.567  34.026  53.171  0.00  0.00     0.043 A 
ATOM      7  C   UNL d   1      51.827  33.927  53.946  0.00  0.00     0.019 A 
ATOM      8  C   UNL d   1      50.962  34.532  53.434  0.00  0.00     0.009 C 
ATOM      9  C   UNL d   1      51.158  34.253  52.486  0.00  0.00     0.009 C 
ATOM     10  C   UNL d   1      52.475  33.444  54.100  0.00  0.00     0.195 A 
ATOM     11  O   UNL d   1      52.735  33.347  54.884  0.00  0.00    -0.287 OA
ENDBRANCH   1   2
BRANCH   1  12
ATOM     12  C   UNL d   1      53.416  31.752  53.711  0.00  0.00     0.078 A 
ATOM     13  C   UNL d   1      53.410  31.397  54.444  0.00  0.00     0.195 A 
ATOM     14  C   UNL d   1      53.310  30.587  54.517  0.00  0.00     0.019 A 
ATOM     15  O   UNL d   1      53.508  31.869  55.126  0.00  0.00    -0.287 OA
ATOM     16  C   UNL d   1      53.214  30.122  53.850  0.00  0.00     0.043 A 
ATOM     17  C   UNL d   1      53.218  30.470  53.096  0.00  0.00     0.019 A 
ATOM     18  C   UNL d   1      53.102  29.315  53.701  0.00  0.00     0.009 C 
ATOM     19  C   UNL d   1      53.170  29.532  54.429  0.00  0.00     0.009 C 
ATOM     20  C   UNL d   1      53.319  31.291  53.025  0.00  0.00     0.195 A 
ATOM     21  O   UNL d   1      53.317  31.471  52.557  0.00  0.00    -0.287 OA
ENDBRANCH   1  12
BRANCH   1  22
ATOM     22  C   UNL d   1      54.260  32.897  53.727  0.00  0.00     0.030 A 
ATOM     23  S   UNL d   1      54.627  33.285  54.360  0.00  0.00    -0.086 SA
ATOM     24  C   UNL d   1      55.386  33.493  54.128  0.00  0.00     0.035 A 
ATOM     25  C   UNL d   1      55.501  33.242  53.360  0.00  0.00     0.007 A 
ATOM     26  C   UNL d   1      54.807  32.876  53.114  0.00  0.00     0.007 A 
ENDBRANCH   1  22
TORSDOF 3
ENDMDL
