MODEL 1
REMARK VINA RESULT:      -1.2      0.000      0.000
REMARK  4 active torsions:
REMARK  status: ('A' for Active; 'I' for Inactive)
REMARK    1  A    between atoms: C_3  and  C_1 
REMARK    2  A    between atoms: N_10  and  C_3 
REMARK    3  A    between atoms: C_13  and  C_3 
REMARK    4  A    between atoms: C_5  and  N_10 
ROOT
ATOM      1  C   UNL d   1      59.079  -0.508  30.058  0.00  0.00     0.086 C 
ENDROOT
BRANCH   1   2
ATOM      2  C   UNL d   1      58.366  -0.079  30.127  0.00  0.00     0.037 A 
ATOM      3  C   UNL d   1      58.000   0.349  29.506  0.00  0.00     0.083 A 
ATOM      4  N   UNL d   1      57.342   0.678  29.783  0.00  0.00    -0.245 NA
ATOM      5  C   UNL d   1      58.283   0.415  28.735  0.00  0.00     0.021 C 
ATOM      6  C   UNL d   1      57.251   0.486  30.573  0.00  0.00     0.081 A 
ATOM      7  C   UNL d   1      57.894   0.011  30.789  0.00  0.00     0.021 A 
ATOM      8  C   UNL d   1      56.670   0.679  31.125  0.00  0.00     0.019 A 
ATOM      9  C   UNL d   1      57.948  -0.266  31.554  0.00  0.00     0.002 A 
ATOM     10  C   UNL d   1      57.380  -0.083  32.111  0.00  0.00     0.000 A 
ATOM     11  C   UNL d   1      56.737   0.392  31.896  0.00  0.00     0.002 A 
ENDBRANCH   1   2
BRANCH   1  12
ATOM     12  N   UNL d   1      59.089  -1.304  30.229  0.00  0.00    -0.225 NA
BRANCH  12  13
ATOM     13  C   UNL d   1      59.129  -1.831  29.618  0.00  0.00     0.191 A 
ATOM     14  N   UNL d   1      58.894  -1.805  28.803  0.00  0.00    -0.107 NA
ATOM     15  O   UNL d   1      59.081  -2.522  28.455  0.00  0.00    -0.210 OA
ATOM     16  C   UNL d   1      59.428  -3.009  29.018  0.00  0.00     0.128 A 
ATOM     17  C   UNL d   1      59.461  -2.589  29.739  0.00  0.00     0.068 A 
ATOM     18  C   UNL d   1      59.686  -3.779  28.854  0.00  0.00     0.029 C 
ENDBRANCH  12  13
ENDBRANCH   1  12
BRANCH   1  19
ATOM     19  C   UNL d   1      59.760  -0.113  29.817  0.00  0.00     0.037 A 
ATOM     20  C   UNL d   1      59.770   0.276  29.119  0.00  0.00     0.100 A 
ATOM     21  N   UNL d   1      60.442   0.679  28.855  0.00  0.00    -0.242 NA
ATOM     22  C   UNL d   1      61.122   0.671  29.342  0.00  0.00     0.099 A 
ATOM     23  C   UNL d   1      61.104   0.266  30.062  0.00  0.00     0.021 A 
ATOM     24  C   UNL d   1      60.438  -0.126  30.311  0.00  0.00     0.005 A 
ENDBRANCH   1  19
TORSDOF 4
ENDMDL
MODEL 2
REMARK VINA RESULT:      -0.0      1.065      3.290
REMARK  4 active torsions:
REMARK  status: ('A' for Active; 'I' for Inactive)
REMARK    1  A    between atoms: C_3  and  C_1 
REMARK    2  A    between atoms: N_10  and  C_3 
REMARK    3  A    between atoms: C_13  and  C_3 
REMARK    4  A    between atoms: C_5  and  N_10 
ROOT
ATOM      1  C   UNL d   1      59.476  -1.017  29.856  0.00  0.00     0.086 C 
ENDROOT
BRANCH   1   2
ATOM      2  C   UNL d   1      59.334  -1.689  29.383  0.00  0.00     0.037 A 
ATOM      3  C   UNL d   1      58.759  -1.737  28.775  0.00  0.00     0.083 A 
ATOM      4  N   UNL d   1      58.792  -2.456  28.456  0.00  0.00    -0.245 NA
ATOM      5  C   UNL d   1      58.247  -1.134  28.549  0.00  0.00     0.021 C 
ATOM      6  C   UNL d   1      59.371  -2.895  28.830  0.00  0.00     0.081 A 
ATOM      7  C   UNL d   1      59.712  -2.414  29.412  0.00  0.00     0.021 A 
ATOM      8  C   UNL d   1      59.635  -3.669  28.720  0.00  0.00     0.019 A 
ATOM      9  C   UNL d   1      60.312  -2.713  29.877  0.00  0.00     0.002 A 
ATOM     10  C   UNL d   1      60.584  -3.476  29.779  0.00  0.00     0.000 A 
ATOM     11  C   UNL d   1      60.243  -3.957  29.197  0.00  0.00     0.002 A 
ENDBRANCH   1   2
BRANCH   1  12
ATOM     12  N   UNL d   1      59.084  -0.931  30.565  0.00  0.00    -0.225 NA
BRANCH  12  13
ATOM     13  C   UNL d   1      58.497  -0.378  30.620  0.00  0.00     0.191 A 
ATOM     14  N   UNL d   1      58.278   0.294  30.151  0.00  0.00    -0.107 NA
ATOM     15  O   UNL d   1      57.623   0.647  30.491  0.00  0.00    -0.210 OA
ATOM     16  C   UNL d   1      57.413   0.225  31.163  0.00  0.00     0.128 A 
ATOM     17  C   UNL d   1      57.948  -0.409  31.250  0.00  0.00     0.068 A 
ATOM     18  C   UNL d   1      56.770   0.431  31.645  0.00  0.00     0.029 C 
ENDBRANCH  12  13
ENDBRANCH   1  12
BRANCH   1  19
ATOM     19  C   UNL d   1      60.013  -0.450  29.594  0.00  0.00     0.037 A 
ATOM     20  C   UNL d   1      59.965  -0.171  28.847  0.00  0.00     0.100 A 
ATOM     21  N   UNL d   1      60.492   0.398  28.561  0.00  0.00    -0.242 NA
ATOM     22  C   UNL d   1      61.086   0.680  29.078  0.00  0.00     0.099 A 
ATOM     23  C   UNL d   1      61.129   0.386  29.849  0.00  0.00     0.021 A 
ATOM     24  C   UNL d   1      60.605  -0.173  30.119  0.00  0.00     0.005 A 
ENDBRANCH   1  19
TORSDOF 4
ENDMDL
MODEL 3
REMARK VINA RESULT:       1.0      1.385      3.057
REMARK  4 active torsions:
REMARK  status: ('A' for Active; 'I' for Inactive)
REMARK    1  A    between atoms: C_3  and  C_1 
REMARK    2  A    between atoms: N_10  and  C_3 
REMARK    3  A    between atoms: C_13  and  C_3 
REMARK    4  A    between atoms: C_5  and  N_10 
ROOT
ATOM      1  C   UNL d   1      58.532   0.183  30.380  0.00  0.00     0.086 C 
ENDROOT
BRANCH   1   2
ATOM      2  C   UNL d   1      58.492  -0.295  29.698  0.00  0.00     0.037 A 
ATOM      3  C   UNL d   1      58.170  -0.057  28.961  0.00  0.00     0.083 A 
ATOM      4  N   UNL d   1      58.232  -0.656  28.455  0.00  0.00    -0.245 NA
ATOM      5  C   UNL d   1      57.844   0.681  28.795  0.00  0.00     0.021 C 
ATOM      6  C   UNL d   1      58.586  -1.292  28.827  0.00  0.00     0.081 A 
ATOM      7  C   UNL d   1      58.750  -1.066  29.607  0.00  0.00     0.021 A 
ATOM      8  C   UNL d   1      58.782  -2.048  28.561  0.00  0.00     0.019 A 
ATOM      9  C   UNL d   1      59.107  -1.598  30.111  0.00  0.00     0.002 A 
ATOM     10  C   UNL d   1      59.307  -2.349  29.862  0.00  0.00     0.000 A 
ATOM     11  C   UNL d   1      59.143  -2.575  29.083  0.00  0.00     0.002 A 
ENDBRANCH   1   2
BRANCH   1  12
ATOM     12  N   UNL d   1      57.846   0.475  30.709  0.00  0.00    -0.225 NA
BRANCH  12  13
ATOM     13  C   UNL d   1      57.419  -0.001  31.204  0.00  0.00     0.191 A 
ATOM     14  N   UNL d   1      57.397  -0.838  31.339  0.00  0.00    -0.107 NA
ATOM     15  O   UNL d   1      56.842  -0.993  31.920  0.00  0.00    -0.210 OA
ATOM     16  C   UNL d   1      56.506  -0.284  32.163  0.00  0.00     0.128 A 
ATOM     17  C   UNL d   1      56.857   0.333  31.726  0.00  0.00     0.068 A 
ATOM     18  C   UNL d   1      55.920  -0.237  32.748  0.00  0.00     0.029 C 
ENDBRANCH  12  13
ENDBRANCH   1  12
BRANCH   1  19
ATOM     19  C   UNL d   1      59.268   0.350  30.709  0.00  0.00     0.037 A 
ATOM     20  C   UNL d   1      59.891   0.509  30.234  0.00  0.00     0.100 A 
ATOM     21  N   UNL d   1      60.639   0.679  30.540  0.00  0.00    -0.242 NA
ATOM     22  C   UNL d   1      60.733   0.682  31.371  0.00  0.00     0.099 A 
ATOM     23  C   UNL d   1      60.085   0.516  31.856  0.00  0.00     0.021 A 
ATOM     24  C   UNL d   1      59.354   0.350  31.544  0.00  0.00     0.005 A 
ENDBRANCH   1  19
TORSDOF 4
ENDMDL
