MODEL 1
REMARK VINA RESULT:      -7.4      0.000      0.000
REMARK  4 active torsions:
REMARK  status: ('A' for Active; 'I' for Inactive)
REMARK    1  A    between atoms: C_9  and  C_4 
REMARK    2  A    between atoms: C_7  and  C_11 
REMARK    3  A    between atoms: O_12  and  C_7 
REMARK    4  A    between atoms: C_11  and  C_9 
ROOT
ATOM      1  N   UNL d   1     -47.954  13.186  23.139  0.00  0.00    -0.239 NA
ATOM      2  N   UNL d   1     -46.310  13.354  23.055  0.00  0.00    -0.205 NA
ATOM      3  C   UNL d   1     -46.803  13.993  22.883  0.00  0.00     0.297 A 
ATOM      4  C   UNL d   1     -47.631  13.911  22.925  0.00  0.00     0.139 A 
ATOM      5  C   UNL d   1     -47.462  12.549  23.310  0.00  0.00     0.099 A 
ATOM      6  C   UNL d   1     -46.642  12.631  23.269  0.00  0.00     0.102 A 
ATOM      7  O   UNL d   1     -46.479  14.723  22.667  0.00  0.00    -0.264 OA
ATOM      8  C   UNL d   1     -47.794  11.823  23.526  0.00  0.00     0.021 A 
ATOM      9  C   UNL d   1     -46.154  11.986  23.442  0.00  0.00     0.021 A 
ATOM     10  C   UNL d   1     -46.486  11.264  23.656  0.00  0.00     0.002 A 
ATOM     11  C   UNL d   1     -47.306  11.183  23.698  0.00  0.00     0.002 A 
ENDROOT
BRANCH   4  12
ATOM     12  C   UNL d   1     -48.118  14.552  22.753  0.00  0.00     0.029 C 
BRANCH  12  13
ATOM     13  C   UNL d   1     -48.880  14.584  23.056  0.00  0.00     0.070 C 
BRANCH  13  14
ATOM     14  C   UNL d   1     -49.333  15.269  22.952  0.00  0.00     0.296 C 
ATOM     15  O   UNL d   1     -49.509  15.545  22.195  0.00  0.00    -0.259 OA
BRANCH  14  16
ATOM     16  O   UNL d   1     -49.612  15.681  23.618  0.00  0.00    -0.296 OA
ATOM     17  C   UNL d   1     -50.415  15.854  23.690  0.00  0.00     0.185 C 
ENDBRANCH  14  16
ENDBRANCH  13  14
ENDBRANCH  12  13
ENDBRANCH   4  12
TORSDOF 4
ENDMDL
MODEL 2
REMARK VINA RESULT:      -7.2      2.047      3.663
REMARK  4 active torsions:
REMARK  status: ('A' for Active; 'I' for Inactive)
REMARK    1  A    between atoms: C_9  and  C_4 
REMARK    2  A    between atoms: C_7  and  C_11 
REMARK    3  A    between atoms: O_12  and  C_7 
REMARK    4  A    between atoms: C_11  and  C_9 
ROOT
ATOM      1  N   UNL d   1     -48.643  12.855  23.322  0.00  0.00    -0.239 NA
ATOM      2  N   UNL d   1     -49.167  11.321  23.651  0.00  0.00    -0.205 NA
ATOM      3  C   UNL d   1     -48.359  11.480  23.590  0.00  0.00     0.297 A 
ATOM      4  C   UNL d   1     -48.094  12.252  23.424  0.00  0.00     0.139 A 
ATOM      5  C   UNL d   1     -49.448  12.695  23.384  0.00  0.00     0.099 A 
ATOM      6  C   UNL d   1     -49.711  11.931  23.548  0.00  0.00     0.102 A 
ATOM      7  O   UNL d   1     -47.805  10.875  23.692  0.00  0.00    -0.264 OA
ATOM      8  C   UNL d   1     -49.995  13.307  23.280  0.00  0.00     0.021 A 
ATOM      9  C   UNL d   1     -50.521  11.778  23.608  0.00  0.00     0.021 A 
ATOM     10  C   UNL d   1     -51.064  12.387  23.505  0.00  0.00     0.002 A 
ATOM     11  C   UNL d   1     -50.801  13.151  23.341  0.00  0.00     0.002 A 
ENDROOT
BRANCH   4  12
ATOM     12  C   UNL d   1     -47.287  12.406  23.363  0.00  0.00     0.029 C 
BRANCH  12  13
ATOM     13  C   UNL d   1     -47.022  13.056  22.937  0.00  0.00     0.070 C 
BRANCH  13  14
ATOM     14  C   UNL d   1     -46.211  13.219  22.902  0.00  0.00     0.296 C 
ATOM     15  O   UNL d   1     -45.839  13.626  23.516  0.00  0.00    -0.259 OA
BRANCH  14  16
ATOM     16  O   UNL d   1     -45.771  12.971  22.243  0.00  0.00    -0.296 OA
ATOM     17  C   UNL d   1     -45.051  13.335  22.066  0.00  0.00     0.185 C 
ENDBRANCH  14  16
ENDBRANCH  13  14
ENDBRANCH  12  13
ENDBRANCH   4  12
TORSDOF 4
ENDMDL
MODEL 3
REMARK VINA RESULT:      -7.0      1.702      3.399
REMARK  4 active torsions:
REMARK  status: ('A' for Active; 'I' for Inactive)
REMARK    1  A    between atoms: C_9  and  C_4 
REMARK    2  A    between atoms: C_7  and  C_11 
REMARK    3  A    between atoms: O_12  and  C_7 
REMARK    4  A    between atoms: C_11  and  C_9 
ROOT
ATOM      1  N   UNL d   1     -48.628  12.919  23.204  0.00  0.00    -0.239 NA
ATOM      2  N   UNL d   1     -49.762  14.103  22.990  0.00  0.00    -0.205 NA
ATOM      3  C   UNL d   1     -48.959  14.280  22.922  0.00  0.00     0.297 A 
ATOM      4  C   UNL d   1     -48.386  13.685  23.029  0.00  0.00     0.139 A 
ATOM      5  C   UNL d   1     -49.429  12.744  23.271  0.00  0.00     0.099 A 
ATOM      6  C   UNL d   1     -49.996  13.333  23.164  0.00  0.00     0.102 A 
ATOM      7  O   UNL d   1     -48.715  15.051  22.747  0.00  0.00    -0.264 OA
ATOM      8  C   UNL d   1     -49.665  11.970  23.446  0.00  0.00     0.021 A 
ATOM      9  C   UNL d   1     -50.799  13.149  23.234  0.00  0.00     0.021 A 
ATOM     10  C   UNL d   1     -51.032  12.380  23.408  0.00  0.00     0.002 A 
ATOM     11  C   UNL d   1     -50.465  11.791  23.515  0.00  0.00     0.002 A 
ENDROOT
BRANCH   4  12
ATOM     12  C   UNL d   1     -47.586  13.866  22.961  0.00  0.00     0.029 C 
BRANCH  12  13
ATOM     13  C   UNL d   1     -47.039  13.271  22.819  0.00  0.00     0.070 C 
BRANCH  13  14
ATOM     14  C   UNL d   1     -46.230  13.448  22.828  0.00  0.00     0.296 C 
ATOM     15  O   UNL d   1     -45.842  13.601  23.540  0.00  0.00    -0.259 OA
BRANCH  14  16
ATOM     16  O   UNL d   1     -45.807  13.470  22.113  0.00  0.00    -0.296 OA
ATOM     17  C   UNL d   1     -45.052  13.141  22.069  0.00  0.00     0.185 C 
ENDBRANCH  14  16
ENDBRANCH  13  14
ENDBRANCH  12  13
ENDBRANCH   4  12
TORSDOF 4
ENDMDL
MODEL 4
REMARK VINA RESULT:      -6.8      1.847      3.918
REMARK  4 active torsions:
REMARK  status: ('A' for Active; 'I' for Inactive)
REMARK    1  A    between atoms: C_9  and  C_4 
REMARK    2  A    between atoms: C_7  and  C_11 
REMARK    3  A    between atoms: O_12  and  C_7 
REMARK    4  A    between atoms: C_11  and  C_9 
ROOT
ATOM      1  N   UNL d   1     -48.269  14.133  22.792  0.00  0.00    -0.239 NA
ATOM      2  N   UNL d   1     -49.359  13.595  21.671  0.00  0.00    -0.205 NA
ATOM      3  C   UNL d   1     -48.613  13.246  21.725  0.00  0.00     0.297 A 
ATOM      4  C   UNL d   1     -48.063  13.516  22.289  0.00  0.00     0.139 A 
ATOM      5  C   UNL d   1     -49.013  14.480  22.736  0.00  0.00     0.099 A 
ATOM      6  C   UNL d   1     -49.558  14.212  22.178  0.00  0.00     0.102 A 
ATOM      7  O   UNL d   1     -48.405  12.625  21.221  0.00  0.00    -0.264 OA
ATOM      8  C   UNL d   1     -49.213  15.100  23.245  0.00  0.00     0.021 A 
ATOM      9  C   UNL d   1     -50.304  14.566  22.128  0.00  0.00     0.021 A 
ATOM     10  C   UNL d   1     -50.502  15.183  22.635  0.00  0.00     0.002 A 
ATOM     11  C   UNL d   1     -49.956  15.450  23.193  0.00  0.00     0.002 A 
ENDROOT
BRANCH   4  12
ATOM     12  C   UNL d   1     -47.320  13.165  22.340  0.00  0.00     0.029 C 
BRANCH  12  13
ATOM     13  C   UNL d   1     -46.678  13.596  22.616  0.00  0.00     0.070 C 
BRANCH  13  14
ATOM     14  C   UNL d   1     -45.932  13.240  22.655  0.00  0.00     0.296 C 
ATOM     15  O   UNL d   1     -45.770  12.667  23.227  0.00  0.00    -0.259 OA
BRANCH  14  16
ATOM     16  O   UNL d   1     -45.342  13.461  22.113  0.00  0.00    -0.296 OA
ATOM     17  C   UNL d   1     -44.663  13.000  22.030  0.00  0.00     0.185 C 
ENDBRANCH  14  16
ENDBRANCH  13  14
ENDBRANCH  12  13
ENDBRANCH   4  12
TORSDOF 4
ENDMDL
MODEL 5
REMARK VINA RESULT:      -6.5      1.876      2.396
REMARK  4 active torsions:
REMARK  status: ('A' for Active; 'I' for Inactive)
REMARK    1  A    between atoms: C_9  and  C_4 
REMARK    2  A    between atoms: C_7  and  C_11 
REMARK    3  A    between atoms: O_12  and  C_7 
REMARK    4  A    between atoms: C_11  and  C_9 
ROOT
ATOM      1  N   UNL d   1     -48.459  12.723  23.252  0.00  0.00    -0.239 NA
ATOM      2  N   UNL d   1     -48.400  11.131  23.696  0.00  0.00    -0.205 NA
ATOM      3  C   UNL d   1     -49.127  11.504  23.586  0.00  0.00     0.297 A 
ATOM      4  C   UNL d   1     -49.159  12.306  23.362  0.00  0.00     0.139 A 
ATOM      5  C   UNL d   1     -47.735  12.349  23.362  0.00  0.00     0.099 A 
ATOM      6  C   UNL d   1     -47.703  11.555  23.584  0.00  0.00     0.102 A 
ATOM      7  O   UNL d   1     -49.832  11.086  23.696  0.00  0.00    -0.264 OA
ATOM      8  C   UNL d   1     -47.034  12.774  23.250  0.00  0.00     0.021 A 
ATOM      9  C   UNL d   1     -46.971  11.186  23.693  0.00  0.00     0.021 A 
ATOM     10  C   UNL d   1     -46.275  11.610  23.581  0.00  0.00     0.002 A 
ATOM     11  C   UNL d   1     -46.307  12.404  23.359  0.00  0.00     0.002 A 
ENDROOT
BRANCH   4  12
ATOM     12  C   UNL d   1     -49.887  12.675  23.253  0.00  0.00     0.029 C 
BRANCH  12  13
ATOM     13  C   UNL d   1     -49.955  13.309  22.737  0.00  0.00     0.070 C 
BRANCH  13  14
ATOM     14  C   UNL d   1     -50.686  13.687  22.647  0.00  0.00     0.296 C 
ATOM     15  O   UNL d   1     -51.053  14.050  23.290  0.00  0.00    -0.259 OA
BRANCH  14  16
ATOM     16  O   UNL d   1     -51.052  13.701  21.901  0.00  0.00    -0.296 OA
ATOM     17  C   UNL d   1     -51.064  14.397  21.459  0.00  0.00     0.185 C 
ENDBRANCH  14  16
ENDBRANCH  13  14
ENDBRANCH  12  13
ENDBRANCH   4  12
TORSDOF 4
ENDMDL
MODEL 6
REMARK VINA RESULT:      -5.7      1.536      1.992
REMARK  4 active torsions:
REMARK  status: ('A' for Active; 'I' for Inactive)
REMARK    1  A    between atoms: C_9  and  C_4 
REMARK    2  A    between atoms: C_7  and  C_11 
REMARK    3  A    between atoms: O_12  and  C_7 
REMARK    4  A    between atoms: C_11  and  C_9 
ROOT
ATOM      1  N   UNL d   1     -47.937  13.280  22.953  0.00  0.00    -0.239 NA
ATOM      2  N   UNL d   1     -47.106  14.646  22.530  0.00  0.00    -0.205 NA
ATOM      3  C   UNL d   1     -47.925  14.672  22.625  0.00  0.00     0.297 A 
ATOM      4  C   UNL d   1     -48.346  13.985  22.838  0.00  0.00     0.139 A 
ATOM      5  C   UNL d   1     -47.121  13.257  22.857  0.00  0.00     0.099 A 
ATOM      6  C   UNL d   1     -46.704  13.937  22.646  0.00  0.00     0.102 A 
ATOM      7  O   UNL d   1     -48.337  15.379  22.510  0.00  0.00    -0.264 OA
ATOM      8  C   UNL d   1     -46.716  12.544  22.974  0.00  0.00     0.021 A 
ATOM      9  C   UNL d   1     -45.884  13.905  22.552  0.00  0.00     0.021 A 
ATOM     10  C   UNL d   1     -45.483  13.196  22.669  0.00  0.00     0.002 A 
ATOM     11  C   UNL d   1     -45.899  12.516  22.880  0.00  0.00     0.002 A 
ENDROOT
BRANCH   4  12
ATOM     12  C   UNL d   1     -49.163  14.015  22.933  0.00  0.00     0.029 C 
BRANCH  12  13
ATOM     13  C   UNL d   1     -49.557  13.402  23.311  0.00  0.00     0.070 C 
BRANCH  13  14
ATOM     14  C   UNL d   1     -50.385  13.395  23.325  0.00  0.00     0.296 C 
ATOM     15  O   UNL d   1     -50.804  14.002  23.697  0.00  0.00    -0.259 OA
BRANCH  14  16
ATOM     16  O   UNL d   1     -50.797  12.772  22.962  0.00  0.00    -0.296 OA
ATOM     17  C   UNL d   1     -51.064  12.135  23.413  0.00  0.00     0.185 C 
ENDBRANCH  14  16
ENDBRANCH  13  14
ENDBRANCH  12  13
ENDBRANCH   4  12
TORSDOF 4
ENDMDL
MODEL 7
REMARK VINA RESULT:      -5.1      8.529      9.117
REMARK  4 active torsions:
REMARK  status: ('A' for Active; 'I' for Inactive)
REMARK    1  A    between atoms: C_9  and  C_4 
REMARK    2  A    between atoms: C_7  and  C_11 
REMARK    3  A    between atoms: O_12  and  C_7 
REMARK    4  A    between atoms: C_11  and  C_9 
ROOT
ATOM      1  N   UNL d   1     -40.237  15.362  19.322  0.00  0.00    -0.239 NA
ATOM      2  N   UNL d   1     -39.326  14.070  19.809  0.00  0.00    -0.205 NA
ATOM      3  C   UNL d   1     -39.485  14.188  19.008  0.00  0.00     0.297 A 
ATOM      4  C   UNL d   1     -39.943  14.838  18.761  0.00  0.00     0.139 A 
ATOM      5  C   UNL d   1     -40.077  15.243  20.121  0.00  0.00     0.099 A 
ATOM      6  C   UNL d   1     -39.623  14.599  20.365  0.00  0.00     0.102 A 
ATOM      7  O   UNL d   1     -39.190  13.661  18.442  0.00  0.00    -0.264 OA
ATOM      8  C   UNL d   1     -40.376  15.775  20.680  0.00  0.00     0.021 A 
ATOM      9  C   UNL d   1     -39.467  14.487  21.170  0.00  0.00     0.021 A 
ATOM     10  C   UNL d   1     -39.765  15.016  21.725  0.00  0.00     0.002 A 
ATOM     11  C   UNL d   1     -40.219  15.660  21.480  0.00  0.00     0.002 A 
ENDROOT
BRANCH   4  12
ATOM     12  C   UNL d   1     -40.099  14.951  17.960  0.00  0.00     0.029 C 
BRANCH  12  13
ATOM     13  C   UNL d   1     -40.739  15.409  17.726  0.00  0.00     0.070 C 
BRANCH  13  14
ATOM     14  C   UNL d   1     -40.860  15.561  16.921  0.00  0.00     0.296 C 
ATOM     15  O   UNL d   1     -40.272  15.921  16.469  0.00  0.00    -0.259 OA
BRANCH  14  16
ATOM     16  O   UNL d   1     -41.581  15.348  16.567  0.00  0.00    -0.296 OA
ATOM     17  C   UNL d   1     -42.045  15.921  16.197  0.00  0.00     0.185 C 
ENDBRANCH  14  16
ENDBRANCH  13  14
ENDBRANCH  12  13
ENDBRANCH   4  12
TORSDOF 4
ENDMDL
MODEL 8
REMARK VINA RESULT:      -4.9      8.414      9.584
REMARK  4 active torsions:
REMARK  status: ('A' for Active; 'I' for Inactive)
REMARK    1  A    between atoms: C_9  and  C_4 
REMARK    2  A    between atoms: C_7  and  C_11 
REMARK    3  A    between atoms: O_12  and  C_7 
REMARK    4  A    between atoms: C_11  and  C_9 
ROOT
ATOM      1  N   UNL d   1     -39.525  13.909  18.444  0.00  0.00    -0.239 NA
ATOM      2  N   UNL d   1     -39.815  14.566  16.954  0.00  0.00    -0.205 NA
ATOM      3  C   UNL d   1     -40.291  14.768  17.597  0.00  0.00     0.297 A 
ATOM      4  C   UNL d   1     -40.147  14.439  18.348  0.00  0.00     0.139 A 
ATOM      5  C   UNL d   1     -39.052  13.708  17.802  0.00  0.00     0.099 A 
ATOM      6  C   UNL d   1     -39.195  14.035  17.058  0.00  0.00     0.102 A 
ATOM      7  O   UNL d   1     -40.917  15.301  17.502  0.00  0.00    -0.264 OA
ATOM      8  C   UNL d   1     -38.428  13.174  17.906  0.00  0.00     0.021 A 
ATOM      9  C   UNL d   1     -38.714  13.828  16.418  0.00  0.00     0.021 A 
ATOM     10  C   UNL d   1     -38.095  13.297  16.523  0.00  0.00     0.002 A 
ATOM     11  C   UNL d   1     -37.951  12.970  17.266  0.00  0.00     0.002 A 
ENDROOT
BRANCH   4  12
ATOM     12  C   UNL d   1     -40.624  14.644  18.987  0.00  0.00     0.029 C 
BRANCH  12  13
ATOM     13  C   UNL d   1     -40.292  14.767  19.727  0.00  0.00     0.070 C 
BRANCH  13  14
ATOM     14  C   UNL d   1     -40.774  15.005  20.357  0.00  0.00     0.296 C 
ATOM     15  O   UNL d   1     -41.310  14.479  20.698  0.00  0.00    -0.259 OA
BRANCH  14  16
ATOM     16  O   UNL d   1     -40.715  15.781  20.648  0.00  0.00    -0.296 OA
ATOM     17  C   UNL d   1     -40.565  15.913  21.448  0.00  0.00     0.185 C 
ENDBRANCH  14  16
ENDBRANCH  13  14
ENDBRANCH  12  13
ENDBRANCH   4  12
TORSDOF 4
ENDMDL
MODEL 9
REMARK VINA RESULT:      -4.7      8.135      9.137
REMARK  4 active torsions:
REMARK  status: ('A' for Active; 'I' for Inactive)
REMARK    1  A    between atoms: C_9  and  C_4 
REMARK    2  A    between atoms: C_7  and  C_11 
REMARK    3  A    between atoms: O_12  and  C_7 
REMARK    4  A    between atoms: C_11  and  C_9 
ROOT
ATOM      1  N   UNL d   1     -39.795  14.424  19.707  0.00  0.00    -0.239 NA
ATOM      2  N   UNL d   1     -40.893  15.583  19.275  0.00  0.00    -0.205 NA
ATOM      3  C   UNL d   1     -40.706  15.464  20.070  0.00  0.00     0.297 A 
ATOM      4  C   UNL d   1     -40.154  14.880  20.289  0.00  0.00     0.139 A 
ATOM      5  C   UNL d   1     -39.983  14.544  18.915  0.00  0.00     0.099 A 
ATOM      6  C   UNL d   1     -40.530  15.122  18.698  0.00  0.00     0.102 A 
ATOM      7  O   UNL d   1     -41.066  15.922  20.657  0.00  0.00    -0.264 OA
ATOM      8  C   UNL d   1     -39.618  14.082  18.334  0.00  0.00     0.021 A 
ATOM      9  C   UNL d   1     -40.713  15.237  17.899  0.00  0.00     0.021 A 
ATOM     10  C   UNL d   1     -40.350  14.776  17.323  0.00  0.00     0.002 A 
ATOM     11  C   UNL d   1     -39.802  14.198  17.540  0.00  0.00     0.002 A 
ENDROOT
BRANCH   4  12
ATOM     12  C   UNL d   1     -39.970  14.764  21.083  0.00  0.00     0.029 C 
BRANCH  12  13
ATOM     13  C   UNL d   1     -39.372  14.245  21.297  0.00  0.00     0.070 C 
BRANCH  13  14
ATOM     14  C   UNL d   1     -39.162  14.168  22.094  0.00  0.00     0.296 C 
ATOM     15  O   UNL d   1     -38.857  14.810  22.512  0.00  0.00    -0.259 OA
BRANCH  14  16
ATOM     16  O   UNL d   1     -39.260  13.436  22.476  0.00  0.00    -0.296 OA
ATOM     17  C   UNL d   1     -38.795  13.245  23.130  0.00  0.00     0.185 C 
ENDBRANCH  14  16
ENDBRANCH  13  14
ENDBRANCH  12  13
ENDBRANCH   4  12
TORSDOF 4
ENDMDL
