MODEL 1
REMARK VINA RESULT:      -8.2      0.000      0.000
REMARK  4 active torsions:
REMARK  status: ('A' for Active; 'I' for Inactive)
REMARK    1  A    between atoms: C_21  and  N_5 
REMARK    2  A    between atoms: C_11  and  C_6 
REMARK       I    between atoms: N_15  and  C_11 
REMARK    3  A    between atoms: C_23  and  N_15 
REMARK    4  A    between atoms: C_22  and  C_23 
ROOT
ATOM      1  C   UNL d   1     -48.415  13.024  22.995  0.00  0.00     0.155 A 
ATOM      2  C   UNL d   1     -47.763  13.537  22.992  0.00  0.00     0.091 A 
ATOM      3  N   UNL d   1     -49.174  13.332  22.950  0.00  0.00    -0.210 NA
ATOM      4  N   UNL d   1     -48.647  14.650  22.900  0.00  0.00    -0.258 N 
ATOM      5  N   UNL d   1     -48.296  12.213  23.042  0.00  0.00    -0.274 N 
ATOM      6  C   UNL d   1     -46.881  12.414  23.085  0.00  0.00     0.094 A 
ATOM      7  C   UNL d   1     -49.294  14.143  22.903  0.00  0.00     0.152 A 
ATOM      8  C   UNL d   1     -47.874  14.352  22.945  0.00  0.00     0.269 A 
ATOM      9  C   UNL d   1     -47.527  11.906  23.087  0.00  0.00     0.175 A 
ATOM     10  C   UNL d   1     -46.996  13.234  23.037  0.00  0.00     0.016 A 
ATOM     11  C   UNL d   1     -50.055  14.454  22.857  0.00  0.00     0.035 A 
ATOM     12  C   UNL d   1     -48.755  15.474  22.853  0.00  0.00     0.084 A 
ATOM     13  N   UNL d   1     -47.419  11.087  23.135  0.00  0.00    -0.128 N 
ATOM     14  O   UNL d   1     -47.232  14.866  22.942  0.00  0.00    -0.266 OA
ATOM     15  C   UNL d   1     -49.526  15.770  22.808  0.00  0.00     0.019 A 
ATOM     16  C   UNL d   1     -50.172  15.262  22.810  0.00  0.00     0.005 A 
ATOM     17  C   UNL d   1     -50.706  13.942  22.860  0.00  0.00     0.003 C 
ENDROOT
BRANCH   6  18
ATOM     18  C   UNL d   1     -46.114  12.111  23.130  0.00  0.00     0.282 C 
ATOM     19  N   UNL d   1     -45.540  12.378  22.600  0.00  0.00    -0.206 NA
ATOM     20  O   UNL d   1     -45.924  11.548  23.698  0.00  0.00    -0.265 OA
BRANCH  19  21
ATOM     21  C   UNL d   1     -44.766  12.075  22.642  0.00  0.00     0.104 C 
BRANCH  21  22
ATOM     22  C   UNL d   1     -44.178  12.375  22.142  0.00  0.00     0.038 A 
ATOM     23  C   UNL d   1     -43.412  12.074  22.190  0.00  0.00     0.101 A 
ATOM     24  N   UNL d   1     -42.826  12.374  21.691  0.00  0.00    -0.242 NA
ATOM     25  C   UNL d   1     -43.001  12.968  21.150  0.00  0.00     0.099 A 
ATOM     26  C   UNL d   1     -43.774  13.267  21.105  0.00  0.00     0.021 A 
ATOM     27  C   UNL d   1     -44.358  12.968  21.603  0.00  0.00     0.005 A 
ENDBRANCH  21  22
ENDBRANCH  19  21
ENDBRANCH   6  18
BRANCH   5  28
ATOM     28  C   UNL d   1     -48.948  11.702  23.044  0.00  0.00     0.083 C 
ATOM     29  C   UNL d   1     -49.075  11.204  23.691  0.00  0.00     0.021 C 
ENDBRANCH   5  28
TORSDOF 4
ENDMDL
MODEL 2
REMARK VINA RESULT:      -7.8      0.987      2.427
REMARK  4 active torsions:
REMARK  status: ('A' for Active; 'I' for Inactive)
REMARK    1  A    between atoms: C_21  and  N_5 
REMARK    2  A    between atoms: C_11  and  C_6 
REMARK       I    between atoms: N_15  and  C_11 
REMARK    3  A    between atoms: C_23  and  N_15 
REMARK    4  A    between atoms: C_22  and  C_23 
ROOT
ATOM      1  C   UNL d   1     -48.644  13.555  22.910  0.00  0.00     0.155 A 
ATOM      2  C   UNL d   1     -48.096  12.978  23.145  0.00  0.00     0.091 A 
ATOM      3  N   UNL d   1     -49.446  13.388  22.933  0.00  0.00    -0.210 NA
ATOM      4  N   UNL d   1     -49.169  12.082  23.420  0.00  0.00    -0.258 N 
ATOM      5  N   UNL d   1     -48.378  14.290  22.657  0.00  0.00    -0.274 N 
ATOM      6  C   UNL d   1     -47.023  13.883  22.867  0.00  0.00     0.094 A 
ATOM      7  C   UNL d   1     -49.712  12.654  23.187  0.00  0.00     0.152 A 
ATOM      8  C   UNL d   1     -48.355  12.238  23.402  0.00  0.00     0.269 A 
ATOM      9  C   UNL d   1     -47.565  14.455  22.635  0.00  0.00     0.175 A 
ATOM     10  C   UNL d   1     -47.286  13.140  23.125  0.00  0.00     0.016 A 
ATOM     11  C   UNL d   1     -50.518  12.485  23.211  0.00  0.00     0.035 A 
ATOM     12  C   UNL d   1     -49.426  11.335  23.679  0.00  0.00     0.084 A 
ATOM     13  N   UNL d   1     -47.309  15.199  22.377  0.00  0.00    -0.128 N 
ATOM     14  O   UNL d   1     -47.818  11.661  23.636  0.00  0.00    -0.266 OA
ATOM     15  C   UNL d   1     -50.239  11.181  23.697  0.00  0.00     0.019 A 
ATOM     16  C   UNL d   1     -50.781  11.752  23.464  0.00  0.00     0.005 A 
ATOM     17  C   UNL d   1     -51.064  13.061  22.977  0.00  0.00     0.003 C 
ENDROOT
BRANCH   6  18
ATOM     18  C   UNL d   1     -46.213  14.045  22.847  0.00  0.00     0.282 C 
ATOM     19  N   UNL d   1     -45.721  13.591  22.364  0.00  0.00    -0.206 NA
ATOM     20  O   UNL d   1     -45.900  14.652  23.303  0.00  0.00    -0.265 OA
BRANCH  19  21
ATOM     21  C   UNL d   1     -44.904  13.751  22.340  0.00  0.00     0.104 C 
BRANCH  21  22
ATOM     22  C   UNL d   1     -44.377  13.166  22.085  0.00  0.00     0.038 A 
ATOM     23  C   UNL d   1     -44.287  12.478  22.531  0.00  0.00     0.101 A 
ATOM     24  N   UNL d   1     -43.760  11.895  22.276  0.00  0.00    -0.242 NA
ATOM     25  C   UNL d   1     -43.327  11.995  21.584  0.00  0.00     0.099 A 
ATOM     26  C   UNL d   1     -43.421  12.689  21.138  0.00  0.00     0.021 A 
ATOM     27  C   UNL d   1     -43.946  13.271  21.393  0.00  0.00     0.005 A 
ENDBRANCH  21  22
ENDBRANCH  19  21
ENDBRANCH   6  18
BRANCH   5  28
ATOM     28  C   UNL d   1     -48.924  14.866  22.422  0.00  0.00     0.083 C 
ATOM     29  C   UNL d   1     -48.836  15.645  22.683  0.00  0.00     0.021 C 
ENDBRANCH   5  28
TORSDOF 4
ENDMDL
MODEL 3
REMARK VINA RESULT:      -7.1      1.166      1.504
REMARK  4 active torsions:
REMARK  status: ('A' for Active; 'I' for Inactive)
REMARK    1  A    between atoms: C_21  and  N_5 
REMARK    2  A    between atoms: C_11  and  C_6 
REMARK       I    between atoms: N_15  and  C_11 
REMARK    3  A    between atoms: C_23  and  N_15 
REMARK    4  A    between atoms: C_22  and  C_23 
ROOT
ATOM      1  C   UNL d   1     -48.510  12.888  23.194  0.00  0.00     0.155 A 
ATOM      2  C   UNL d   1     -47.699  13.054  23.128  0.00  0.00     0.091 A 
ATOM      3  N   UNL d   1     -49.059  13.485  23.072  0.00  0.00    -0.210 NA
ATOM      4  N   UNL d   1     -48.011  14.410  22.818  0.00  0.00    -0.258 N 
ATOM      5  N   UNL d   1     -48.755  12.128  23.382  0.00  0.00    -0.274 N 
ATOM      6  C   UNL d   1     -47.394  11.691  23.439  0.00  0.00     0.094 A 
ATOM      7  C   UNL d   1     -48.814  14.245  22.884  0.00  0.00     0.152 A 
ATOM      8  C   UNL d   1     -47.445  13.816  22.940  0.00  0.00     0.269 A 
ATOM      9  C   UNL d   1     -48.197  11.527  23.505  0.00  0.00     0.175 A 
ATOM     10  C   UNL d   1     -47.141  12.459  23.250  0.00  0.00     0.016 A 
ATOM     11  C   UNL d   1     -49.364  14.846  22.761  0.00  0.00     0.035 A 
ATOM     12  C   UNL d   1     -47.750  15.177  22.629  0.00  0.00     0.084 A 
ATOM     13  N   UNL d   1     -48.456  10.763  23.694  0.00  0.00    -0.128 N 
ATOM     14  O   UNL d   1     -46.644  13.988  22.872  0.00  0.00    -0.266 OA
ATOM     15  C   UNL d   1     -48.315  15.768  22.508  0.00  0.00     0.019 A 
ATOM     16  C   UNL d   1     -49.118  15.604  22.574  0.00  0.00     0.005 A 
ATOM     17  C   UNL d   1     -50.172  14.680  22.827  0.00  0.00     0.003 C 
ENDROOT
BRANCH   6  18
ATOM     18  C   UNL d   1     -46.836  11.096  23.561  0.00  0.00     0.282 C 
ATOM     19  N   UNL d   1     -46.033  11.287  23.574  0.00  0.00    -0.206 NA
ATOM     20  O   UNL d   1     -47.078  10.317  23.669  0.00  0.00    -0.265 OA
BRANCH  19  21
ATOM     21  C   UNL d   1     -45.468  10.689  23.696  0.00  0.00     0.104 C 
BRANCH  21  22
ATOM     22  C   UNL d   1     -44.703  10.776  23.390  0.00  0.00     0.038 A 
ATOM     23  C   UNL d   1     -44.505  11.464  22.980  0.00  0.00     0.101 A 
ATOM     24  N   UNL d   1     -43.742  11.549  22.676  0.00  0.00    -0.242 NA
ATOM     25  C   UNL d   1     -43.181  10.957  22.778  0.00  0.00     0.099 A 
ATOM     26  C   UNL d   1     -43.385  10.266  23.191  0.00  0.00     0.021 A 
ATOM     27  C   UNL d   1     -44.146  10.181  23.495  0.00  0.00     0.005 A 
ENDBRANCH  21  22
ENDBRANCH  19  21
ENDBRANCH   6  18
BRANCH   5  28
ATOM     28  C   UNL d   1     -49.564  11.962  23.449  0.00  0.00     0.083 C 
ATOM     29  C   UNL d   1     -49.929  11.472  22.891  0.00  0.00     0.021 C 
ENDBRANCH   5  28
TORSDOF 4
ENDMDL
