MODEL 1
REMARK VINA RESULT:      19.5      0.000      0.000
REMARK  1 active torsions:
REMARK  status: ('A' for Active; 'I' for Inactive)
REMARK    1  A    between atoms: C_7  and  N_1 
ROOT
ATOM      1  N   UNL d   1      58.533  49.694  50.311  0.00  0.00    -0.226 N 
ATOM      2  C   UNL d   1      58.956  49.698  49.602  0.00  0.00     0.359 A 
ATOM      3  C   UNL d   1      58.934  49.692  51.033  0.00  0.00     0.273 A 
ATOM      4  N   UNL d   1      59.781  49.701  49.617  0.00  0.00    -0.153 NA
ATOM      5  C   UNL d   1      60.182  49.698  50.339  0.00  0.00     0.288 A 
ATOM      6  C   UNL d   1      59.759  49.694  51.047  0.00  0.00     0.124 A 
ATOM      7  O   UNL d   1      58.558  49.701  48.877  0.00  0.00    -0.244 OA
ATOM      8  O   UNL d   1      58.511  49.687  51.741  0.00  0.00    -0.266 OA
ATOM      9  O   UNL d   1      61.007  49.701  50.354  0.00  0.00    -0.265 OA
ENDROOT
BRANCH   1  10
ATOM     10  C   UNL d   1      57.708  49.692  50.296  0.00  0.00     0.071 A 
ATOM     11  C   UNL d   1      57.308  49.675  49.561  0.00  0.00     0.016 A 
ATOM     12  C   UNL d   1      57.743  49.660  48.858  0.00  0.00     0.002 C 
ATOM     13  C   UNL d   1      56.485  49.672  49.542  0.00  0.00     0.001 A 
ATOM     14  C   UNL d   1      56.054  49.687  50.247  0.00  0.00     0.000 A 
ATOM     15  C   UNL d   1      56.452  49.704  50.970  0.00  0.00     0.002 A 
ATOM     16  C   UNL d   1      57.284  49.706  50.995  0.00  0.00     0.018 A 
ENDBRANCH   1  10
TORSDOF 1
ENDMDL
MODEL 2
REMARK VINA RESULT:      22.4      0.995      3.056
REMARK  1 active torsions:
REMARK  status: ('A' for Active; 'I' for Inactive)
REMARK    1  A    between atoms: C_7  and  N_1 
ROOT
ATOM      1  N   UNL d   1      58.724  49.703  50.711  0.00  0.00    -0.226 N 
ATOM      2  C   UNL d   1      58.458  49.706  49.930  0.00  0.00     0.359 A 
ATOM      3  C   UNL d   1      58.180  49.701  51.333  0.00  0.00     0.273 A 
ATOM      4  N   UNL d   1      57.648  49.707  49.772  0.00  0.00    -0.153 NA
ATOM      5  C   UNL d   1      57.105  49.704  50.394  0.00  0.00     0.288 A 
ATOM      6  C   UNL d   1      57.370  49.702  51.175  0.00  0.00     0.124 A 
ATOM      7  O   UNL d   1      58.999  49.708  49.304  0.00  0.00    -0.244 OA
ATOM      8  O   UNL d   1      58.446  49.698  52.115  0.00  0.00    -0.266 OA
ATOM      9  O   UNL d   1      56.295  49.705  50.236  0.00  0.00    -0.265 OA
ENDROOT
BRANCH   1  10
ATOM     10  C   UNL d   1      59.534  49.702  50.869  0.00  0.00     0.071 A 
ATOM     11  C   UNL d   1      59.800  49.704  51.662  0.00  0.00     0.016 A 
ATOM     12  C   UNL d   1      59.250  49.706  52.279  0.00  0.00     0.002 C 
ATOM     13  C   UNL d   1      60.607  49.703  51.823  0.00  0.00     0.001 A 
ATOM     14  C   UNL d   1      61.154  49.700  51.203  0.00  0.00     0.000 A 
ATOM     15  C   UNL d   1      60.888  49.698  50.422  0.00  0.00     0.002 A 
ATOM     16  C   UNL d   1      60.072  49.699  50.253  0.00  0.00     0.018 A 
ENDBRANCH   1  10
TORSDOF 1
ENDMDL
