MODEL 1
REMARK VINA RESULT:      72.2      0.000      0.000
REMARK  4 active torsions:
REMARK  status: ('A' for Active; 'I' for Inactive)
REMARK    1  A    between atoms: C_6  and  C_1 
REMARK    2  A    between atoms: C_4  and  C_11 
REMARK    3  A    between atoms: N_8  and  C_6 
REMARK    4  A    between atoms: C_13  and  C_6 
ROOT
ATOM      1  C   UNL d   1      14.261  14.607  -2.532  0.00  0.00     0.067 C 
ENDROOT
BRANCH   1   2
ATOM      2  C   UNL d   1      14.394  13.893  -2.116  0.00  0.00     0.057 A 
ATOM      3  C   UNL d   1      14.900  13.877  -1.483  0.00  0.00     0.214 A 
ATOM      4  C   UNL d   1      15.042  13.176  -1.060  0.00  0.00     0.121 A 
ATOM      5  O   UNL d   1      15.284  14.597  -1.259  0.00  0.00    -0.285 OA
ATOM      6  N   UNL d   1      15.548  13.160  -0.426  0.00  0.00    -0.241 NA
ATOM      7  C   UNL d   1      14.658  12.484  -1.294  0.00  0.00     0.032 A 
ATOM      8  C   UNL d   1      15.679  12.471  -0.022  0.00  0.00     0.099 A 
ATOM      9  C   UNL d   1      15.295  11.779  -0.256  0.00  0.00     0.021 A 
ATOM     10  C   UNL d   1      14.781  11.780  -0.893  0.00  0.00     0.004 A 
ATOM     11  C   UNL d   1      14.133  12.497  -1.949  0.00  0.00     0.059 A 
ATOM     12  C   UNL d   1      14.010  13.201  -2.350  0.00  0.00     0.016 A 
ATOM     13 CL   UNL d   1      13.740  11.816  -2.199  0.00  0.00    -0.082 Cl
ENDBRANCH   1   2
BRANCH   1  14
ATOM     14  N   UNL d   1      13.888  14.610  -3.272  0.00  0.00    -0.301 N 
ATOM     15  C   UNL d   1      13.143  14.286  -3.388  0.00  0.00     0.100 A 
ATOM     16  C   UNL d   1      12.787  14.297  -4.128  0.00  0.00     0.100 A 
ATOM     17  N   UNL d   1      13.175  14.633  -4.756  0.00  0.00    -0.299 N 
ATOM     18  C   UNL d   1      13.932  14.966  -4.649  0.00  0.00     0.100 A 
ATOM     19  C   UNL d   1      12.801  14.635  -5.491  0.00  0.00     0.100 C 
ATOM     20  C   UNL d   1      14.280  14.954  -3.925  0.00  0.00     0.100 A 
ENDBRANCH   1  14
BRANCH   1  21
ATOM     21  C   UNL d   1      14.507  15.331  -2.199  0.00  0.00     0.016 A 
ATOM     22  C   UNL d   1      14.989  15.843  -2.631  0.00  0.00     0.001 A 
ATOM     23  C   UNL d   1      15.234  16.556  -2.312  0.00  0.00     0.004 A 
ATOM     24  C   UNL d   1      15.000  16.773  -1.547  0.00  0.00     0.071 A 
ATOM     25  C   UNL d   1      14.520  16.264  -1.118  0.00  0.00     0.004 A 
ATOM     26  C   UNL d   1      14.272  15.548  -1.435  0.00  0.00     0.001 A 
BRANCH  24  27
ATOM     27  C   UNL d   1      15.235  17.476  -1.219  0.00  0.00     0.419 C 
ATOM     28  F   UNL d   1      15.518  18.146  -0.854  0.00  0.00    -0.166 F 
ATOM     29  F   UNL d   1      14.861  18.235  -1.416  0.00  0.00    -0.166 F 
ATOM     30  F   UNL d   1      15.820  17.448  -0.710  0.00  0.00    -0.166 F 
ENDBRANCH  24  27
ENDBRANCH   1  21
TORSDOF 4
ENDMDL
