MODEL 1
REMARK VINA RESULT:      83.4      0.000      0.000
REMARK  11 active torsions:
REMARK  status: ('A' for Active; 'I' for Inactive)
REMARK    1  A    between atoms: C_7  and  C_1 
REMARK    2  A    between atoms: C_8  and  C_2 
REMARK    3  A    between atoms: S_9  and  C_3 
REMARK    4  A    between atoms: C_11  and  C_4 
REMARK    5  A    between atoms: O_20  and  C_7 
REMARK    6  A    between atoms: C_15  and  S_9 
REMARK    7  A    between atoms: C_12  and  C_15 
REMARK    8  A    between atoms: O_24  and  C_12 
REMARK    9  A    between atoms: C_18  and  C_26 
REMARK   10  A    between atoms: C_26  and  O_20 
REMARK   11  A    between atoms: C_27  and  O_24 
ROOT
ATOM      1  C   UNL d   1     -56.271 -99.698 -43.590  0.00  0.00     0.081 A 
ATOM      2  C   UNL d   1     -57.309 -99.885 -44.563  0.00  0.00     0.045 A 
ATOM      3  C   UNL d   1     -57.784 -99.311 -44.151  0.00  0.00     0.112 A 
ATOM      4  C   UNL d   1     -56.557-100.066 -44.270  0.00  0.00     0.010 A 
ATOM      5  C   UNL d   1     -56.733 -99.140 -43.189  0.00  0.00     0.087 A 
ATOM      6  N   UNL d   1     -57.480 -98.953 -43.471  0.00  0.00    -0.239 NA
ATOM      7  C   UNL d   1     -56.467 -98.757 -42.505  0.00  0.00     0.021 C 
ENDROOT
BRANCH   3   8
ATOM      8  S   UNL d   1     -58.565 -99.089 -44.410  0.00  0.00    -0.062 SA
BRANCH   8   9
ATOM      9  C   UNL d   1     -59.081 -98.764 -43.863  0.00  0.00     0.105 C 
BRANCH   9  10
ATOM     10  C   UNL d   1     -59.303 -99.217 -43.205  0.00  0.00     0.307 C 
ATOM     11  O   UNL d   1     -59.485-100.010 -43.295  0.00  0.00    -0.258 OA
BRANCH  10  12
ATOM     12  O   UNL d   1     -59.338 -98.868 -42.471  0.00  0.00    -0.271 OA
BRANCH  12  13
ATOM     13  C   UNL d   1     -59.714 -99.258 -41.852  0.00  0.00     0.126 C 
ATOM     14  C   UNL d   1     -59.949-100.038 -41.951  0.00  0.00     0.029 C 
ENDBRANCH  12  13
ENDBRANCH  10  12
ENDBRANCH   9  10
ENDBRANCH   8   9
ENDBRANCH   3   8
BRANCH   2  15
ATOM     15  C   UNL d   1     -57.581-100.276 -45.262  0.00  0.00     0.124 C 
ATOM     16  N   UNL d   1     -57.978 -99.853 -45.833  0.00  0.00    -0.146 N 
ENDBRANCH   2  15
BRANCH   4  17
ATOM     17  C   UNL d   1     -56.098-100.620 -44.668  0.00  0.00     0.000 A 
ATOM     18  C   UNL d   1     -55.388-100.378 -45.016  0.00  0.00     0.000 A 
ATOM     19  C   UNL d   1     -54.913-100.908 -45.417  0.00  0.00     0.000 A 
ATOM     20  C   UNL d   1     -55.169-101.741 -45.473  0.00  0.00     0.000 A 
ATOM     21  C   UNL d   1     -55.880-101.965 -45.120  0.00  0.00     0.000 A 
ATOM     22  C   UNL d   1     -54.717-102.303 -45.868  0.00  0.00     0.000 C 
ATOM     23  C   UNL d   1     -56.343-101.407 -44.719  0.00  0.00     0.000 A 
ENDBRANCH   4  17
BRANCH   1  24
ATOM     24  C   UNL d   1     -55.492 -99.900 -43.306  0.00  0.00     0.302 C 
ATOM     25  O   UNL d   1     -54.861 -99.383 -43.410  0.00  0.00    -0.259 OA
BRANCH  24  26
ATOM     26  O   UNL d   1     -55.387-100.617 -42.930  0.00  0.00    -0.271 OA
BRANCH  26  27
ATOM     27  C   UNL d   1     -54.903-100.677 -42.260  0.00  0.00     0.126 C 
BRANCH  27  28
ATOM     28  C   UNL d   1     -55.159-101.081 -41.595  0.00  0.00     0.027 C 
ATOM     29  C   UNL d   1     -54.750-101.741 -41.323  0.00  0.00     0.002 C 
ENDBRANCH  27  28
ENDBRANCH  26  27
ENDBRANCH  24  26
ENDBRANCH   1  24
TORSDOF 11
ENDMDL
