MODEL 1
REMARK VINA RESULT:      14.0      0.000      0.000
REMARK  2 active torsions:
REMARK  status: ('A' for Active; 'I' for Inactive)
REMARK    1  A    between atoms: C_2  and  C_1 
REMARK    2  A    between atoms: C_6  and  C_2 
ROOT
ATOM      1  C   UNL d   1     -51.220  25.890  33.340  0.00  0.00     0.059 A 
ATOM      2  C   UNL d   1     -51.056  26.689  33.375  0.00  0.00     0.106 A 
ATOM      3  C   UNL d   1     -50.618  25.339  33.316  0.00  0.00     0.011 A 
ATOM      4  C   UNL d   1     -50.286  26.948  33.387  0.00  0.00     0.021 A 
ATOM      5  C   UNL d   1     -49.815  25.601  33.329  0.00  0.00     0.035 A 
ATOM      6  N   UNL d   1     -51.680  27.228  33.397  0.00  0.00    -0.148 N 
ATOM      7  C   UNL d   1     -49.671  26.398  33.364  0.00  0.00     0.008 A 
ATOM      8 BR   UNL d   1     -49.208  25.057  33.306  0.00  0.00    -0.049 Br
ENDROOT
BRANCH   1   9
ATOM      9  C   UNL d   1     -52.010  25.629  33.327  0.00  0.00     0.197 C 
ATOM     10  O   UNL d   1     -52.662  26.136  33.306  0.00  0.00    -0.286 OA
BRANCH   9  11
ATOM     11  C   UNL d   1     -52.143  24.822  33.337  0.00  0.00     0.039 A 
ATOM     12  C   UNL d   1     -51.517  24.299  33.374  0.00  0.00     0.003 A 
ATOM     13  C   UNL d   1     -51.650  23.478  33.384  0.00  0.00     0.000 A 
ATOM     14  C   UNL d   1     -52.437  23.190  33.355  0.00  0.00     0.000 A 
ATOM     15  C   UNL d   1     -53.074  23.721  33.318  0.00  0.00     0.000 A 
ATOM     16  C   UNL d   1     -52.911  24.541  33.309  0.00  0.00     0.003 A 
ENDBRANCH   9  11
ENDBRANCH   1   9
TORSDOF 2
ENDMDL
