MODEL 1
REMARK VINA RESULT:      33.8      0.000      0.000
REMARK  2 active torsions:
REMARK  status: ('A' for Active; 'I' for Inactive)
REMARK    1  A    between atoms: C_6  and  C_1 
REMARK    2  A    between atoms: C_7  and  C_3 
ROOT
ATOM      1  C   UNL d   1      13.897  12.499  -2.269  0.00  0.00     0.081 A 
ATOM      2  N   UNL d   1      13.562  11.873  -2.678  0.00  0.00    -0.246 NA
ATOM      3  C   UNL d   1      13.875  13.161  -2.754  0.00  0.00     0.019 A 
ATOM      4  C   UNL d   1      13.527  12.944  -3.463  0.00  0.00     0.019 A 
ATOM      5  C   UNL d   1      13.331  12.150  -3.423  0.00  0.00     0.081 A 
ATOM      6  C   UNL d   1      13.365  13.384  -4.147  0.00  0.00     0.002 A 
ATOM      7  C   UNL d   1      12.969  11.781  -4.066  0.00  0.00     0.019 A 
ATOM      8  C   UNL d   1      13.001  13.007  -4.789  0.00  0.00     0.000 A 
ATOM      9  C   UNL d   1      12.803  12.205  -4.748  0.00  0.00     0.002 A 
ENDROOT
BRANCH   1  10
ATOM     10  C   UNL d   1      14.141  12.257  -1.513  0.00  0.00     0.018 A 
ATOM     11  C   UNL d   1      13.598  12.237  -0.902  0.00  0.00     0.002 A 
ATOM     12  C   UNL d   1      13.842  11.997  -0.154  0.00  0.00     0.000 A 
ATOM     13  C   UNL d   1      14.622  11.780  -0.019  0.00  0.00     0.000 A 
ATOM     14  C   UNL d   1      15.163  11.804  -0.643  0.00  0.00     0.000 A 
ATOM     15  C   UNL d   1      14.923  12.042  -1.386  0.00  0.00     0.002 A 
ENDBRANCH   1  10
BRANCH   3  16
ATOM     16  C   UNL d   1      14.160  13.914  -2.553  0.00  0.00     0.002 A 
ATOM     17  C   UNL d   1      14.657  14.014  -1.903  0.00  0.00     0.000 A 
ATOM     18  C   UNL d   1      14.936  14.759  -1.708  0.00  0.00     0.000 A 
ATOM     19  C   UNL d   1      14.722  15.424  -2.160  0.00  0.00     0.000 A 
ATOM     20  C   UNL d   1      14.220  15.325  -2.817  0.00  0.00     0.000 A 
ATOM     21  C   UNL d   1      13.940  14.571  -3.012  0.00  0.00     0.000 A 
ENDBRANCH   3  16
TORSDOF 2
ENDMDL
