MODEL 1
REMARK VINA RESULT:      -1.9      0.000      0.000
REMARK  8 active torsions:
REMARK  status: ('A' for Active; 'I' for Inactive)
REMARK    1  A    between atoms: C_5  and  C_1 
REMARK    2  A    between atoms: C_9  and  N_2 
REMARK    3  A    between atoms: C_8  and  C_5 
REMARK    4  A    between atoms: C_7  and  C_9 
REMARK       I    between atoms: N_12  and  C_7 
REMARK       I    between atoms: N_10  and  C_8 
REMARK    5  A    between atoms: C_20  and  N_10 
REMARK    6  A    between atoms: C_11  and  C_20 
REMARK    7  A    between atoms: C_23  and  N_12 
REMARK    8  A    between atoms: C_24  and  N_12 
ROOT
ATOM      1  C   UNL d   1      59.055  -0.012  29.819  0.00  0.00     0.063 A 
ATOM      2  N   UNL d   1      58.499   0.430  30.955  0.00  0.00    -0.300 N 
ATOM      3  C   UNL d   1      58.327   0.147  30.199  0.00  0.00     0.084 A 
ATOM      4  C   UNL d   1      59.664   0.175  30.344  0.00  0.00     0.021 A 
ATOM      5  C   UNL d   1      59.314   0.450  31.051  0.00  0.00     0.064 A 
ATOM      6  C   UNL d   1      60.477   0.134  30.280  0.00  0.00     0.002 A 
ATOM      7  C   UNL d   1      59.797   0.679  31.679  0.00  0.00     0.018 A 
ATOM      8  C   UNL d   1      60.963   0.363  30.911  0.00  0.00     0.000 A 
ATOM      9  C   UNL d   1      60.617   0.635  31.609  0.00  0.00     0.002 A 
ENDROOT
BRANCH   1  10
ATOM     10  C   UNL d   1      59.142  -0.304  29.055  0.00  0.00     0.254 C 
ATOM     11  O   UNL d   1      59.858  -0.192  28.655  0.00  0.00    -0.281 OA
BRANCH  10  12
ATOM     12  C   UNL d   1      58.524  -0.705  28.686  0.00  0.00     0.318 C 
ATOM     13  N   UNL d   1      58.595  -1.511  28.527  0.00  0.00    -0.202 NA
ATOM     14  O   UNL d   1      57.841  -0.294  28.480  0.00  0.00    -0.262 OA
BRANCH  13  15
ATOM     15  C   UNL d   1      59.276  -1.908  28.736  0.00  0.00     0.127 C 
BRANCH  15  16
ATOM     16  C   UNL d   1      59.312  -2.723  28.669  0.00  0.00     0.119 A 
ATOM     17  O   UNL d   1      58.693  -3.257  28.798  0.00  0.00    -0.304 OA
ATOM     18  C   UNL d   1      58.969  -4.026  28.669  0.00  0.00     0.123 A 
ATOM     19  C   UNL d   1      59.774  -3.974  28.455  0.00  0.00     0.029 A 
ATOM     20  C   UNL d   1      59.980  -3.182  28.456  0.00  0.00     0.028 A 
ENDBRANCH  15  16
ENDBRANCH  13  15
ENDBRANCH  10  12
ENDBRANCH   1  10
BRANCH   2  21
ATOM     21  C   UNL d   1      57.942   0.656  31.520  0.00  0.00     0.142 C 
BRANCH  21  22
ATOM     22  C   UNL d   1      57.283   0.189  31.660  0.00  0.00     0.282 C 
ATOM     23  N   UNL d   1      57.011   0.074  32.431  0.00  0.00    -0.271 N 
ATOM     24  O   UNL d   1      56.890  -0.169  31.026  0.00  0.00    -0.265 OA
BRANCH  23  25
ATOM     25  C   UNL d   1      56.346  -0.398  32.567  0.00  0.00     0.083 C 
ATOM     26  C   UNL d   1      55.643  -0.053  32.827  0.00  0.00     0.021 C 
ENDBRANCH  23  25
BRANCH  23  27
ATOM     27  C   UNL d   1      57.402   0.430  33.063  0.00  0.00     0.083 C 
ATOM     28  C   UNL d   1      56.996   0.593  33.757  0.00  0.00     0.021 C 
ENDBRANCH  23  27
ENDBRANCH  21  22
ENDBRANCH   2  21
TORSDOF 8
ENDMDL
MODEL 2
REMARK VINA RESULT:      -0.7      1.767      4.980
REMARK  8 active torsions:
REMARK  status: ('A' for Active; 'I' for Inactive)
REMARK    1  A    between atoms: C_5  and  C_1 
REMARK    2  A    between atoms: C_9  and  N_2 
REMARK    3  A    between atoms: C_8  and  C_5 
REMARK    4  A    between atoms: C_7  and  C_9 
REMARK       I    between atoms: N_12  and  C_7 
REMARK       I    between atoms: N_10  and  C_8 
REMARK    5  A    between atoms: C_20  and  N_10 
REMARK    6  A    between atoms: C_11  and  C_20 
REMARK    7  A    between atoms: C_23  and  N_12 
REMARK    8  A    between atoms: C_24  and  N_12 
ROOT
ATOM      1  C   UNL d   1      57.777  -0.889  30.617  0.00  0.00     0.063 A 
ATOM      2  N   UNL d   1      58.405  -1.602  29.673  0.00  0.00    -0.300 N 
ATOM      3  C   UNL d   1      58.132  -1.628  30.451  0.00  0.00     0.084 A 
ATOM      4  C   UNL d   1      57.836  -0.419  29.942  0.00  0.00     0.021 A 
ATOM      5  C   UNL d   1      58.228  -0.866  29.355  0.00  0.00     0.064 A 
ATOM      6  C   UNL d   1      57.592   0.344  29.779  0.00  0.00     0.002 A 
ATOM      7  C   UNL d   1      58.365  -0.530  28.614  0.00  0.00     0.018 A 
ATOM      8  C   UNL d   1      57.729   0.682  29.035  0.00  0.00     0.000 A 
ATOM      9  C   UNL d   1      58.117   0.239  28.455  0.00  0.00     0.002 A 
ENDROOT
BRANCH   1  10
ATOM     10  C   UNL d   1      57.431  -0.674  31.332  0.00  0.00     0.254 C 
ATOM     11  O   UNL d   1      57.719  -0.017  31.743  0.00  0.00    -0.281 OA
BRANCH  10  12
ATOM     12  C   UNL d   1      56.802  -1.108  31.640  0.00  0.00     0.318 C 
ATOM     13  N   UNL d   1      56.414  -0.843  32.319  0.00  0.00    -0.202 NA
ATOM     14  O   UNL d   1      56.567  -1.802  31.266  0.00  0.00    -0.262 OA
BRANCH  13  15
ATOM     15  C   UNL d   1      56.655  -0.153  32.682  0.00  0.00     0.127 C 
BRANCH  15  16
ATOM     16  C   UNL d   1      56.289   0.097  33.369  0.00  0.00     0.119 A 
ATOM     17  O   UNL d   1      56.559  -0.019  34.143  0.00  0.00    -0.304 OA
ATOM     18  C   UNL d   1      56.020   0.323  34.670  0.00  0.00     0.123 A 
ATOM     19  C   UNL d   1      55.403   0.660  34.219  0.00  0.00     0.029 A 
ATOM     20  C   UNL d   1      55.569   0.521  33.430  0.00  0.00     0.028 A 
ENDBRANCH  15  16
ENDBRANCH  13  15
ENDBRANCH  10  12
ENDBRANCH   1  10
BRANCH   2  21
ATOM     21  C   UNL d   1      58.793  -2.216  29.281  0.00  0.00     0.142 C 
BRANCH  21  22
ATOM     22  C   UNL d   1      59.487  -2.528  29.585  0.00  0.00     0.282 C 
ATOM     23  N   UNL d   1      59.736  -3.282  29.363  0.00  0.00    -0.271 N 
ATOM     24  O   UNL d   1      59.938  -2.084  30.118  0.00  0.00    -0.265 OA
BRANCH  23  25
ATOM     25  C   UNL d   1      60.437  -3.593  29.674  0.00  0.00     0.083 C 
ATOM     26  C   UNL d   1      61.132  -3.151  29.639  0.00  0.00     0.021 C 
ENDBRANCH  23  25
BRANCH  23  27
ATOM     27  C   UNL d   1      59.287  -3.725  28.833  0.00  0.00     0.083 C 
ATOM     28  C   UNL d   1      59.284  -4.544  28.882  0.00  0.00     0.021 C 
ENDBRANCH  23  27
ENDBRANCH  21  22
ENDBRANCH   2  21
TORSDOF 8
ENDMDL
