MODEL 1
REMARK VINA RESULT:      18.9      0.000      0.000
REMARK  4 active torsions:
REMARK  status: ('A' for Active; 'I' for Inactive)
REMARK    1  A    between atoms: C_2  and  S_1 
REMARK    2  A    between atoms: N_3  and  S_1 
REMARK    3  A    between atoms: C_4  and  N_3 
REMARK    4  A    between atoms: O_12  and  C_10 
ROOT
ATOM      1  N   UNL d   1     -50.730  25.339  33.341  0.00  0.00    -0.156 NA
ENDROOT
BRANCH   1   2
ATOM      2  S   UNL d   1     -51.378  24.778  33.346  0.00  0.00     0.291 S 
ATOM      3  O   UNL d   1     -50.832  24.155  33.384  0.00  0.00    -0.198 OA
ATOM      4  O   UNL d   1     -51.920  25.404  33.309  0.00  0.00    -0.198 OA
BRANCH   2   5
ATOM      5  C   UNL d   1     -52.006  24.236  33.352  0.00  0.00     0.135 A 
ATOM      6  S   UNL d   1     -52.009  23.422  33.388  0.00  0.00    -0.073 SA
ATOM      7  C   UNL d   1     -52.782  23.192  33.375  0.00  0.00     0.036 A 
ATOM      8  C   UNL d   1     -53.243  23.838  33.332  0.00  0.00     0.008 A 
ATOM      9  C   UNL d   1     -52.788  24.509  33.316  0.00  0.00     0.020 A 
ENDBRANCH   2   5
ENDBRANCH   1   2
BRANCH   1  10
ATOM     10  C   UNL d   1     -50.896  26.177  33.419  0.00  0.00     0.116 A 
ATOM     11  C   UNL d   1     -50.242  26.740  33.475  0.00  0.00     0.112 A 
ATOM     12  C   UNL d   1     -50.366  27.504  33.547  0.00  0.00     0.026 A 
ATOM     13  C   UNL d   1     -51.140  27.811  33.573  0.00  0.00     0.002 A 
ATOM     14  C   UNL d   1     -51.780  27.295  33.521  0.00  0.00     0.002 A 
ATOM     15  C   UNL d   1     -51.647  26.470  33.444  0.00  0.00     0.022 A 
BRANCH  11  16
ATOM     16  O   UNL d   1     -49.441  26.474  33.454  0.00  0.00    -0.327 OA
ATOM     17  C   UNL d   1     -48.859  26.889  33.828  0.00  0.00     0.181 C 
ENDBRANCH  11  16
ENDBRANCH   1  10
TORSDOF 4
ENDMDL
MODEL 2
REMARK VINA RESULT:      20.3      1.221      3.696
REMARK  4 active torsions:
REMARK  status: ('A' for Active; 'I' for Inactive)
REMARK    1  A    between atoms: C_2  and  S_1 
REMARK    2  A    between atoms: N_3  and  S_1 
REMARK    3  A    between atoms: C_4  and  N_3 
REMARK    4  A    between atoms: O_12  and  C_10 
ROOT
ATOM      1  N   UNL d   1     -52.192  25.543  33.800  0.00  0.00    -0.156 NA
ENDROOT
BRANCH   1   2
ATOM      2  S   UNL d   1     -51.673  26.214  33.670  0.00  0.00     0.291 S 
ATOM      3  O   UNL d   1     -52.248  26.715  33.996  0.00  0.00    -0.198 OA
ATOM      4  O   UNL d   1     -51.102  25.708  33.345  0.00  0.00    -0.198 OA
BRANCH   2   5
ATOM      5  C   UNL d   1     -51.170  26.861  33.545  0.00  0.00     0.135 A 
ATOM      6  S   UNL d   1     -51.336  27.640  33.371  0.00  0.00    -0.073 SA
ATOM      7  C   UNL d   1     -50.626  28.019  33.310  0.00  0.00     0.036 A 
ATOM      8  C   UNL d   1     -50.042  27.497  33.442  0.00  0.00     0.008 A 
ATOM      9  C   UNL d   1     -50.349  26.761  33.592  0.00  0.00     0.020 A 
ENDBRANCH   2   5
ENDBRANCH   1   2
BRANCH   1  10
ATOM     10  C   UNL d   1     -51.909  24.752  33.631  0.00  0.00     0.116 A 
ATOM     11  C   UNL d   1     -52.474  24.102  33.550  0.00  0.00     0.112 A 
ATOM     12  C   UNL d   1     -52.242  23.376  33.397  0.00  0.00     0.026 A 
ATOM     13  C   UNL d   1     -51.435  23.194  33.306  0.00  0.00     0.002 A 
ATOM     14  C   UNL d   1     -50.877  23.796  33.379  0.00  0.00     0.002 A 
ATOM     15  C   UNL d   1     -51.125  24.580  33.543  0.00  0.00     0.022 A 
BRANCH  11  16
ATOM     16  O   UNL d   1     -53.303  24.239  33.634  0.00  0.00    -0.327 OA
ATOM     17  C   UNL d   1     -53.835  23.652  33.479  0.00  0.00     0.181 C 
ENDBRANCH  11  16
ENDBRANCH   1  10
TORSDOF 4
ENDMDL
