MODEL 1
REMARK VINA RESULT:      -9.1      0.000      0.000
REMARK  3 active torsions:
REMARK  status: ('A' for Active; 'I' for Inactive)
REMARK       I    between atoms: N_2  and  C_1 
REMARK    1  A    between atoms: C_3  and  C_1 
REMARK    2  A    between atoms: C_6  and  N_2 
REMARK    3  A    between atoms: C_5  and  C_4 
ROOT
ATOM      1  C   UNL d   1      52.925  33.461  54.029  0.00  0.00     0.279 C 
ATOM      2  N   UNL d   1      52.619  34.113  53.617  0.00  0.00    -0.207 NA
ATOM      3  O   UNL d   1      52.513  32.748  54.033  0.00  0.00    -0.265 OA
ENDROOT
BRANCH   1   4
ATOM      4  C   UNL d   1      53.641  33.532  54.434  0.00  0.00     0.064 A 
ATOM      5  C   UNL d   1      54.224  32.963  54.333  0.00  0.00     0.069 A 
ATOM      6  C   UNL d   1      54.947  33.022  54.734  0.00  0.00     0.006 A 
ATOM      7  C   UNL d   1      55.067  33.667  55.236  0.00  0.00     0.000 A 
ATOM      8  C   UNL d   1      54.485  34.236  55.337  0.00  0.00     0.000 A 
ATOM      9  C   UNL d   1      53.773  34.169  54.937  0.00  0.00     0.005 A 
BRANCH   5  10
ATOM     10  C   UNL d   1      54.093  32.320  53.827  0.00  0.00     0.211 C 
ATOM     11  O   UNL d   1      53.711  31.640  54.109  0.00  0.00    -0.644 OA
ATOM     12  O   UNL d   1      54.344  32.359  53.041  0.00  0.00    -0.644 OA
ENDBRANCH   5  10
ENDBRANCH   1   4
BRANCH   2  13
ATOM     13  C   UNL d   1      51.903  34.048  53.210  0.00  0.00     0.095 A 
ATOM     14  C   UNL d   1      51.822  34.377  52.463  0.00  0.00     0.075 A 
ATOM     15 CL   UNL d   1      52.456  34.774  52.117  0.00  0.00    -0.081 Cl
ATOM     16  C   UNL d   1      51.111  34.312  52.060  0.00  0.00     0.013 A 
ATOM     17  C   UNL d   1      50.470  33.913  52.405  0.00  0.00     0.001 A 
ATOM     18  C   UNL d   1      50.556  33.583  53.157  0.00  0.00     0.002 A 
ATOM     19  C   UNL d   1      51.274  33.651  53.560  0.00  0.00     0.020 A 
ENDBRANCH   2  13
TORSDOF 3
ENDMDL
MODEL 2
REMARK VINA RESULT:      -9.0      1.538      2.370
REMARK  3 active torsions:
REMARK  status: ('A' for Active; 'I' for Inactive)
REMARK       I    between atoms: N_2  and  C_1 
REMARK    1  A    between atoms: C_3  and  C_1 
REMARK    2  A    between atoms: C_6  and  N_2 
REMARK    3  A    between atoms: C_5  and  C_4 
ROOT
ATOM      1  C   UNL d   1      52.777  32.265  53.036  0.00  0.00     0.279 C 
ATOM      2  N   UNL d   1      51.967  32.443  53.032  0.00  0.00    -0.207 NA
ATOM      3  O   UNL d   1      53.326  32.854  52.865  0.00  0.00    -0.265 OA
ENDROOT
BRANCH   1   4
ATOM      4  C   UNL d   1      53.027  31.498  53.212  0.00  0.00     0.064 A 
ATOM      5  C   UNL d   1      53.638  31.382  53.749  0.00  0.00     0.069 A 
ATOM      6  C   UNL d   1      53.898  30.617  53.933  0.00  0.00     0.006 A 
ATOM      7  C   UNL d   1      53.531  29.976  53.565  0.00  0.00     0.000 A 
ATOM      8  C   UNL d   1      52.920  30.092  53.029  0.00  0.00     0.000 A 
ATOM      9  C   UNL d   1      52.669  30.851  52.852  0.00  0.00     0.005 A 
BRANCH   5  10
ATOM     10  C   UNL d   1      54.000  32.032  54.112  0.00  0.00     0.211 C 
ATOM     11  O   UNL d   1      53.738  32.292  54.854  0.00  0.00    -0.644 OA
ATOM     12  O   UNL d   1      54.623  32.419  53.733  0.00  0.00    -0.644 OA
ENDBRANCH   5  10
ENDBRANCH   1   4
BRANCH   2  13
ATOM     13  C   UNL d   1      51.711  33.208  52.857  0.00  0.00     0.095 A 
ATOM     14  C   UNL d   1      51.006  33.489  53.170  0.00  0.00     0.075 A 
ATOM     15 CL   UNL d   1      50.553  33.006  53.661  0.00  0.00    -0.081 Cl
ATOM     16  C   UNL d   1      50.752  34.248  52.996  0.00  0.00     0.013 A 
ATOM     17  C   UNL d   1      51.206  34.737  52.502  0.00  0.00     0.001 A 
ATOM     18  C   UNL d   1      51.914  34.451  52.189  0.00  0.00     0.002 A 
ATOM     19  C   UNL d   1      52.166  33.685  52.367  0.00  0.00     0.020 A 
ENDBRANCH   2  13
TORSDOF 3
ENDMDL
MODEL 3
REMARK VINA RESULT:      -8.9      1.983      3.722
REMARK  3 active torsions:
REMARK  status: ('A' for Active; 'I' for Inactive)
REMARK       I    between atoms: N_2  and  C_1 
REMARK    1  A    between atoms: C_3  and  C_1 
REMARK    2  A    between atoms: C_6  and  N_2 
REMARK    3  A    between atoms: C_5  and  C_4 
ROOT
ATOM      1  C   UNL d   1      53.839  31.902  53.618  0.00  0.00     0.279 C 
ATOM      2  N   UNL d   1      54.107  32.059  54.387  0.00  0.00    -0.207 NA
ATOM      3  O   UNL d   1      53.990  32.440  53.013  0.00  0.00    -0.265 OA
ENDROOT
BRANCH   1   4
ATOM      4  C   UNL d   1      53.422  31.207  53.463  0.00  0.00     0.064 A 
ATOM      5  C   UNL d   1      52.685  31.245  53.102  0.00  0.00     0.069 A 
ATOM      6  C   UNL d   1      52.257  30.554  52.942  0.00  0.00     0.006 A 
ATOM      7  C   UNL d   1      52.587  29.828  53.153  0.00  0.00     0.000 A 
ATOM      8  C   UNL d   1      53.323  29.789  53.514  0.00  0.00     0.000 A 
ATOM      9  C   UNL d   1      53.740  30.477  53.669  0.00  0.00     0.005 A 
BRANCH   5  10
ATOM     10  C   UNL d   1      52.363  31.979  52.894  0.00  0.00     0.211 C 
ATOM     11  O   UNL d   1      51.823  32.354  53.399  0.00  0.00    -0.644 OA
ATOM     12  O   UNL d   1      52.581  32.336  52.182  0.00  0.00    -0.644 OA
ENDBRANCH   5  10
ENDBRANCH   1   4
BRANCH   2  13
ATOM     13  C   UNL d   1      54.525  32.753  54.547  0.00  0.00     0.095 A 
ATOM     14  C   UNL d   1      54.475  33.104  55.288  0.00  0.00     0.075 A 
ATOM     15 CL   UNL d   1      54.006  32.762  55.873  0.00  0.00    -0.081 Cl
ATOM     16  C   UNL d   1      54.890  33.792  55.446  0.00  0.00     0.013 A 
ATOM     17  C   UNL d   1      55.363  34.139  54.858  0.00  0.00     0.001 A 
ATOM     18  C   UNL d   1      55.411  33.784  54.115  0.00  0.00     0.002 A 
ATOM     19  C   UNL d   1      54.991  33.090  53.959  0.00  0.00     0.020 A 
ENDBRANCH   2  13
TORSDOF 3
ENDMDL
MODEL 4
REMARK VINA RESULT:      -8.5      2.039      3.071
REMARK  3 active torsions:
REMARK  status: ('A' for Active; 'I' for Inactive)
REMARK       I    between atoms: N_2  and  C_1 
REMARK    1  A    between atoms: C_3  and  C_1 
REMARK    2  A    between atoms: C_6  and  N_2 
REMARK    3  A    between atoms: C_5  and  C_4 
ROOT
ATOM      1  C   UNL d   1      53.650  32.339  53.788  0.00  0.00     0.279 C 
ATOM      2  N   UNL d   1      53.654  31.581  54.123  0.00  0.00    -0.207 NA
ATOM      3  O   UNL d   1      53.375  32.447  53.020  0.00  0.00    -0.265 OA
ENDROOT
BRANCH   1   4
ATOM      4  C   UNL d   1      53.922  32.983  54.229  0.00  0.00     0.064 A 
ATOM      5  C   UNL d   1      53.479  33.673  54.259  0.00  0.00     0.069 A 
ATOM      6  C   UNL d   1      53.741  34.326  54.697  0.00  0.00     0.006 A 
ATOM      7  C   UNL d   1      54.458  34.266  55.102  0.00  0.00     0.000 A 
ATOM      8  C   UNL d   1      54.902  33.576  55.072  0.00  0.00     0.000 A 
ATOM      9  C   UNL d   1      54.635  32.935  54.637  0.00  0.00     0.005 A 
BRANCH   5  10
ATOM     10  C   UNL d   1      52.761  33.723  53.848  0.00  0.00     0.211 C 
ATOM     11  O   UNL d   1      52.056  33.485  54.214  0.00  0.00    -0.644 OA
ATOM     12  O   UNL d   1      52.750  34.010  53.074  0.00  0.00    -0.644 OA
ENDBRANCH   5  10
ENDBRANCH   1   4
BRANCH   2  13
ATOM     13  C   UNL d   1      53.383  30.933  53.687  0.00  0.00     0.095 A 
ATOM     14  C   UNL d   1      53.209  30.225  54.065  0.00  0.00     0.075 A 
ATOM     15 CL   UNL d   1      53.306  30.160  54.880  0.00  0.00    -0.081 Cl
ATOM     16  C   UNL d   1      52.940  29.584  53.632  0.00  0.00     0.013 A 
ATOM     17  C   UNL d   1      52.842  29.646  52.810  0.00  0.00     0.001 A 
ATOM     18  C   UNL d   1      53.018  30.359  52.434  0.00  0.00     0.002 A 
ATOM     19  C   UNL d   1      53.289  31.004  52.874  0.00  0.00     0.020 A 
ENDBRANCH   2  13
TORSDOF 3
ENDMDL
