MODEL 1
REMARK VINA RESULT:       2.2      0.000      0.000
REMARK  6 active torsions:
REMARK  status: ('A' for Active; 'I' for Inactive)
REMARK    1  A    between atoms: C_11  and  N_3 
REMARK    2  A    between atoms: C_10  and  C_4 
REMARK    3  A    between atoms: C_18  and  C_11 
REMARK    4  A    between atoms: O_21  and  C_13 
REMARK    5  A    between atoms: O_22  and  C_15 
REMARK    6  A    between atoms: C_23  and  C_18 
ROOT
ATOM      1  N   UNL d   1     -41.672-122.534 -51.383  0.00  0.00    -0.122 N 
ATOM      2  C   UNL d   1     -41.673-122.670 -52.199  0.00  0.00     0.741 A 
ATOM      3  N   UNL d   1     -41.489-122.046 -52.727  0.00  0.00    -0.103 N 
ATOM      4  C   UNL d   1     -41.872-123.242 -51.001  0.00  0.00     0.185 A 
ATOM      5  C   UNL d   1     -41.305-121.296 -52.431  0.00  0.00     0.280 A 
ATOM      6  N   UNL d   1     -41.873-123.458 -52.328  0.00  0.00     0.045 NA
ATOM      7  C   UNL d   1     -41.488-121.781 -51.085  0.00  0.00     0.087 A 
ATOM      8  N   UNL d   1     -41.998-123.817 -51.585  0.00  0.00    -0.114 NA
ATOM      9  C   UNL d   1     -41.307-121.172 -51.611  0.00  0.00     0.074 A 
ATOM     10  O   UNL d   1     -41.124-120.681 -52.950  0.00  0.00    -0.266 OA
ATOM     11  C   UNL d   1     -41.124-120.420 -51.311  0.00  0.00     0.006 A 
ATOM     12  C   UNL d   1     -41.487-121.648 -50.272  0.00  0.00     0.018 A 
ATOM     13  C   UNL d   1     -41.123-120.286 -50.499  0.00  0.00     0.000 A 
ATOM     14  C   UNL d   1     -41.305-120.901 -49.980  0.00  0.00     0.002 A 
ENDROOT
BRANCH   4  15
ATOM     15  C   UNL d   1     -41.936-123.356 -50.185  0.00  0.00     0.039 A 
ATOM     16  C   UNL d   1     -42.661-123.291 -49.820  0.00  0.00     0.029 A 
ATOM     17  C   UNL d   1     -42.727-123.404 -49.008  0.00  0.00     0.116 A 
ATOM     18  C   UNL d   1     -42.050-123.586 -48.560  0.00  0.00     0.116 A 
ATOM     19  C   UNL d   1     -41.317-123.651 -48.933  0.00  0.00     0.026 A 
ATOM     20  C   UNL d   1     -41.253-123.537 -49.750  0.00  0.00     0.005 A 
BRANCH  17  21
ATOM     21  O   UNL d   1     -43.455-123.338 -48.646  0.00  0.00    -0.326 OA
ATOM     22  C   UNL d   1     -44.086-123.817 -48.885  0.00  0.00     0.181 C 
ENDBRANCH  17  21
BRANCH  18  23
ATOM     23  O   UNL d   1     -42.117-123.699 -47.747  0.00  0.00    -0.326 OA
ATOM     24  C   UNL d   1     -41.516-123.431 -47.246  0.00  0.00     0.181 C 
ENDBRANCH  18  23
ENDBRANCH   4  15
BRANCH   3  25
ATOM     25  C   UNL d   1     -41.489-122.179 -53.540  0.00  0.00     0.101 C 
BRANCH  25  26
ATOM     26  C   UNL d   1     -42.206-122.270 -53.939  0.00  0.00     0.020 C 
BRANCH  26  27
ATOM     27  C   UNL d   1     -42.244-122.170 -54.762  0.00  0.00     0.002 A 
ATOM     28  C   UNL d   1     -42.956-121.952 -55.118  0.00  0.00     0.000 A 
ATOM     29  C   UNL d   1     -42.990-121.855 -55.923  0.00  0.00     0.000 A 
ATOM     30  C   UNL d   1     -42.325-121.973 -56.372  0.00  0.00     0.000 A 
ATOM     31  C   UNL d   1     -41.613-122.190 -56.026  0.00  0.00     0.000 A 
ATOM     32  C   UNL d   1     -41.580-122.287 -55.211  0.00  0.00     0.000 A 
ENDBRANCH  26  27
ENDBRANCH  25  26
ENDBRANCH   3  25
TORSDOF 6
ENDMDL
