MODEL 1
REMARK VINA RESULT:      60.8      0.000      0.000
REMARK  3 active torsions:
REMARK  status: ('A' for Active; 'I' for Inactive)
REMARK       I    between atoms: N_2  and  C_1 
REMARK    1  A    between atoms: C_3  and  C_1 
REMARK    2  A    between atoms: C_8  and  N_2 
REMARK    3  A    between atoms: C_7  and  C_6 
ROOT
ATOM      1  C   UNL d   1      59.721  49.269  50.744  0.00  0.00     0.279 C 
ATOM      2  N   UNL d   1      59.953  49.671  51.424  0.00  0.00    -0.208 NA
ATOM      3  O   UNL d   1      60.256  48.751  50.381  0.00  0.00    -0.265 OA
ENDROOT
BRANCH   1   4
ATOM      4  C   UNL d   1      58.968  49.373  50.416  0.00  0.00     0.058 A 
ATOM      5  C   UNL d   1      58.290  49.282  50.892  0.00  0.00     0.005 A 
ATOM      6  C   UNL d   1      57.560  49.390  50.545  0.00  0.00     0.000 A 
ATOM      7  C   UNL d   1      56.876  49.301  51.012  0.00  0.00     0.000 A 
ATOM      8  C   UNL d   1      57.486  49.585  49.739  0.00  0.00     0.000 A 
ATOM      9  C   UNL d   1      56.130  49.411  50.660  0.00  0.00     0.000 A 
ATOM     10  C   UNL d   1      56.069  49.604  49.860  0.00  0.00     0.000 A 
ATOM     11  C   UNL d   1      56.745  49.691  49.402  0.00  0.00     0.000 A 
ATOM     12  C   UNL d   1      58.154  49.672  49.282  0.00  0.00     0.000 A 
ATOM     13  C   UNL d   1      58.908  49.567  49.617  0.00  0.00     0.005 A 
ENDBRANCH   1   4
BRANCH   2  14
ATOM     14  C   UNL d   1      60.708  49.564  51.749  0.00  0.00     0.085 A 
ATOM     15  C   UNL d   1      60.831  49.648  52.543  0.00  0.00     0.022 A 
ATOM     16  C   UNL d   1      61.581  49.542  52.860  0.00  0.00     0.041 A 
ATOM     17  C   UNL d   1      62.231  49.348  52.394  0.00  0.00     0.003 A 
ATOM     18  C   UNL d   1      62.118  49.260  51.581  0.00  0.00     0.002 A 
ATOM     19  C   UNL d   1      61.368  49.363  51.234  0.00  0.00     0.019 A 
BRANCH  16  20
ATOM     20  C   UNL d   1      61.689  49.633  53.694  0.00  0.00     0.196 C 
ATOM     21  O   UNL d   1      61.041  49.707  54.187  0.00  0.00    -0.287 OA
ATOM     22  C   UNL d   1      62.453  49.648  53.997  0.00  0.00     0.045 C 
ENDBRANCH  16  20
ENDBRANCH   2  14
TORSDOF 3
ENDMDL
