MODEL 1
REMARK VINA RESULT:      -5.7      0.000      0.000
REMARK  7 active torsions:
REMARK  status: ('A' for Active; 'I' for Inactive)
REMARK    1  A    between atoms: C_6  and  N_2 
REMARK    2  A    between atoms: C_7  and  C_3 
REMARK    3  A    between atoms: C_12  and  C_6 
REMARK    4  A    between atoms: C_21  and  C_7 
REMARK    5  A    between atoms: C_9  and  O_11 
REMARK    6  A    between atoms: O_11  and  C_12 
REMARK    7  A    between atoms: C_19  and  C_21 
ROOT
ATOM      1  N   UNL d   1     -39.341  14.490  17.081  0.00  0.00    -0.227 NA
ATOM      2  N   UNL d   1     -40.090  14.399  18.212  0.00  0.00    -0.287 N 
ATOM      3  C   UNL d   1     -39.396  14.129  17.833  0.00  0.00     0.148 A 
ATOM      4  C   UNL d   1     -40.466  14.932  17.688  0.00  0.00     0.083 A 
ATOM      5  C   UNL d   1     -40.009  14.986  17.000  0.00  0.00     0.099 A 
ATOM      6  C   UNL d   1     -41.164  15.374  17.749  0.00  0.00     0.019 A 
ATOM      7  C   UNL d   1     -40.244  15.474  16.380  0.00  0.00     0.021 A 
ATOM      8  C   UNL d   1     -41.400  15.863  17.128  0.00  0.00     0.002 A 
ATOM      9  C   UNL d   1     -40.939  15.913  16.443  0.00  0.00     0.002 A 
ENDROOT
BRANCH   2  10
ATOM     10  C   UNL d   1     -40.359  14.186  18.959  0.00  0.00     0.108 C 
BRANCH  10  11
ATOM     11  C   UNL d   1     -40.027  14.526  19.639  0.00  0.00     0.142 C 
BRANCH  11  12
ATOM     12  O   UNL d   1     -40.334  14.344  20.377  0.00  0.00    -0.304 OA
BRANCH  12  13
ATOM     13  C   UNL d   1     -39.922  14.556  21.057  0.00  0.00     0.100 A 
ATOM     14  C   UNL d   1     -39.525  13.982  21.488  0.00  0.00     0.025 A 
ATOM     15  C   UNL d   1     -39.111  14.192  22.171  0.00  0.00     0.002 A 
ATOM     16  C   UNL d   1     -38.711  13.615  22.605  0.00  0.00     0.000 C 
ATOM     17  C   UNL d   1     -39.098  14.983  22.421  0.00  0.00     0.000 A 
ATOM     18  C   UNL d   1     -39.502  15.559  21.980  0.00  0.00     0.002 A 
ATOM     19  C   UNL d   1     -39.914  15.347  21.300  0.00  0.00     0.025 A 
ENDBRANCH  12  13
ENDBRANCH  11  12
ENDBRANCH  10  11
ENDBRANCH   2  10
BRANCH   3  20
ATOM     20  C   UNL d   1     -38.701  13.690  17.770  0.00  0.00     0.041 C 
BRANCH  20  21
ATOM     21  C   UNL d   1     -38.738  12.870  17.690  0.00  0.00     0.049 C 
BRANCH  21  22
ATOM     22  C   UNL d   1     -38.042  12.429  17.654  0.00  0.00     0.234 C 
ATOM     23  O   UNL d   1     -38.059  11.619  17.800  0.00  0.00    -0.283 OA
ENDBRANCH  21  22
ENDBRANCH  20  21
ENDBRANCH   3  20
TORSDOF 7
ENDMDL
MODEL 2
REMARK VINA RESULT:      -5.5      8.860      9.799
REMARK  7 active torsions:
REMARK  status: ('A' for Active; 'I' for Inactive)
REMARK    1  A    between atoms: C_6  and  N_2 
REMARK    2  A    between atoms: C_7  and  C_3 
REMARK    3  A    between atoms: C_12  and  C_6 
REMARK    4  A    between atoms: C_21  and  C_7 
REMARK    5  A    between atoms: C_9  and  O_11 
REMARK    6  A    between atoms: O_11  and  C_12 
REMARK    7  A    between atoms: C_19  and  C_21 
ROOT
ATOM      1  N   UNL d   1     -50.209  13.973  22.177  0.00  0.00    -0.227 NA
ATOM      2  N   UNL d   1     -49.019  14.528  22.531  0.00  0.00    -0.287 N 
ATOM      3  C   UNL d   1     -49.380  13.922  22.083  0.00  0.00     0.148 A 
ATOM      4  C   UNL d   1     -49.634  14.958  22.904  0.00  0.00     0.083 A 
ATOM      5  C   UNL d   1     -50.356  14.619  22.687  0.00  0.00     0.099 A 
ATOM      6  C   UNL d   1     -49.625  15.612  23.412  0.00  0.00     0.019 A 
ATOM      7  C   UNL d   1     -51.064  14.927  22.973  0.00  0.00     0.021 A 
ATOM      8  C   UNL d   1     -50.334  15.922  23.698  0.00  0.00     0.002 A 
ATOM      9  C   UNL d   1     -51.054  15.579  23.479  0.00  0.00     0.002 A 
ENDROOT
BRANCH   2  10
ATOM     10  C   UNL d   1     -48.215  14.681  22.597  0.00  0.00     0.108 C 
BRANCH  10  11
ATOM     11  C   UNL d   1     -47.694  14.089  22.859  0.00  0.00     0.142 C 
BRANCH  11  12
ATOM     12  O   UNL d   1     -46.888  14.235  22.874  0.00  0.00    -0.304 OA
BRANCH  12  13
ATOM     13  C   UNL d   1     -46.357  13.607  22.858  0.00  0.00     0.100 A 
ATOM     14  C   UNL d   1     -45.745  13.605  22.310  0.00  0.00     0.025 A 
ATOM     15  C   UNL d   1     -45.211  12.976  22.292  0.00  0.00     0.002 A 
ATOM     16  C   UNL d   1     -44.595  12.973  21.742  0.00  0.00     0.000 C 
ATOM     17  C   UNL d   1     -45.292  12.346  22.826  0.00  0.00     0.000 A 
ATOM     18  C   UNL d   1     -45.913  12.355  23.377  0.00  0.00     0.002 A 
ATOM     19  C   UNL d   1     -46.444  12.983  23.394  0.00  0.00     0.025 A 
ENDBRANCH  12  13
ENDBRANCH  11  12
ENDBRANCH  10  11
ENDBRANCH   2  10
BRANCH   3  20
ATOM     20  C   UNL d   1     -49.390  13.270  21.578  0.00  0.00     0.041 C 
BRANCH  20  21
ATOM     21  C   UNL d   1     -49.716  12.557  21.833  0.00  0.00     0.049 C 
BRANCH  21  22
ATOM     22  C   UNL d   1     -49.533  11.857  21.438  0.00  0.00     0.234 C 
ATOM     23  O   UNL d   1     -49.157  11.243  21.837  0.00  0.00    -0.283 OA
ENDBRANCH  21  22
ENDBRANCH  20  21
ENDBRANCH   3  20
TORSDOF 7
ENDMDL
MODEL 3
REMARK VINA RESULT:      -4.6      1.521      2.797
REMARK  7 active torsions:
REMARK  status: ('A' for Active; 'I' for Inactive)
REMARK    1  A    between atoms: C_6  and  N_2 
REMARK    2  A    between atoms: C_7  and  C_3 
REMARK    3  A    between atoms: C_12  and  C_6 
REMARK    4  A    between atoms: C_21  and  C_7 
REMARK    5  A    between atoms: C_9  and  O_11 
REMARK    6  A    between atoms: O_11  and  C_12 
REMARK    7  A    between atoms: C_19  and  C_21 
ROOT
ATOM      1  N   UNL d   1     -39.420  14.058  16.983  0.00  0.00    -0.227 NA
ATOM      2  N   UNL d   1     -38.818  14.628  18.061  0.00  0.00    -0.287 N 
ATOM      3  C   UNL d   1     -39.337  14.766  17.421  0.00  0.00     0.148 A 
ATOM      4  C   UNL d   1     -38.578  13.826  18.016  0.00  0.00     0.083 A 
ATOM      5  C   UNL d   1     -38.945  13.483  17.359  0.00  0.00     0.099 A 
ATOM      6  C   UNL d   1     -38.074  13.369  18.488  0.00  0.00     0.019 A 
ATOM      7  C   UNL d   1     -38.813  12.691  17.174  0.00  0.00     0.021 A 
ATOM      8  C   UNL d   1     -37.940  12.577  18.302  0.00  0.00     0.002 A 
ATOM      9  C   UNL d   1     -38.310  12.237  17.645  0.00  0.00     0.002 A 
ENDROOT
BRANCH   2  10
ATOM     10  C   UNL d   1     -38.582  15.170  18.631  0.00  0.00     0.108 C 
BRANCH  10  11
ATOM     11  C   UNL d   1     -39.046  15.300  19.307  0.00  0.00     0.142 C 
BRANCH  11  12
ATOM     12  O   UNL d   1     -38.819  15.866  19.854  0.00  0.00    -0.304 OA
BRANCH  12  13
ATOM     13  C   UNL d   1     -39.150  15.865  20.607  0.00  0.00     0.100 A 
ATOM     14  C   UNL d   1     -38.661  15.894  21.266  0.00  0.00     0.025 A 
ATOM     15  C   UNL d   1     -38.990  15.893  22.023  0.00  0.00     0.002 A 
ATOM     16  C   UNL d   1     -38.500  15.922  22.687  0.00  0.00     0.000 C 
ATOM     17  C   UNL d   1     -39.814  15.863  22.118  0.00  0.00     0.000 A 
ATOM     18  C   UNL d   1     -40.302  15.835  21.447  0.00  0.00     0.002 A 
ATOM     19  C   UNL d   1     -39.972  15.835  20.694  0.00  0.00     0.025 A 
ENDBRANCH  12  13
ENDBRANCH  11  12
ENDBRANCH  10  11
ENDBRANCH   2  10
BRANCH   3  20
ATOM     20  C   UNL d   1     -39.840  15.220  16.950  0.00  0.00     0.041 C 
BRANCH  20  21
ATOM     21  C   UNL d   1     -40.598  15.402  17.216  0.00  0.00     0.049 C 
BRANCH  21  22
ATOM     22  C   UNL d   1     -41.071  15.922  16.784  0.00  0.00     0.234 C 
ATOM     23  O   UNL d   1     -41.870  15.760  16.675  0.00  0.00    -0.283 OA
ENDBRANCH  21  22
ENDBRANCH  20  21
ENDBRANCH   3  20
TORSDOF 7
ENDMDL
MODEL 4
REMARK VINA RESULT:      -3.6      1.685      2.904
REMARK  7 active torsions:
REMARK  status: ('A' for Active; 'I' for Inactive)
REMARK    1  A    between atoms: C_6  and  N_2 
REMARK    2  A    between atoms: C_7  and  C_3 
REMARK    3  A    between atoms: C_12  and  C_6 
REMARK    4  A    between atoms: C_21  and  C_7 
REMARK    5  A    between atoms: C_9  and  O_11 
REMARK    6  A    between atoms: O_11  and  C_12 
REMARK    7  A    between atoms: C_19  and  C_21 
ROOT
ATOM      1  N   UNL d   1     -39.907  14.847  18.460  0.00  0.00    -0.227 NA
ATOM      2  N   UNL d   1     -38.832  14.565  19.243  0.00  0.00    -0.287 N 
ATOM      3  C   UNL d   1     -39.525  15.028  19.181  0.00  0.00     0.148 A 
ATOM      4  C   UNL d   1     -38.788  14.093  18.552  0.00  0.00     0.083 A 
ATOM      5  C   UNL d   1     -39.443  14.267  18.078  0.00  0.00     0.099 A 
ATOM      6  C   UNL d   1     -38.237  13.530  18.297  0.00  0.00     0.019 A 
ATOM      7  C   UNL d   1     -39.549  13.884  17.356  0.00  0.00     0.021 A 
ATOM      8  C   UNL d   1     -38.342  13.147  17.574  0.00  0.00     0.002 A 
ATOM      9  C   UNL d   1     -38.998  13.324  17.103  0.00  0.00     0.002 A 
ENDROOT
BRANCH   2  10
ATOM     10  C   UNL d   1     -38.292  14.565  19.861  0.00  0.00     0.108 C 
BRANCH  10  11
ATOM     11  C   UNL d   1     -38.498  14.252  20.602  0.00  0.00     0.142 C 
BRANCH  11  12
ATOM     12  O   UNL d   1     -37.940  14.221  21.201  0.00  0.00    -0.304 OA
BRANCH  12  13
ATOM     13  C   UNL d   1     -38.180  14.131  21.982  0.00  0.00     0.100 A 
ATOM     14  C   UNL d   1     -38.314  14.795  22.446  0.00  0.00     0.025 A 
ATOM     15  C   UNL d   1     -38.555  14.707  23.231  0.00  0.00     0.002 A 
ATOM     16  C   UNL d   1     -38.690  15.374  23.698  0.00  0.00     0.000 C 
ATOM     17  C   UNL d   1     -38.662  13.949  23.550  0.00  0.00     0.000 A 
ATOM     18  C   UNL d   1     -38.525  13.282  23.075  0.00  0.00     0.002 A 
ATOM     19  C   UNL d   1     -38.284  13.372  22.294  0.00  0.00     0.025 A 
ENDBRANCH  12  13
ENDBRANCH  11  12
ENDBRANCH  10  11
ENDBRANCH   2  10
BRANCH   3  20
ATOM     20  C   UNL d   1     -40.075  15.589  19.433  0.00  0.00     0.041 C 
BRANCH  20  21
ATOM     21  C   UNL d   1     -40.809  15.344  19.716  0.00  0.00     0.049 C 
BRANCH  21  22
ATOM     22  C   UNL d   1     -41.322  15.894  20.056  0.00  0.00     0.234 C 
ATOM     23  O   UNL d   1     -41.452  15.891  20.868  0.00  0.00    -0.283 OA
ENDBRANCH  21  22
ENDBRANCH  20  21
ENDBRANCH   3  20
TORSDOF 7
ENDMDL
