MODEL 1
REMARK VINA RESULT:      69.6      0.000      0.000
REMARK  4 active torsions:
REMARK  status: ('A' for Active; 'I' for Inactive)
REMARK    1  A    between atoms: C_2  and  S_1 
REMARK    2  A    between atoms: N_3  and  S_1 
REMARK    3  A    between atoms: C_14  and  N_3 
REMARK       I    between atoms: C_7  and  N_8 
REMARK    4  A    between atoms: N_8  and  C_15 
ROOT
ATOM      1  S   UNL d   1      59.864  49.009  50.498  0.00  0.00     0.285 S 
ATOM      2  O   UNL d   1      59.884  49.707  50.951  0.00  0.00    -0.198 OA
ATOM      3  O   UNL d   1      59.854  48.312  50.049  0.00  0.00    -0.198 OA
ENDROOT
BRANCH   1   4
ATOM      4  C   UNL d   1      59.069  49.184  50.285  0.00  0.00     0.105 A 
ATOM      5  C   UNL d   1      58.456  49.024  50.787  0.00  0.00     0.013 A 
ATOM      6  C   UNL d   1      57.680  49.199  50.569  0.00  0.00     0.001 A 
ATOM      7  C   UNL d   1      57.054  49.022  51.114  0.00  0.00     0.000 A 
ATOM      8  C   UNL d   1      57.510  49.535  49.847  0.00  0.00     0.000 A 
ATOM      9  C   UNL d   1      56.272  49.185  50.924  0.00  0.00     0.000 A 
ATOM     10  C   UNL d   1      56.098  49.536  50.169  0.00  0.00     0.000 A 
ATOM     11  C   UNL d   1      56.722  49.708  49.638  0.00  0.00     0.000 A 
ATOM     12  C   UNL d   1      58.152  49.707  49.310  0.00  0.00     0.001 A 
ATOM     13  C   UNL d   1      58.917  49.525  49.547  0.00  0.00     0.013 A 
ENDBRANCH   1   4
BRANCH   1  14
ATOM     14  N   UNL d   1      60.650  48.846  50.714  0.00  0.00    -0.158 NA
BRANCH  14  15
ATOM     15  C   UNL d   1      60.939  48.082  50.621  0.00  0.00     0.094 A 
ATOM     16  C   UNL d   1      61.541  47.979  50.071  0.00  0.00     0.021 A 
ATOM     17  C   UNL d   1      61.855  47.209  49.955  0.00  0.00     0.021 A 
ATOM     18  C   UNL d   1      61.553  46.579  50.395  0.00  0.00     0.085 A 
ATOM     19  C   UNL d   1      60.949  46.716  50.939  0.00  0.00     0.021 A 
ATOM     20  C   UNL d   1      60.643  47.464  51.052  0.00  0.00     0.021 A 
BRANCH  18  21
ATOM     21  N   UNL d   1      61.873  45.801  50.276  0.00  0.00    -0.208 NA
ATOM     22  C   UNL d   1      61.965  45.496  49.490  0.00  0.00     0.279 C 
ATOM     23  O   UNL d   1      61.747  45.948  48.829  0.00  0.00    -0.265 OA
ATOM     24  C   UNL d   1      62.272  44.752  49.402  0.00  0.00     0.068 C 
ENDBRANCH  18  21
ENDBRANCH  14  15
ENDBRANCH   1  14
TORSDOF 4
ENDMDL
MODEL 2
REMARK VINA RESULT:      70.4      1.241      4.650
REMARK  4 active torsions:
REMARK  status: ('A' for Active; 'I' for Inactive)
REMARK    1  A    between atoms: C_2  and  S_1 
REMARK    2  A    between atoms: N_3  and  S_1 
REMARK    3  A    between atoms: C_14  and  N_3 
REMARK       I    between atoms: C_7  and  N_8 
REMARK    4  A    between atoms: N_8  and  C_15 
ROOT
ATOM      1  S   UNL d   1      61.015  48.557  50.407  0.00  0.00     0.285 S 
ATOM      2  O   UNL d   1      60.721  48.641  49.632  0.00  0.00    -0.198 OA
ATOM      3  O   UNL d   1      61.304  48.483  51.181  0.00  0.00    -0.198 OA
ENDROOT
BRANCH   1   4
ATOM      4  C   UNL d   1      61.307  47.795  50.202  0.00  0.00     0.105 A 
ATOM      5  C   UNL d   1      60.992  47.125  50.524  0.00  0.00     0.013 A 
ATOM      6  C   UNL d   1      61.286  46.382  50.316  0.00  0.00     0.001 A 
ATOM      7  C   UNL d   1      60.937  45.693  50.669  0.00  0.00     0.000 A 
ATOM      8  C   UNL d   1      61.897  46.304  49.785  0.00  0.00     0.000 A 
ATOM      9  C   UNL d   1      61.209  44.941  50.482  0.00  0.00     0.000 A 
ATOM     10  C   UNL d   1      61.848  44.864  49.925  0.00  0.00     0.000 A 
ATOM     11  C   UNL d   1      62.185  45.549  49.582  0.00  0.00     0.000 A 
ATOM     12  C   UNL d   1      62.236  47.008  49.439  0.00  0.00     0.001 A 
ATOM     13  C   UNL d   1      61.928  47.737  49.660  0.00  0.00     0.013 A 
ENDBRANCH   1   4
BRANCH   1  14
ATOM     14  N   UNL d   1      60.722  49.311  50.600  0.00  0.00    -0.158 NA
BRANCH  14  15
ATOM     15  C   UNL d   1      59.917  49.405  50.734  0.00  0.00     0.094 A 
ATOM     16  C   UNL d   1      59.455  49.601  50.083  0.00  0.00     0.021 A 
ATOM     17  C   UNL d   1      58.629  49.703  50.191  0.00  0.00     0.021 A 
ATOM     18  C   UNL d   1      58.304  49.603  50.943  0.00  0.00     0.085 A 
ATOM     19  C   UNL d   1      58.795  49.406  51.576  0.00  0.00     0.021 A 
ATOM     20  C   UNL d   1      59.599  49.307  51.471  0.00  0.00     0.021 A 
BRANCH  18  21
ATOM     21  N   UNL d   1      57.467  49.707  51.050  0.00  0.00    -0.208 NA
ATOM     22  C   UNL d   1      56.931  49.496  50.428  0.00  0.00     0.279 C 
ATOM     23  O   UNL d   1      57.212  49.188  49.710  0.00  0.00    -0.265 OA
ATOM     24  C   UNL d   1      56.139  49.603  50.552  0.00  0.00     0.068 C 
ENDBRANCH  18  21
ENDBRANCH  14  15
ENDBRANCH   1  14
TORSDOF 4
ENDMDL
