MODEL 1
REMARK VINA RESULT:      -8.8      0.000      0.000
REMARK  7 active torsions:
REMARK  status: ('A' for Active; 'I' for Inactive)
REMARK    1  A    between atoms: N_3  and  S_1 
REMARK    2  A    between atoms: C_6  and  S_1 
REMARK    3  A    between atoms: N_2  and  C_5 
REMARK    4  A    between atoms: C_4  and  N_3 
REMARK    5  A    between atoms: C_5  and  C_4 
REMARK    6  A    between atoms: C_10  and  C_5 
REMARK    7  A    between atoms: C_22  and  N_7 
ROOT
ATOM      1  C   UNL d   1      53.156  32.758  53.395  0.00  0.00     0.086 C 
ENDROOT
BRANCH   1   2
ATOM      2  N   UNL d   1      52.485  33.228  53.285  0.00  0.00    -0.300 N 
ATOM      3  C   UNL d   1      52.501  33.841  52.739  0.00  0.00     0.100 A 
ATOM      4  C   UNL d   1      51.832  34.315  52.625  0.00  0.00     0.100 A 
ATOM      5  N   UNL d   1      51.149  34.170  53.063  0.00  0.00    -0.300 N 
ATOM      6  C   UNL d   1      51.137  33.552  53.613  0.00  0.00     0.100 A 
ATOM      7  C   UNL d   1      51.802  33.083  53.723  0.00  0.00     0.100 A 
BRANCH   5   8
ATOM      8  C   UNL d   1      50.475  34.640  52.955  0.00  0.00     0.080 C 
ATOM      9  C   UNL d   1      49.938  34.459  52.351  0.00  0.00     0.021 C 
ENDBRANCH   5   8
ENDBRANCH   1   2
BRANCH   1  10
ATOM     10  C   UNL d   1      53.277  32.089  52.921  0.00  0.00     0.130 C 
BRANCH  10  11
ATOM     11  N   UNL d   1      53.072  31.340  53.208  0.00  0.00    -0.155 NA
BRANCH  11  12
ATOM     12  S   UNL d   1      53.007  30.705  52.691  0.00  0.00     0.285 S 
ATOM     13  O   UNL d   1      52.942  30.068  52.170  0.00  0.00    -0.198 OA
ATOM     14  O   UNL d   1      52.934  31.236  52.053  0.00  0.00    -0.198 OA
BRANCH  12  15
ATOM     15  C   UNL d   1      53.081  30.180  53.333  0.00  0.00     0.105 A 
ATOM     16  C   UNL d   1      52.413  29.934  53.746  0.00  0.00     0.013 A 
ATOM     17  C   UNL d   1      52.489  29.415  54.379  0.00  0.00     0.001 A 
ATOM     18  C   UNL d   1      53.235  29.140  54.600  0.00  0.00     0.000 A 
ATOM     19  C   UNL d   1      53.903  29.386  54.187  0.00  0.00     0.001 A 
ATOM     20  C   UNL d   1      53.314  28.614  55.242  0.00  0.00     0.000 C 
ATOM     21  C   UNL d   1      53.826  29.905  53.554  0.00  0.00     0.013 A 
ENDBRANCH  12  15
ENDBRANCH  11  12
ENDBRANCH  10  11
ENDBRANCH   1  10
BRANCH   1  22
ATOM     22  C   UNL d   1      53.713  32.954  53.982  0.00  0.00     0.037 A 
ATOM     23  C   UNL d   1      53.495  32.925  54.780  0.00  0.00     0.100 A 
ATOM     24  N   UNL d   1      54.046  33.119  55.361  0.00  0.00    -0.242 NA
ATOM     25  C   UNL d   1      54.813  33.342  55.142  0.00  0.00     0.099 A 
ATOM     26  C   UNL d   1      55.025  33.369  54.349  0.00  0.00     0.021 A 
ATOM     27  C   UNL d   1      54.474  33.175  53.768  0.00  0.00     0.005 A 
ENDBRANCH   1  22
TORSDOF 7
ENDMDL
MODEL 2
REMARK VINA RESULT:      -8.1      0.517      2.609
REMARK  7 active torsions:
REMARK  status: ('A' for Active; 'I' for Inactive)
REMARK    1  A    between atoms: N_3  and  S_1 
REMARK    2  A    between atoms: C_6  and  S_1 
REMARK    3  A    between atoms: N_2  and  C_5 
REMARK    4  A    between atoms: C_4  and  N_3 
REMARK    5  A    between atoms: C_5  and  C_4 
REMARK    6  A    between atoms: C_10  and  C_5 
REMARK    7  A    between atoms: C_22  and  N_7 
ROOT
ATOM      1  C   UNL d   1      52.789  32.711  53.194  0.00  0.00     0.086 C 
ENDROOT
BRANCH   1   2
ATOM      2  N   UNL d   1      53.352  32.954  53.748  0.00  0.00    -0.300 N 
ATOM      3  C   UNL d   1      54.104  33.169  53.499  0.00  0.00     0.100 A 
ATOM      4  C   UNL d   1      54.672  33.414  54.050  0.00  0.00     0.100 A 
ATOM      5  N   UNL d   1      54.479  33.442  54.850  0.00  0.00    -0.300 N 
ATOM      6  C   UNL d   1      53.719  33.225  55.098  0.00  0.00     0.100 A 
ATOM      7  C   UNL d   1      53.159  32.982  54.548  0.00  0.00     0.100 A 
BRANCH   5   8
ATOM      8  C   UNL d   1      55.041  33.686  55.409  0.00  0.00     0.080 C 
ATOM      9  C   UNL d   1      55.737  34.058  55.158  0.00  0.00     0.021 C 
ENDBRANCH   5   8
ENDBRANCH   1   2
BRANCH   1  10
ATOM     10  C   UNL d   1      52.924  32.036  52.733  0.00  0.00     0.130 C 
BRANCH  10  11
ATOM     11  N   UNL d   1      52.862  31.285  53.076  0.00  0.00    -0.155 NA
BRANCH  11  12
ATOM     12  S   UNL d   1      52.872  30.614  52.602  0.00  0.00     0.285 S 
ATOM     13  O   UNL d   1      52.882  29.941  52.125  0.00  0.00    -0.198 OA
ATOM     14  O   UNL d   1      52.765  31.093  51.928  0.00  0.00    -0.198 OA
BRANCH  12  15
ATOM     15  C   UNL d   1      52.978  30.142  53.279  0.00  0.00     0.105 A 
ATOM     16  C   UNL d   1      52.327  29.874  53.705  0.00  0.00     0.013 A 
ATOM     17  C   UNL d   1      52.435  29.408  54.373  0.00  0.00     0.001 A 
ATOM     18  C   UNL d   1      53.197  29.208  54.617  0.00  0.00     0.000 A 
ATOM     19  C   UNL d   1      53.849  29.475  54.191  0.00  0.00     0.001 A 
ATOM     20  C   UNL d   1      53.309  28.734  55.295  0.00  0.00     0.000 C 
ATOM     21  C   UNL d   1      53.740  29.941  53.524  0.00  0.00     0.013 A 
ENDBRANCH  12  15
ENDBRANCH  11  12
ENDBRANCH  10  11
ENDBRANCH   1  10
BRANCH   1  22
ATOM     22  C   UNL d   1      52.084  33.142  53.097  0.00  0.00     0.037 A 
ATOM     23  C   UNL d   1      51.430  32.973  53.575  0.00  0.00     0.100 A 
ATOM     24  N   UNL d   1      50.732  33.400  53.479  0.00  0.00    -0.242 NA
ATOM     25  C   UNL d   1      50.690  33.996  52.905  0.00  0.00     0.099 A 
ATOM     26  C   UNL d   1      51.342  34.160  52.432  0.00  0.00     0.021 A 
ATOM     27  C   UNL d   1      52.039  33.733  52.528  0.00  0.00     0.005 A 
ENDBRANCH   1  22
TORSDOF 7
ENDMDL
MODEL 3
REMARK VINA RESULT:      -6.9      1.441      1.761
REMARK  7 active torsions:
REMARK  status: ('A' for Active; 'I' for Inactive)
REMARK    1  A    between atoms: N_3  and  S_1 
REMARK    2  A    between atoms: C_6  and  S_1 
REMARK    3  A    between atoms: N_2  and  C_5 
REMARK    4  A    between atoms: C_4  and  N_3 
REMARK    5  A    between atoms: C_5  and  C_4 
REMARK    6  A    between atoms: C_10  and  C_5 
REMARK    7  A    between atoms: C_22  and  N_7 
ROOT
ATOM      1  C   UNL d   1      52.813  34.044  53.443  0.00  0.00     0.086 C 
ENDROOT
BRANCH   1   2
ATOM      2  N   UNL d   1      52.058  34.026  53.105  0.00  0.00    -0.300 N 
ATOM      3  C   UNL d   1      51.948  34.296  52.338  0.00  0.00     0.100 A 
ATOM      4  C   UNL d   1      51.195  34.280  51.994  0.00  0.00     0.100 A 
ATOM      5  N   UNL d   1      50.555  33.991  52.425  0.00  0.00    -0.300 N 
ATOM      6  C   UNL d   1      50.670  33.719  53.199  0.00  0.00     0.100 A 
ATOM      7  C   UNL d   1      51.418  33.737  53.536  0.00  0.00     0.100 A 
BRANCH   5   8
ATOM      8  C   UNL d   1      49.798  33.971  52.089  0.00  0.00     0.080 C 
ATOM      9  C   UNL d   1      49.335  34.658  52.074  0.00  0.00     0.021 C 
ENDBRANCH   5   8
ENDBRANCH   1   2
BRANCH   1  10
ATOM     10  C   UNL d   1      53.413  33.558  53.145  0.00  0.00     0.130 C 
BRANCH  10  11
ATOM     11  N   UNL d   1      53.461  32.768  53.388  0.00  0.00    -0.155 NA
BRANCH  11  12
ATOM     12  S   UNL d   1      54.147  32.337  53.251  0.00  0.00     0.285 S 
ATOM     13  O   UNL d   1      54.837  31.905  53.114  0.00  0.00    -0.198 OA
ATOM     14  O   UNL d   1      54.568  33.048  53.138  0.00  0.00    -0.198 OA
BRANCH  12  15
ATOM     15  C   UNL d   1      53.721  31.631  53.366  0.00  0.00     0.105 A 
ATOM     16  C   UNL d   1      53.338  31.270  52.733  0.00  0.00     0.013 A 
ATOM     17  C   UNL d   1      52.918  30.573  52.848  0.00  0.00     0.001 A 
ATOM     18  C   UNL d   1      52.881  30.234  53.600  0.00  0.00     0.000 A 
ATOM     19  C   UNL d   1      53.265  30.594  54.232  0.00  0.00     0.001 A 
ATOM     20  C   UNL d   1      52.456  29.526  53.719  0.00  0.00     0.000 C 
ATOM     21  C   UNL d   1      53.684  31.291  54.116  0.00  0.00     0.013 A 
ENDBRANCH  12  15
ENDBRANCH  11  12
ENDBRANCH  10  11
ENDBRANCH   1  10
BRANCH   1  22
ATOM     22  C   UNL d   1      52.971  34.550  54.084  0.00  0.00     0.037 A 
ATOM     23  C   UNL d   1      52.927  34.259  54.858  0.00  0.00     0.100 A 
ATOM     24  N   UNL d   1      53.083  34.760  55.492  0.00  0.00    -0.242 NA
ATOM     25  C   UNL d   1      53.283  35.552  55.352  0.00  0.00     0.099 A 
ATOM     26  C   UNL d   1      53.326  35.836  54.583  0.00  0.00     0.021 A 
ATOM     27  C   UNL d   1      53.169  35.335  53.948  0.00  0.00     0.005 A 
ENDBRANCH   1  22
TORSDOF 7
ENDMDL
MODEL 4
REMARK VINA RESULT:      -6.3      1.757      4.083
REMARK  7 active torsions:
REMARK  status: ('A' for Active; 'I' for Inactive)
REMARK    1  A    between atoms: N_3  and  S_1 
REMARK    2  A    between atoms: C_6  and  S_1 
REMARK    3  A    between atoms: N_2  and  C_5 
REMARK    4  A    between atoms: C_4  and  N_3 
REMARK    5  A    between atoms: C_5  and  C_4 
REMARK    6  A    between atoms: C_10  and  C_5 
REMARK    7  A    between atoms: C_22  and  N_7 
ROOT
ATOM      1  C   UNL d   1      53.622  33.013  54.355  0.00  0.00     0.086 C 
ENDROOT
BRANCH   1   2
ATOM      2  N   UNL d   1      53.488  32.227  54.137  0.00  0.00    -0.300 N 
ATOM      3  C   UNL d   1      53.302  31.670  54.712  0.00  0.00     0.100 A 
ATOM      4  C   UNL d   1      53.166  30.882  54.499  0.00  0.00     0.100 A 
ATOM      5  N   UNL d   1      53.220  30.656  53.709  0.00  0.00    -0.300 N 
ATOM      6  C   UNL d   1      53.408  31.220  53.132  0.00  0.00     0.100 A 
ATOM      7  C   UNL d   1      53.541  32.002  53.347  0.00  0.00     0.100 A 
BRANCH   5   8
ATOM      8  C   UNL d   1      53.086  29.869  53.487  0.00  0.00     0.080 C 
ATOM      9  C   UNL d   1      53.314  29.254  53.993  0.00  0.00     0.021 C 
ENDBRANCH   5   8
ENDBRANCH   1   2
BRANCH   1  10
ATOM     10  C   UNL d   1      52.982  33.519  54.499  0.00  0.00     0.130 C 
BRANCH  10  11
ATOM     11  N   UNL d   1      52.621  33.915  53.867  0.00  0.00    -0.155 NA
BRANCH  11  12
ATOM     12  S   UNL d   1      52.175  34.590  54.007  0.00  0.00     0.285 S 
ATOM     13  O   UNL d   1      51.727  35.269  54.148  0.00  0.00    -0.198 OA
ATOM     14  O   UNL d   1      52.611  34.732  54.702  0.00  0.00    -0.198 OA
BRANCH  12  15
ATOM     15  C   UNL d   1      51.742  34.443  53.310  0.00  0.00     0.105 A 
ATOM     16  C   UNL d   1      52.066  34.621  52.575  0.00  0.00     0.013 A 
ATOM     17  C   UNL d   1      51.637  34.475  51.889  0.00  0.00     0.001 A 
ATOM     18  C   UNL d   1      50.881  34.150  51.938  0.00  0.00     0.000 A 
ATOM     19  C   UNL d   1      50.557  33.972  52.674  0.00  0.00     0.001 A 
ATOM     20  C   UNL d   1      50.443  34.001  51.244  0.00  0.00     0.000 C 
ATOM     21  C   UNL d   1      50.986  34.118  53.358  0.00  0.00     0.013 A 
ENDBRANCH  12  15
ENDBRANCH  11  12
ENDBRANCH  10  11
ENDBRANCH   1  10
BRANCH   1  22
ATOM     22  C   UNL d   1      54.400  33.299  54.430  0.00  0.00     0.037 A 
ATOM     23  C   UNL d   1      54.682  33.533  55.172  0.00  0.00     0.100 A 
ATOM     24  N   UNL d   1      55.451  33.816  55.246  0.00  0.00    -0.242 NA
ATOM     25  C   UNL d   1      55.938  33.865  54.578  0.00  0.00     0.099 A 
ATOM     26  C   UNL d   1      55.654  33.632  53.843  0.00  0.00     0.021 A 
ATOM     27  C   UNL d   1      54.885  33.349  53.769  0.00  0.00     0.005 A 
ENDBRANCH   1  22
TORSDOF 7
ENDMDL
