MODEL 1
REMARK VINA RESULT:      -4.3      0.000      0.000
REMARK  7 active torsions:
REMARK  status: ('A' for Active; 'I' for Inactive)
REMARK    1  A    between atoms: C_4  and  C_1 
REMARK    2  A    between atoms: N_5  and  C_2 
REMARK    3  A    between atoms: C_15  and  C_4 
REMARK    4  A    between atoms: C_9  and  C_13 
REMARK    5  A    between atoms: O_21  and  C_9 
REMARK    6  A    between atoms: C_25  and  C_20 
REMARK    7  A    between atoms: C_26  and  O_21 
ROOT
ATOM      1  C   UNL d   1     -39.955  15.314  19.727  0.00  0.00     0.074 A 
ATOM      2  C   UNL d   1     -39.982  15.003  20.497  0.00  0.00     0.070 A 
ATOM      3  C   UNL d   1     -39.368  15.153  21.024  0.00  0.00     0.034 A 
ATOM      4  C   UNL d   1     -39.311  15.773  19.492  0.00  0.00     0.103 A 
ATOM      5  N   UNL d   1     -38.694  15.921  20.027  0.00  0.00    -0.244 NA
ATOM      6  C   UNL d   1     -38.724  15.612  20.789  0.00  0.00     0.083 A 
ATOM      7  C   UNL d   1     -39.399  14.844  21.787  0.00  0.00     0.003 A 
ATOM      8  C   UNL d   1     -38.110  15.762  21.318  0.00  0.00     0.019 A 
ATOM      9  C   UNL d   1     -38.783  14.993  22.319  0.00  0.00     0.000 A 
ATOM     10  C   UNL d   1     -38.138  15.452  22.084  0.00  0.00     0.002 A 
ENDROOT
BRANCH   2  11
ATOM     11  N   UNL d   1     -40.636  14.538  20.735  0.00  0.00    -0.304 N 
ATOM     12  C   UNL d   1     -40.608  13.718  20.660  0.00  0.00     0.080 A 
ATOM     13  C   UNL d   1     -41.252  13.259  20.894  0.00  0.00     0.024 A 
ATOM     14  C   UNL d   1     -41.924  13.620  21.204  0.00  0.00     0.067 A 
ATOM     15  C   UNL d   1     -41.955  14.443  21.281  0.00  0.00     0.024 A 
ATOM     16  C   UNL d   1     -41.311  14.902  21.046  0.00  0.00     0.080 A 
BRANCH  14  17
ATOM     17  C   UNL d   1     -42.564  13.153  21.437  0.00  0.00     0.300 C 
ATOM     18  O   UNL d   1     -42.443  12.396  21.745  0.00  0.00    -0.259 OA
BRANCH  17  19
ATOM     19  O   UNL d   1     -43.329  13.448  21.359  0.00  0.00    -0.271 OA
BRANCH  19  20
ATOM     20  C   UNL d   1     -43.984  12.961  21.474  0.00  0.00     0.126 C 
ATOM     21  C   UNL d   1     -44.670  13.245  21.839  0.00  0.00     0.029 C 
ENDBRANCH  19  20
ENDBRANCH  17  19
ENDBRANCH  14  17
ENDBRANCH   2  11
BRANCH   1  22
ATOM     22  C   UNL d   1     -40.571  15.164  19.195  0.00  0.00     0.198 C 
ATOM     23  O   UNL d   1     -41.350  15.107  19.462  0.00  0.00    -0.286 OA
BRANCH  22  24
ATOM     24  C   UNL d   1     -40.409  15.072  18.393  0.00  0.00     0.039 A 
ATOM     25  C   UNL d   1     -40.586  15.682  17.866  0.00  0.00     0.003 A 
ATOM     26  C   UNL d   1     -40.423  15.588  17.064  0.00  0.00     0.000 A 
ATOM     27  C   UNL d   1     -40.084  14.887  16.790  0.00  0.00     0.000 A 
ATOM     28  C   UNL d   1     -39.905  14.275  17.313  0.00  0.00     0.000 A 
ATOM     29  C   UNL d   1     -40.071  14.372  18.122  0.00  0.00     0.003 A 
ENDBRANCH  22  24
ENDBRANCH   1  22
BRANCH   9  30
ATOM     30  C   UNL d   1     -38.813  14.681  23.089  0.00  0.00     0.000 C 
ATOM     31  C   UNL d   1     -38.336  14.037  23.286  0.00  0.00     0.000 C 
ENDBRANCH   9  30
TORSDOF 7
ENDMDL
MODEL 2
REMARK VINA RESULT:      -4.1      0.740      3.395
REMARK  7 active torsions:
REMARK  status: ('A' for Active; 'I' for Inactive)
REMARK    1  A    between atoms: C_4  and  C_1 
REMARK    2  A    between atoms: N_5  and  C_2 
REMARK    3  A    between atoms: C_15  and  C_4 
REMARK    4  A    between atoms: C_9  and  C_13 
REMARK    5  A    between atoms: O_21  and  C_9 
REMARK    6  A    between atoms: C_25  and  C_20 
REMARK    7  A    between atoms: C_26  and  O_21 
ROOT
ATOM      1  C   UNL d   1     -39.543  15.390  21.057  0.00  0.00     0.074 A 
ATOM      2  C   UNL d   1     -39.997  15.000  20.480  0.00  0.00     0.070 A 
ATOM      3  C   UNL d   1     -39.803  15.073  19.684  0.00  0.00     0.034 A 
ATOM      4  C   UNL d   1     -38.898  15.850  20.828  0.00  0.00     0.103 A 
ATOM      5  N   UNL d   1     -38.706  15.921  20.023  0.00  0.00    -0.244 NA
ATOM      6  C   UNL d   1     -39.158  15.534  19.455  0.00  0.00     0.083 A 
ATOM      7  C   UNL d   1     -40.256  14.685  19.115  0.00  0.00     0.003 A 
ATOM      8  C   UNL d   1     -38.965  15.606  18.658  0.00  0.00     0.019 A 
ATOM      9  C   UNL d   1     -40.063  14.758  18.313  0.00  0.00     0.000 A 
ATOM     10  C   UNL d   1     -39.418  15.218  18.085  0.00  0.00     0.002 A 
ENDROOT
BRANCH   2  11
ATOM     11  N   UNL d   1     -40.652  14.533  20.712  0.00  0.00    -0.304 N 
ATOM     12  C   UNL d   1     -40.566  13.719  20.807  0.00  0.00     0.080 A 
ATOM     13  C   UNL d   1     -41.211  13.259  21.035  0.00  0.00     0.024 A 
ATOM     14  C   UNL d   1     -41.942  13.613  21.169  0.00  0.00     0.067 A 
ATOM     15  C   UNL d   1     -42.032  14.429  21.075  0.00  0.00     0.024 A 
ATOM     16  C   UNL d   1     -41.386  14.890  20.847  0.00  0.00     0.080 A 
BRANCH  14  17
ATOM     17  C   UNL d   1     -42.583  13.145  21.398  0.00  0.00     0.300 C 
ATOM     18  O   UNL d   1     -42.464  12.375  21.675  0.00  0.00    -0.259 OA
BRANCH  17  19
ATOM     19  O   UNL d   1     -43.346  13.451  21.348  0.00  0.00    -0.271 OA
BRANCH  19  20
ATOM     20  C   UNL d   1     -44.003  12.975  21.496  0.00  0.00     0.126 C 
ATOM     21  C   UNL d   1     -44.741  13.308  21.668  0.00  0.00     0.029 C 
ENDBRANCH  19  20
ENDBRANCH  17  19
ENDBRANCH  14  17
ENDBRANCH   2  11
BRANCH   1  22
ATOM     22  C   UNL d   1     -39.736  15.318  21.858  0.00  0.00     0.198 C 
ATOM     23  O   UNL d   1     -40.524  15.304  22.100  0.00  0.00    -0.286 OA
BRANCH  22  24
ATOM     24  C   UNL d   1     -39.138  15.259  22.421  0.00  0.00     0.039 A 
ATOM     25  C   UNL d   1     -38.758  14.537  22.542  0.00  0.00     0.003 A 
ATOM     26  C   UNL d   1     -38.160  14.479  23.105  0.00  0.00     0.000 A 
ATOM     27  C   UNL d   1     -37.942  15.142  23.547  0.00  0.00     0.000 A 
ATOM     28  C   UNL d   1     -38.319  15.867  23.429  0.00  0.00     0.000 A 
ATOM     29  C   UNL d   1     -38.922  15.922  22.860  0.00  0.00     0.003 A 
ENDBRANCH  22  24
ENDBRANCH   1  22
BRANCH   9  30
ATOM     30  C   UNL d   1     -40.520  14.366  17.739  0.00  0.00     0.000 C 
ATOM     31  C   UNL d   1     -40.882  14.803  17.140  0.00  0.00     0.000 C 
ENDBRANCH   9  30
TORSDOF 7
ENDMDL
MODEL 3
REMARK VINA RESULT:      -2.3      4.955      9.069
REMARK  7 active torsions:
REMARK  status: ('A' for Active; 'I' for Inactive)
REMARK    1  A    between atoms: C_4  and  C_1 
REMARK    2  A    between atoms: N_5  and  C_2 
REMARK    3  A    between atoms: C_15  and  C_4 
REMARK    4  A    between atoms: C_9  and  C_13 
REMARK    5  A    between atoms: O_21  and  C_9 
REMARK    6  A    between atoms: C_25  and  C_20 
REMARK    7  A    between atoms: C_26  and  O_21 
ROOT
ATOM      1  C   UNL d   1     -49.181  13.395  22.852  0.00  0.00     0.074 A 
ATOM      2  C   UNL d   1     -48.525  12.892  22.934  0.00  0.00     0.070 A 
ATOM      3  C   UNL d   1     -48.630  12.116  23.187  0.00  0.00     0.034 A 
ATOM      4  C   UNL d   1     -49.937  13.115  23.025  0.00  0.00     0.103 A 
ATOM      5  N   UNL d   1     -50.038  12.332  23.281  0.00  0.00    -0.244 NA
ATOM      6  C   UNL d   1     -49.387  11.836  23.361  0.00  0.00     0.083 A 
ATOM      7  C   UNL d   1     -47.978  11.619  23.267  0.00  0.00     0.003 A 
ATOM      8  C   UNL d   1     -49.490  11.059  23.615  0.00  0.00     0.019 A 
ATOM      9  C   UNL d   1     -48.081  10.839  23.522  0.00  0.00     0.000 A 
ATOM     10  C   UNL d   1     -48.837  10.559  23.696  0.00  0.00     0.002 A 
ENDROOT
BRANCH   2  11
ATOM     11  N   UNL d   1     -47.758  13.176  22.757  0.00  0.00    -0.304 N 
ATOM     12  C   UNL d   1     -47.474  13.146  21.984  0.00  0.00     0.080 A 
ATOM     13  C   UNL d   1     -46.718  13.426  21.810  0.00  0.00     0.024 A 
ATOM     14  C   UNL d   1     -46.245  13.736  22.410  0.00  0.00     0.067 A 
ATOM     15  C   UNL d   1     -46.528  13.767  23.186  0.00  0.00     0.024 A 
ATOM     16  C   UNL d   1     -47.284  13.487  23.360  0.00  0.00     0.080 A 
BRANCH  14  17
ATOM     17  C   UNL d   1     -45.490  14.014  22.227  0.00  0.00     0.300 C 
ATOM     18  O   UNL d   1     -45.215  14.725  22.546  0.00  0.00    -0.259 OA
BRANCH  17  19
ATOM     19  O   UNL d   1     -45.008  13.575  21.723  0.00  0.00    -0.271 OA
BRANCH  19  20
ATOM     20  C   UNL d   1     -44.248  13.352  21.951  0.00  0.00     0.126 C 
ATOM     21  C   UNL d   1     -43.750  12.941  21.435  0.00  0.00     0.029 C 
ENDBRANCH  19  20
ENDBRANCH  17  19
ENDBRANCH  14  17
ENDBRANCH   2  11
BRANCH   1  22
ATOM     22  C   UNL d   1     -49.078  14.176  22.597  0.00  0.00     0.198 C 
ATOM     23  O   UNL d   1     -48.436  14.379  22.120  0.00  0.00    -0.286 OA
BRANCH  22  24
ATOM     24  C   UNL d   1     -49.618  14.756  22.819  0.00  0.00     0.039 A 
ATOM     25  C   UNL d   1     -50.364  14.778  22.468  0.00  0.00     0.003 A 
ATOM     26  C   UNL d   1     -50.904  15.359  22.691  0.00  0.00     0.000 A 
ATOM     27  C   UNL d   1     -50.698  15.916  23.266  0.00  0.00     0.000 A 
ATOM     28  C   UNL d   1     -49.953  15.897  23.620  0.00  0.00     0.000 A 
ATOM     29  C   UNL d   1     -49.411  15.310  23.392  0.00  0.00     0.003 A 
ENDBRANCH  22  24
ENDBRANCH   1  22
BRANCH   9  30
ATOM     30  C   UNL d   1     -47.422  10.337  23.603  0.00  0.00     0.000 C 
ATOM     31  C   UNL d   1     -47.040  10.056  22.928  0.00  0.00     0.000 C 
ENDBRANCH   9  30
TORSDOF 7
ENDMDL
MODEL 4
REMARK VINA RESULT:      -1.4      2.710      5.183
REMARK  7 active torsions:
REMARK  status: ('A' for Active; 'I' for Inactive)
REMARK    1  A    between atoms: C_4  and  C_1 
REMARK    2  A    between atoms: N_5  and  C_2 
REMARK    3  A    between atoms: C_15  and  C_4 
REMARK    4  A    between atoms: C_9  and  C_13 
REMARK    5  A    between atoms: O_21  and  C_9 
REMARK    6  A    between atoms: C_25  and  C_20 
REMARK    7  A    between atoms: C_26  and  O_21 
ROOT
ATOM      1  C   UNL d   1     -39.483  14.754  17.891  0.00  0.00     0.074 A 
ATOM      2  C   UNL d   1     -39.083  14.288  17.331  0.00  0.00     0.070 A 
ATOM      3  C   UNL d   1     -38.911  14.594  16.587  0.00  0.00     0.034 A 
ATOM      4  C   UNL d   1     -39.706  15.525  17.699  0.00  0.00     0.103 A 
ATOM      5  N   UNL d   1     -39.529  15.829  16.946  0.00  0.00    -0.244 NA
ATOM      6  C   UNL d   1     -39.134  15.365  16.394  0.00  0.00     0.083 A 
ATOM      7  C   UNL d   1     -38.514  14.129  16.034  0.00  0.00     0.003 A 
ATOM      8  C   UNL d   1     -38.960  15.670  15.650  0.00  0.00     0.019 A 
ATOM      9  C   UNL d   1     -38.340  14.434  15.286  0.00  0.00     0.000 A 
ATOM     10  C   UNL d   1     -38.563  15.205  15.093  0.00  0.00     0.002 A 
ENDROOT
BRANCH   2  11
ATOM     11  N   UNL d   1     -38.857  13.506  17.526  0.00  0.00    -0.304 N 
ATOM     12  C   UNL d   1     -38.163  13.370  17.948  0.00  0.00     0.080 A 
ATOM     13  C   UNL d   1     -37.940  12.599  18.141  0.00  0.00     0.024 A 
ATOM     14  C   UNL d   1     -38.411  11.965  17.911  0.00  0.00     0.067 A 
ATOM     15  C   UNL d   1     -39.109  12.098  17.488  0.00  0.00     0.024 A 
ATOM     16  C   UNL d   1     -39.332  12.869  17.295  0.00  0.00     0.080 A 
BRANCH  14  17
ATOM     17  C   UNL d   1     -38.181  11.197  18.108  0.00  0.00     0.300 C 
ATOM     18  O   UNL d   1     -38.182  10.946  18.895  0.00  0.00    -0.259 OA
BRANCH  17  19
ATOM     19  O   UNL d   1     -37.949  10.679  17.511  0.00  0.00    -0.271 OA
BRANCH  19  20
ATOM     20  C   UNL d   1     -37.948   9.863  17.635  0.00  0.00     0.126 C 
ATOM     21  C   UNL d   1     -37.990   9.335  17.001  0.00  0.00     0.029 C 
ENDBRANCH  19  20
ENDBRANCH  17  19
ENDBRANCH  14  17
ENDBRANCH   2  11
BRANCH   1  22
ATOM     22  C   UNL d   1     -39.658  14.448  18.640  0.00  0.00     0.198 C 
ATOM     23  O   UNL d   1     -40.055  13.729  18.716  0.00  0.00    -0.286 OA
BRANCH  22  24
ATOM     24  C   UNL d   1     -39.435  14.863  19.315  0.00  0.00     0.039 A 
ATOM     25  C   UNL d   1     -39.762  14.664  20.046  0.00  0.00     0.003 A 
ATOM     26  C   UNL d   1     -39.538  15.080  20.720  0.00  0.00     0.000 A 
ATOM     27  C   UNL d   1     -38.988  15.693  20.665  0.00  0.00     0.000 A 
ATOM     28  C   UNL d   1     -38.657  15.895  19.937  0.00  0.00     0.000 A 
ATOM     29  C   UNL d   1     -38.885  15.474  19.257  0.00  0.00     0.003 A 
ENDBRANCH  22  24
ENDBRANCH   1  22
BRANCH   9  30
ATOM     30  C   UNL d   1     -37.940  13.964  14.728  0.00  0.00     0.000 C 
ATOM     31  C   UNL d   1     -38.341  13.697  14.058  0.00  0.00     0.000 C 
ENDBRANCH   9  30
TORSDOF 7
ENDMDL
