MODEL 1
REMARK VINA RESULT:      31.5      0.000      0.000
REMARK  5 active torsions:
REMARK  status: ('A' for Active; 'I' for Inactive)
REMARK    1  A    between atoms: C_7  and  C_1 
REMARK    2  A    between atoms: C_13  and  N_3 
REMARK       I    between atoms: C_6  and  N_10 
REMARK    3  A    between atoms: C_8  and  C_6 
REMARK    4  A    between atoms: C_14  and  C_7 
REMARK    5  A    between atoms: N_10  and  C_14 
ROOT
ATOM      1  C   UNL d   1      13.386  12.162  -2.451  0.00  0.00     0.058 C 
ENDROOT
BRANCH   1   2
ATOM      2  C   UNL d   1      14.034  12.290  -1.952  0.00  0.00     0.149 A 
ATOM      3  N   UNL d   1      14.754  12.613  -2.170  0.00  0.00    -0.227 NA
ATOM      4  C   UNL d   1      15.237  12.640  -1.505  0.00  0.00     0.099 A 
ATOM      5  C   UNL d   1      16.018  12.910  -1.400  0.00  0.00     0.021 A 
ATOM      6  C   UNL d   1      14.814  12.332  -0.867  0.00  0.00     0.083 A 
ATOM      7  C   UNL d   1      16.365  12.867  -0.650  0.00  0.00     0.002 A 
ATOM      8  C   UNL d   1      15.939  12.559  -0.016  0.00  0.00     0.002 A 
ATOM      9  C   UNL d   1      15.161  12.289  -0.117  0.00  0.00     0.019 A 
ATOM     10  N   UNL d   1      14.064  12.114  -1.144  0.00  0.00    -0.289 N 
BRANCH  10  11
ATOM     11  C   UNL d   1      13.452  11.779  -0.698  0.00  0.00     0.082 C 
ATOM     12  C   UNL d   1      13.031  12.250  -0.164  0.00  0.00     0.021 C 
ENDBRANCH  10  11
ENDBRANCH   1   2
BRANCH   1  13
ATOM     13  C   UNL d   1      13.406  12.448  -3.229  0.00  0.00     0.105 C 
BRANCH  13  14
ATOM     14  N   UNL d   1      13.204  11.960  -3.855  0.00  0.00    -0.206 NA
ATOM     15  C   UNL d   1      13.080  12.279  -4.606  0.00  0.00     0.279 C 
ATOM     16  O   UNL d   1      12.878  11.782  -5.229  0.00  0.00    -0.265 OA
BRANCH  15  17
ATOM     17  C   UNL d   1      13.159  13.087  -4.727  0.00  0.00     0.058 A 
ATOM     18  C   UNL d   1      12.780  13.613  -4.223  0.00  0.00     0.007 A 
ATOM     19  C   UNL d   1      12.859  14.421  -4.343  0.00  0.00     0.030 A 
ATOM     20  C   UNL d   1      13.314  14.712  -4.964  0.00  0.00     0.140 A 
ATOM     21  C   UNL d   1      13.691  14.180  -5.467  0.00  0.00     0.030 A 
ATOM     22  F   UNL d   1      13.395  15.530  -5.089  0.00  0.00    -0.204 F 
ATOM     23  C   UNL d   1      13.615  13.378  -5.349  0.00  0.00     0.007 A 
ENDBRANCH  15  17
ENDBRANCH  13  14
ENDBRANCH   1  13
TORSDOF 5
ENDMDL
