MODEL 1
REMARK VINA RESULT:      -6.7      0.000      0.000
REMARK  6 active torsions:
REMARK  status: ('A' for Active; 'I' for Inactive)
REMARK    1  A    between atoms: C_3  and  N_4 
REMARK       I    between atoms: N_4  and  C_6 
REMARK    2  A    between atoms: C_9  and  C_5 
REMARK    3  A    between atoms: C_6  and  C_16 
REMARK    4  A    between atoms: S_12  and  C_7 
REMARK    5  A    between atoms: O_20  and  C_8 
REMARK    6  A    between atoms: C_16  and  S_12 
ROOT
ATOM      1  S   UNL d   1     -47.192  13.230  23.165  0.00  0.00    -0.061 SA
ENDROOT
BRANCH   1   2
ATOM      2  C   UNL d   1     -46.601  12.653  23.224  0.00  0.00     0.133 A 
ATOM      3  N   UNL d   1     -45.861  12.775  22.881  0.00  0.00    -0.141 NA
ATOM      4  N   UNL d   1     -45.272  12.198  22.941  0.00  0.00    -0.146 NA
ATOM      5  C   UNL d   1     -45.426  11.488  23.351  0.00  0.00     0.121 A 
ATOM      6  C   UNL d   1     -46.167  11.367  23.695  0.00  0.00     0.025 A 
ATOM      7  C   UNL d   1     -46.754  11.939  23.636  0.00  0.00     0.029 A 
BRANCH   5   8
ATOM      8  C   UNL d   1     -44.829  10.913  23.407  0.00  0.00     0.101 A 
ATOM      9  N   UNL d   1     -45.016  10.145  23.646  0.00  0.00    -0.242 NA
ATOM     10  C   UNL d   1     -44.428   9.592  23.698  0.00  0.00     0.099 A 
ATOM     11  C   UNL d   1     -43.639   9.789  23.513  0.00  0.00     0.021 A 
ATOM     12  C   UNL d   1     -43.456  10.553  23.276  0.00  0.00     0.003 A 
ATOM     13  C   UNL d   1     -44.049  11.125  23.220  0.00  0.00     0.021 A 
ENDBRANCH   5   8
ENDBRANCH   1   2
BRANCH   1  14
ATOM     14  C   UNL d   1     -47.956  13.069  23.409  0.00  0.00     0.099 C 
BRANCH  14  15
ATOM     15  C   UNL d   1     -48.548  13.622  23.279  0.00  0.00     0.286 C 
ATOM     16  N   UNL d   1     -49.271  13.396  22.970  0.00  0.00    -0.206 NA
ATOM     17  O   UNL d   1     -48.422  14.418  23.460  0.00  0.00    -0.265 OA
BRANCH  16  18
ATOM     18  C   UNL d   1     -49.872  13.957  22.838  0.00  0.00     0.107 A 
ATOM     19  C   UNL d   1     -50.401  13.858  22.216  0.00  0.00     0.112 A 
ATOM     20  C   UNL d   1     -50.989  14.409  22.087  0.00  0.00     0.026 A 
ATOM     21  C   UNL d   1     -51.060  15.073  22.581  0.00  0.00     0.002 A 
ATOM     22  C   UNL d   1     -50.529  15.177  23.211  0.00  0.00     0.002 A 
ATOM     23  C   UNL d   1     -49.937  14.616  23.335  0.00  0.00     0.021 A 
ATOM     24  C   UNL d   1     -50.597  15.829  23.698  0.00  0.00     0.000 C 
BRANCH  19  25
ATOM     25  O   UNL d   1     -50.399  13.266  21.712  0.00  0.00    -0.327 OA
ATOM     26  C   UNL d   1     -51.007  13.125  21.187  0.00  0.00     0.181 C 
ENDBRANCH  19  25
ENDBRANCH  16  18
ENDBRANCH  14  15
ENDBRANCH   1  14
TORSDOF 6
ENDMDL
MODEL 2
REMARK VINA RESULT:      -5.6      4.634      7.485
REMARK  6 active torsions:
REMARK  status: ('A' for Active; 'I' for Inactive)
REMARK    1  A    between atoms: C_3  and  N_4 
REMARK       I    between atoms: N_4  and  C_6 
REMARK    2  A    between atoms: C_9  and  C_5 
REMARK    3  A    between atoms: C_6  and  C_16 
REMARK    4  A    between atoms: S_12  and  C_7 
REMARK    5  A    between atoms: O_20  and  C_8 
REMARK    6  A    between atoms: C_16  and  S_12 
ROOT
ATOM      1  S   UNL d   1     -42.947  12.917  21.170  0.00  0.00    -0.061 SA
ENDROOT
BRANCH   1   2
ATOM      2  C   UNL d   1     -43.652  12.798  21.587  0.00  0.00     0.133 A 
ATOM      3  N   UNL d   1     -43.715  12.186  22.137  0.00  0.00    -0.141 NA
ATOM      4  N   UNL d   1     -44.420  12.068  22.553  0.00  0.00    -0.146 NA
ATOM      5  C   UNL d   1     -45.071  12.570  22.416  0.00  0.00     0.121 A 
ATOM      6  C   UNL d   1     -45.008  13.182  21.865  0.00  0.00     0.025 A 
ATOM      7  C   UNL d   1     -44.308  13.301  21.450  0.00  0.00     0.029 A 
BRANCH   5   8
ATOM      8  C   UNL d   1     -45.777  12.445  22.838  0.00  0.00     0.101 A 
ATOM      9  N   UNL d   1     -45.874  11.762  23.289  0.00  0.00    -0.242 NA
ATOM     10  C   UNL d   1     -46.565  11.650  23.696  0.00  0.00     0.099 A 
ATOM     11  C   UNL d   1     -47.176  12.217  23.663  0.00  0.00     0.021 A 
ATOM     12  C   UNL d   1     -47.076  12.896  23.213  0.00  0.00     0.003 A 
ATOM     13  C   UNL d   1     -46.375  13.019  22.794  0.00  0.00     0.021 A 
ENDBRANCH   5   8
ENDBRANCH   1   2
BRANCH   1  14
ATOM     14  C   UNL d   1     -42.518  13.607  21.268  0.00  0.00     0.099 C 
BRANCH  14  15
ATOM     15  C   UNL d   1     -41.844  13.732  20.817  0.00  0.00     0.286 C 
ATOM     16  N   UNL d   1     -41.280  14.277  21.052  0.00  0.00    -0.206 NA
ATOM     17  O   UNL d   1     -41.725  13.309  20.117  0.00  0.00    -0.265 OA
BRANCH  16  18
ATOM     18  C   UNL d   1     -40.595  14.404  20.595  0.00  0.00     0.107 A 
ATOM     19  C   UNL d   1     -39.856  14.429  20.955  0.00  0.00     0.112 A 
ATOM     20  C   UNL d   1     -39.186  14.553  20.507  0.00  0.00     0.026 A 
ATOM     21  C   UNL d   1     -39.242  14.656  19.685  0.00  0.00     0.002 A 
ATOM     22  C   UNL d   1     -39.986  14.632  19.316  0.00  0.00     0.002 A 
ATOM     23  C   UNL d   1     -40.659  14.505  19.776  0.00  0.00     0.021 A 
ATOM     24  C   UNL d   1     -40.043  14.732  18.508  0.00  0.00     0.000 C 
BRANCH  19  25
ATOM     25  O   UNL d   1     -39.722  14.342  21.716  0.00  0.00    -0.327 OA
ATOM     26  C   UNL d   1     -39.030  14.578  22.077  0.00  0.00     0.181 C 
ENDBRANCH  19  25
ENDBRANCH  16  18
ENDBRANCH  14  15
ENDBRANCH   1  14
TORSDOF 6
ENDMDL
MODEL 3
REMARK VINA RESULT:      -5.6      1.736      2.397
REMARK  6 active torsions:
REMARK  status: ('A' for Active; 'I' for Inactive)
REMARK    1  A    between atoms: C_3  and  N_4 
REMARK       I    between atoms: N_4  and  C_6 
REMARK    2  A    between atoms: C_9  and  C_5 
REMARK    3  A    between atoms: C_6  and  C_16 
REMARK    4  A    between atoms: S_12  and  C_7 
REMARK    5  A    between atoms: O_20  and  C_8 
REMARK    6  A    between atoms: C_16  and  S_12 
ROOT
ATOM      1  S   UNL d   1     -46.877  12.580  22.919  0.00  0.00    -0.061 SA
ENDROOT
BRANCH   1   2
ATOM      2  C   UNL d   1     -46.103  12.641  22.634  0.00  0.00     0.133 A 
ATOM      3  N   UNL d   1     -45.488  12.230  23.001  0.00  0.00    -0.141 NA
ATOM      4  N   UNL d   1     -44.715  12.291  22.716  0.00  0.00    -0.146 NA
ATOM      5  C   UNL d   1     -44.553  12.771  22.054  0.00  0.00     0.121 A 
ATOM      6  C   UNL d   1     -45.168  13.183  21.687  0.00  0.00     0.025 A 
ATOM      7  C   UNL d   1     -45.938  13.123  21.969  0.00  0.00     0.029 A 
BRANCH   5   8
ATOM      8  C   UNL d   1     -43.773  12.828  21.773  0.00  0.00     0.101 A 
ATOM      9  N   UNL d   1     -43.265  12.180  21.827  0.00  0.00    -0.242 NA
ATOM     10  C   UNL d   1     -42.507  12.246  21.550  0.00  0.00     0.099 A 
ATOM     11  C   UNL d   1     -42.237  12.959  21.212  0.00  0.00     0.021 A 
ATOM     12  C   UNL d   1     -42.745  13.601  21.159  0.00  0.00     0.003 A 
ATOM     13  C   UNL d   1     -43.519  13.544  21.438  0.00  0.00     0.021 A 
ENDBRANCH   5   8
ENDBRANCH   1   2
BRANCH   1  14
ATOM     14  C   UNL d   1     -47.312  13.254  23.086  0.00  0.00     0.099 C 
BRANCH  14  15
ATOM     15  C   UNL d   1     -48.113  13.187  23.256  0.00  0.00     0.286 C 
ATOM     16  N   UNL d   1     -48.643  13.750  22.991  0.00  0.00    -0.206 NA
ATOM     17  O   UNL d   1     -48.394  12.548  23.698  0.00  0.00    -0.265 OA
BRANCH  16  18
ATOM     18  C   UNL d   1     -49.456  13.683  23.163  0.00  0.00     0.107 A 
ATOM     19  C   UNL d   1     -49.873  14.332  23.449  0.00  0.00     0.112 A 
ATOM     20  C   UNL d   1     -50.668  14.266  23.617  0.00  0.00     0.026 A 
ATOM     21  C   UNL d   1     -51.064  13.545  23.502  0.00  0.00     0.002 A 
ATOM     22  C   UNL d   1     -50.648  12.887  23.214  0.00  0.00     0.002 A 
ATOM     23  C   UNL d   1     -49.844  12.962  23.046  0.00  0.00     0.021 A 
ATOM     24  C   UNL d   1     -51.036  12.177  23.100  0.00  0.00     0.000 C 
BRANCH  19  25
ATOM     25  O   UNL d   1     -49.574  15.037  23.582  0.00  0.00    -0.327 OA
ATOM     26  C   UNL d   1     -50.027  15.714  23.622  0.00  0.00     0.181 C 
ENDBRANCH  19  25
ENDBRANCH  16  18
ENDBRANCH  14  15
ENDBRANCH   1  14
TORSDOF 6
ENDMDL
MODEL 4
REMARK VINA RESULT:      -5.3      4.257      5.696
REMARK  6 active torsions:
REMARK  status: ('A' for Active; 'I' for Inactive)
REMARK    1  A    between atoms: C_3  and  N_4 
REMARK       I    between atoms: N_4  and  C_6 
REMARK    2  A    between atoms: C_9  and  C_5 
REMARK    3  A    between atoms: C_6  and  C_16 
REMARK    4  A    between atoms: S_12  and  C_7 
REMARK    5  A    between atoms: O_20  and  C_8 
REMARK    6  A    between atoms: C_16  and  S_12 
ROOT
ATOM      1  S   UNL d   1     -42.938  12.888  21.489  0.00  0.00    -0.061 SA
ENDROOT
BRANCH   1   2
ATOM      2  C   UNL d   1     -42.349  13.290  21.069  0.00  0.00     0.133 A 
ATOM      3  N   UNL d   1     -42.276  13.193  20.253  0.00  0.00    -0.141 NA
ATOM      4  N   UNL d   1     -41.687  13.595  19.835  0.00  0.00    -0.146 NA
ATOM      5  C   UNL d   1     -41.164  14.103  20.239  0.00  0.00     0.121 A 
ATOM      6  C   UNL d   1     -41.238  14.200  21.056  0.00  0.00     0.025 A 
ATOM      7  C   UNL d   1     -41.823  13.801  21.474  0.00  0.00     0.029 A 
BRANCH   5   8
ATOM      8  C   UNL d   1     -40.574  14.504  19.813  0.00  0.00     0.101 A 
ATOM      9  N   UNL d   1     -39.892  14.106  19.575  0.00  0.00    -0.242 NA
ATOM     10  C   UNL d   1     -39.323  14.506  19.160  0.00  0.00     0.099 A 
ATOM     11  C   UNL d   1     -39.420  15.313  18.972  0.00  0.00     0.021 A 
ATOM     12  C   UNL d   1     -40.101  15.706  19.210  0.00  0.00     0.003 A 
ATOM     13  C   UNL d   1     -40.686  15.307  19.633  0.00  0.00     0.021 A 
ENDBRANCH   5   8
ENDBRANCH   1   2
BRANCH   1  14
ATOM     14  C   UNL d   1     -43.730  13.035  21.338  0.00  0.00     0.099 C 
BRANCH  14  15
ATOM     15  C   UNL d   1     -44.296  12.797  21.882  0.00  0.00     0.286 C 
ATOM     16  N   UNL d   1     -45.005  13.200  21.950  0.00  0.00    -0.206 NA
ATOM     17  O   UNL d   1     -44.159  12.144  22.369  0.00  0.00    -0.265 OA
BRANCH  16  18
ATOM     18  C   UNL d   1     -45.580  12.958  22.502  0.00  0.00     0.107 A 
ATOM     19  C   UNL d   1     -46.136  13.497  22.782  0.00  0.00     0.112 A 
ATOM     20  C   UNL d   1     -46.700  13.259  23.322  0.00  0.00     0.026 A 
ATOM     21  C   UNL d   1     -46.718  12.475  23.595  0.00  0.00     0.002 A 
ATOM     22  C   UNL d   1     -46.159  11.928  23.316  0.00  0.00     0.002 A 
ATOM     23  C   UNL d   1     -45.592  12.175  22.769  0.00  0.00     0.021 A 
ATOM     24  C   UNL d   1     -46.175  11.157  23.582  0.00  0.00     0.000 C 
BRANCH  19  25
ATOM     25  O   UNL d   1     -46.184  14.244  22.575  0.00  0.00    -0.327 OA
ATOM     26  C   UNL d   1     -46.858  14.693  22.675  0.00  0.00     0.181 C 
ENDBRANCH  19  25
ENDBRANCH  16  18
ENDBRANCH  14  15
ENDBRANCH   1  14
TORSDOF 6
ENDMDL
MODEL 5
REMARK VINA RESULT:      -5.1      3.118      4.204
REMARK  6 active torsions:
REMARK  status: ('A' for Active; 'I' for Inactive)
REMARK    1  A    between atoms: C_3  and  N_4 
REMARK       I    between atoms: N_4  and  C_6 
REMARK    2  A    between atoms: C_9  and  C_5 
REMARK    3  A    between atoms: C_6  and  C_16 
REMARK    4  A    between atoms: S_12  and  C_7 
REMARK    5  A    between atoms: O_20  and  C_8 
REMARK    6  A    between atoms: C_16  and  S_12 
ROOT
ATOM      1  S   UNL d   1     -44.500  12.797  22.010  0.00  0.00    -0.061 SA
ENDROOT
BRANCH   1   2
ATOM      2  C   UNL d   1     -43.779  13.065  21.706  0.00  0.00     0.133 A 
ATOM      3  N   UNL d   1     -43.608  13.872  21.684  0.00  0.00    -0.141 NA
ATOM      4  N   UNL d   1     -42.887  14.140  21.380  0.00  0.00    -0.146 NA
ATOM      5  C   UNL d   1     -42.328  13.591  21.095  0.00  0.00     0.121 A 
ATOM      6  C   UNL d   1     -42.499  12.783  21.118  0.00  0.00     0.025 A 
ATOM      7  C   UNL d   1     -43.216  12.515  21.419  0.00  0.00     0.029 A 
BRANCH   5   8
ATOM      8  C   UNL d   1     -41.605  13.866  20.791  0.00  0.00     0.101 A 
ATOM      9  N   UNL d   1     -41.464  13.848  19.979  0.00  0.00    -0.242 NA
ATOM     10  C   UNL d   1     -40.756  14.118  19.693  0.00  0.00     0.099 A 
ATOM     11  C   UNL d   1     -40.172  14.414  20.209  0.00  0.00     0.021 A 
ATOM     12  C   UNL d   1     -40.316  14.430  21.018  0.00  0.00     0.003 A 
ATOM     13  C   UNL d   1     -41.034  14.157  21.319  0.00  0.00     0.021 A 
ENDBRANCH   5   8
ENDBRANCH   1   2
BRANCH   1  14
ATOM     14  C   UNL d   1     -45.148  13.297  22.045  0.00  0.00     0.099 C 
BRANCH  14  15
ATOM     15  C   UNL d   1     -45.806  13.078  22.484  0.00  0.00     0.286 C 
ATOM     16  N   UNL d   1     -46.560  13.273  22.232  0.00  0.00    -0.206 NA
ATOM     17  O   UNL d   1     -45.715  12.656  23.188  0.00  0.00    -0.265 OA
BRANCH  16  18
ATOM     18  C   UNL d   1     -47.227  13.050  22.678  0.00  0.00     0.107 A 
ATOM     19  C   UNL d   1     -47.823  13.597  22.831  0.00  0.00     0.112 A 
ATOM     20  C   UNL d   1     -48.477  13.379  23.267  0.00  0.00     0.026 A 
ATOM     21  C   UNL d   1     -48.548  12.606  23.561  0.00  0.00     0.002 A 
ATOM     22  C   UNL d   1     -47.950  12.050  23.410  0.00  0.00     0.002 A 
ATOM     23  C   UNL d   1     -47.291  12.278  22.968  0.00  0.00     0.021 A 
ATOM     24  C   UNL d   1     -48.018  11.289  23.698  0.00  0.00     0.000 C 
BRANCH  19  25
ATOM     25  O   UNL d   1     -47.829  14.337  22.591  0.00  0.00    -0.327 OA
ATOM     26  C   UNL d   1     -48.490  14.812  22.625  0.00  0.00     0.181 C 
ENDBRANCH  19  25
ENDBRANCH  16  18
ENDBRANCH  14  15
ENDBRANCH   1  14
TORSDOF 6
ENDMDL
MODEL 6
REMARK VINA RESULT:      -4.3      5.268      7.003
REMARK  6 active torsions:
REMARK  status: ('A' for Active; 'I' for Inactive)
REMARK    1  A    between atoms: C_3  and  N_4 
REMARK       I    between atoms: N_4  and  C_6 
REMARK    2  A    between atoms: C_9  and  C_5 
REMARK    3  A    between atoms: C_6  and  C_16 
REMARK    4  A    between atoms: S_12  and  C_7 
REMARK    5  A    between atoms: O_20  and  C_8 
REMARK    6  A    between atoms: C_16  and  S_12 
ROOT
ATOM      1  S   UNL d   1     -41.880  13.948  20.928  0.00  0.00    -0.061 SA
ENDROOT
BRANCH   1   2
ATOM      2  C   UNL d   1     -41.250  14.049  20.402  0.00  0.00     0.133 A 
ATOM      3  N   UNL d   1     -41.337  13.865  19.602  0.00  0.00    -0.141 NA
ATOM      4  N   UNL d   1     -40.706  13.967  19.077  0.00  0.00    -0.146 NA
ATOM      5  C   UNL d   1     -39.977  14.257  19.357  0.00  0.00     0.121 A 
ATOM      6  C   UNL d   1     -39.889  14.441  20.157  0.00  0.00     0.025 A 
ATOM      7  C   UNL d   1     -40.515  14.341  20.681  0.00  0.00     0.029 A 
BRANCH   5   8
ATOM      8  C   UNL d   1     -39.347  14.357  18.824  0.00  0.00     0.101 A 
ATOM      9  N   UNL d   1     -39.238  15.081  18.444  0.00  0.00    -0.242 NA
ATOM     10  C   UNL d   1     -38.621  15.168  17.927  0.00  0.00     0.099 A 
ATOM     11  C   UNL d   1     -38.098  14.536  17.776  0.00  0.00     0.021 A 
ATOM     12  C   UNL d   1     -38.210  13.817  18.156  0.00  0.00     0.003 A 
ATOM     13  C   UNL d   1     -38.835  13.718  18.685  0.00  0.00     0.021 A 
ENDBRANCH   5   8
ENDBRANCH   1   2
BRANCH   1  14
ATOM     14  C   UNL d   1     -42.309  13.250  20.933  0.00  0.00     0.099 C 
BRANCH  14  15
ATOM     15  C   UNL d   1     -42.996  13.200  21.379  0.00  0.00     0.286 C 
ATOM     16  N   UNL d   1     -43.372  12.482  21.486  0.00  0.00    -0.206 NA
ATOM     17  O   UNL d   1     -43.318  13.877  21.726  0.00  0.00    -0.265 OA
BRANCH  16  18
ATOM     18  C   UNL d   1     -44.070  12.431  21.939  0.00  0.00     0.107 A 
ATOM     19  C   UNL d   1     -44.150  11.843  22.509  0.00  0.00     0.112 A 
ATOM     20  C   UNL d   1     -44.834  11.793  22.952  0.00  0.00     0.026 A 
ATOM     21  C   UNL d   1     -45.453  12.334  22.833  0.00  0.00     0.002 A 
ATOM     22  C   UNL d   1     -45.377  12.929  22.259  0.00  0.00     0.002 A 
ATOM     23  C   UNL d   1     -44.683  12.973  21.815  0.00  0.00     0.021 A 
ATOM     24  C   UNL d   1     -45.984  13.461  22.141  0.00  0.00     0.000 C 
BRANCH  19  25
ATOM     25  O   UNL d   1     -43.618  11.302  22.678  0.00  0.00    -0.327 OA
ATOM     26  C   UNL d   1     -43.740  10.712  23.227  0.00  0.00     0.181 C 
ENDBRANCH  19  25
ENDBRANCH  16  18
ENDBRANCH  14  15
ENDBRANCH   1  14
TORSDOF 6
ENDMDL
