MODEL 1
REMARK VINA RESULT:      14.4      0.000      0.000
REMARK  1 active torsions:
REMARK  status: ('A' for Active; 'I' for Inactive)
REMARK    1  A    between atoms: C_4  and  C_1 
ROOT
ATOM      1  C   UNL d   1     -52.094  25.050  33.338  0.00  0.00     0.112 A 
ATOM      2  N   UNL d   1     -52.133  25.881  33.349  0.00  0.00    -0.238 NA
ATOM      3  S   UNL d   1     -51.291  24.827  33.323  0.00  0.00    -0.066 SA
ATOM      4  C   UNL d   1     -51.355  26.171  33.342  0.00  0.00     0.088 A 
ATOM      5  C   UNL d   1     -50.836  25.522  33.326  0.00  0.00     0.049 A 
ATOM      6  C   UNL d   1     -51.054  26.939  33.348  0.00  0.00     0.020 A 
ATOM      7  C   UNL d   1     -50.020  25.644  33.315  0.00  0.00     0.008 A 
ATOM      8  C   UNL d   1     -49.720  26.413  33.321  0.00  0.00     0.001 A 
ATOM      9  C   UNL d   1     -50.239  27.062  33.338  0.00  0.00     0.002 A 
ENDROOT
BRANCH   1  10
ATOM     10  C   UNL d   1     -52.738  24.531  33.340  0.00  0.00     0.043 A 
ATOM     11  C   UNL d   1     -52.605  23.713  33.358  0.00  0.00     0.105 A 
ATOM     12  N   UNL d   1     -51.833  23.421  33.373  0.00  0.00    -0.148 N 
ATOM     13  C   UNL d   1     -53.248  23.194  33.360  0.00  0.00     0.021 A 
ATOM     14  C   UNL d   1     -54.020  23.486  33.345  0.00  0.00     0.002 A 
ATOM     15  C   UNL d   1     -54.141  24.309  33.328  0.00  0.00     0.000 A 
ATOM     16  C   UNL d   1     -53.510  24.823  33.325  0.00  0.00     0.004 A 
ENDBRANCH   1  10
TORSDOF 1
ENDMDL
MODEL 2
REMARK VINA RESULT:      14.4      0.640      3.514
REMARK  1 active torsions:
REMARK  status: ('A' for Active; 'I' for Inactive)
REMARK    1  A    between atoms: C_4  and  C_1 
ROOT
ATOM      1  C   UNL d   1     -51.524  25.236  33.346  0.00  0.00     0.112 A 
ATOM      2  N   UNL d   1     -52.327  25.445  33.396  0.00  0.00    -0.238 NA
ATOM      3  S   UNL d   1     -51.473  24.405  33.306  0.00  0.00    -0.066 SA
ATOM      4  C   UNL d   1     -52.773  24.745  33.388  0.00  0.00     0.088 A 
ATOM      5  C   UNL d   1     -52.247  24.104  33.332  0.00  0.00     0.049 A 
ATOM      6  C   UNL d   1     -53.586  24.610  33.424  0.00  0.00     0.020 A 
ATOM      7  C   UNL d   1     -52.536  23.331  33.313  0.00  0.00     0.008 A 
ATOM      8  C   UNL d   1     -53.350  23.197  33.348  0.00  0.00     0.001 A 
ATOM      9  C   UNL d   1     -53.876  23.838  33.404  0.00  0.00     0.002 A 
ENDROOT
BRANCH   1  10
ATOM     10  C   UNL d   1     -50.883  25.758  33.336  0.00  0.00     0.043 A 
ATOM     11  C   UNL d   1     -51.019  26.576  33.326  0.00  0.00     0.105 A 
ATOM     12  N   UNL d   1     -51.792  26.864  33.325  0.00  0.00    -0.148 N 
ATOM     13  C   UNL d   1     -50.379  27.097  33.316  0.00  0.00     0.021 A 
ATOM     14  C   UNL d   1     -49.605  26.808  33.317  0.00  0.00     0.002 A 
ATOM     15  C   UNL d   1     -49.481  25.986  33.328  0.00  0.00     0.000 A 
ATOM     16  C   UNL d   1     -50.110  25.470  33.337  0.00  0.00     0.004 A 
ENDBRANCH   1  10
TORSDOF 1
ENDMDL
MODEL 3
REMARK VINA RESULT:      16.2      0.829      1.186
REMARK  1 active torsions:
REMARK  status: ('A' for Active; 'I' for Inactive)
REMARK    1  A    between atoms: C_4  and  C_1 
ROOT
ATOM      1  C   UNL d   1     -51.766  25.320  33.354  0.00  0.00     0.112 A 
ATOM      2  N   UNL d   1     -52.088  26.086  33.339  0.00  0.00    -0.238 NA
ATOM      3  S   UNL d   1     -50.935  25.387  33.360  0.00  0.00    -0.066 SA
ATOM      4  C   UNL d   1     -51.457  26.626  33.336  0.00  0.00     0.088 A 
ATOM      5  C   UNL d   1     -50.747  26.196  33.349  0.00  0.00     0.049 A 
ATOM      6  C   UNL d   1     -51.440  27.451  33.323  0.00  0.00     0.020 A 
ATOM      7  C   UNL d   1     -50.022  26.591  33.348  0.00  0.00     0.008 A 
ATOM      8  C   UNL d   1     -50.006  27.416  33.335  0.00  0.00     0.001 A 
ATOM      9  C   UNL d   1     -50.717  27.847  33.322  0.00  0.00     0.002 A 
ENDROOT
BRANCH   1  10
ATOM     10  C   UNL d   1     -52.191  24.611  33.362  0.00  0.00     0.043 A 
ATOM     11  C   UNL d   1     -53.019  24.629  33.405  0.00  0.00     0.105 A 
ATOM     12  N   UNL d   1     -53.413  25.353  33.439  0.00  0.00    -0.148 N 
ATOM     13  C   UNL d   1     -53.444  23.921  33.413  0.00  0.00     0.021 A 
ATOM     14  C   UNL d   1     -53.049  23.197  33.379  0.00  0.00     0.002 A 
ATOM     15  C   UNL d   1     -52.219  23.191  33.336  0.00  0.00     0.000 A 
ATOM     16  C   UNL d   1     -51.796  23.887  33.328  0.00  0.00     0.004 A 
ENDBRANCH   1  10
TORSDOF 1
ENDMDL
