MODEL 1
REMARK VINA RESULT:      -7.0      0.000      0.000
REMARK  8 active torsions:
REMARK  status: ('A' for Active; 'I' for Inactive)
REMARK    1  A    between atoms: C_9  and  N_1 
REMARK    2  A    between atoms: C_7  and  C_2 
REMARK    3  A    between atoms: C_6  and  C_4 
REMARK    4  A    between atoms: C_8  and  C_12 
REMARK       I    between atoms: N_25  and  C_8 
REMARK    5  A    between atoms: N_11  and  C_26 
REMARK    6  A    between atoms: C_30  and  N_25 
REMARK    7  A    between atoms: C_26  and  C_27 
REMARK    8  A    between atoms: C_27  and  C_30 
ROOT
ATOM      1  C   UNL d   1     -46.924  13.578  22.567  0.00  0.00     0.083 A 
ATOM      2  C   UNL d   1     -45.388  13.081  22.228  0.00  0.00     0.058 A 
ATOM      3  C   UNL d   1     -46.756  13.252  21.830  0.00  0.00     0.019 A 
ATOM      4  C   UNL d   1     -46.332  13.657  23.136  0.00  0.00     0.019 A 
ATOM      5  C   UNL d   1     -45.568  13.411  22.971  0.00  0.00     0.006 A 
ATOM      6  C   UNL d   1     -45.995  13.005  21.661  0.00  0.00     0.006 A 
ENDROOT
BRANCH   1   7
ATOM      7  N   UNL d   1     -47.694  13.829  22.743  0.00  0.00    -0.229 N 
ATOM      8  C   UNL d   1     -48.301  13.368  23.053  0.00  0.00     0.090 A 
ATOM      9  C   UNL d   1     -48.968  13.844  23.138  0.00  0.00     0.044 A 
ATOM     10  C   UNL d   1     -48.765  14.602  22.877  0.00  0.00     0.174 A 
ATOM     11  N   UNL d   1     -47.981  14.582  22.636  0.00  0.00    -0.161 NA
BRANCH   8  12
ATOM     12  C   UNL d   1     -48.337  12.573  23.272  0.00  0.00     0.047 A 
ATOM     13  S   UNL d   1     -47.952  11.968  23.698  0.00  0.00    -0.085 SA
ATOM     14  C   UNL d   1     -48.403  11.275  23.625  0.00  0.00     0.035 A 
ATOM     15  C   UNL d   1     -49.055  11.452  23.161  0.00  0.00     0.007 A 
ATOM     16  C   UNL d   1     -49.024  12.237  22.942  0.00  0.00     0.009 A 
ENDBRANCH   8  12
BRANCH  10  17
ATOM     17  C   UNL d   1     -49.265  15.262  22.862  0.00  0.00     0.437 C 
ATOM     18  F   UNL d   1     -49.406  15.858  23.474  0.00  0.00    -0.164 F 
ATOM     19  F   UNL d   1     -49.788  15.542  22.230  0.00  0.00    -0.164 F 
ATOM     20  F   UNL d   1     -49.722  15.865  22.848  0.00  0.00    -0.164 F 
ENDBRANCH  10  17
ENDBRANCH   1   7
BRANCH   2  21
ATOM     21  C   UNL d   1     -44.619  12.831  22.058  0.00  0.00     0.279 C 
ATOM     22  O   UNL d   1     -44.364  12.093  22.310  0.00  0.00    -0.265 OA
ATOM     23  N   UNL d   1     -44.113  13.328  21.637  0.00  0.00    -0.206 NA
BRANCH  23  24
ATOM     24  C   UNL d   1     -43.347  13.079  21.468  0.00  0.00     0.104 C 
BRANCH  24  25
ATOM     25  C   UNL d   1     -42.816  13.593  21.094  0.00  0.00     0.040 C 
BRANCH  25  26
ATOM     26  C   UNL d   1     -42.010  13.452  21.122  0.00  0.00     0.082 C 
BRANCH  26  27
ATOM     27  N   UNL d   1     -41.474  13.990  20.794  0.00  0.00    -0.299 N 
ATOM     28  C   UNL d   1     -41.124  13.826  20.063  0.00  0.00     0.107 A 
ATOM     29  C   UNL d   1     -40.591  14.368  19.745  0.00  0.00     0.142 A 
ATOM     30  O   UNL d   1     -40.411  15.061  20.146  0.00  0.00    -0.300 OA
ATOM     31  C   UNL d   1     -40.763  15.218  20.873  0.00  0.00     0.142 A 
ATOM     32  C   UNL d   1     -41.302  14.679  21.205  0.00  0.00     0.107 A 
ENDBRANCH  26  27
ENDBRANCH  25  26
ENDBRANCH  24  25
ENDBRANCH  23  24
ENDBRANCH   2  21
TORSDOF 8
ENDMDL
MODEL 2
REMARK VINA RESULT:      -5.3      1.544      2.224
REMARK  8 active torsions:
REMARK  status: ('A' for Active; 'I' for Inactive)
REMARK    1  A    between atoms: C_9  and  N_1 
REMARK    2  A    between atoms: C_7  and  C_2 
REMARK    3  A    between atoms: C_6  and  C_4 
REMARK    4  A    between atoms: C_8  and  C_12 
REMARK       I    between atoms: N_25  and  C_8 
REMARK    5  A    between atoms: N_11  and  C_26 
REMARK    6  A    between atoms: C_30  and  N_25 
REMARK    7  A    between atoms: C_26  and  C_27 
REMARK    8  A    between atoms: C_27  and  C_30 
ROOT
ATOM      1  C   UNL d   1     -46.795  12.629  22.516  0.00  0.00     0.083 A 
ATOM      2  C   UNL d   1     -45.169  12.525  22.259  0.00  0.00     0.058 A 
ATOM      3  C   UNL d   1     -46.288  12.531  23.157  0.00  0.00     0.019 A 
ATOM      4  C   UNL d   1     -46.497  12.676  21.748  0.00  0.00     0.019 A 
ATOM      5  C   UNL d   1     -45.690  12.624  21.617  0.00  0.00     0.006 A 
ATOM      6  C   UNL d   1     -45.482  12.479  23.031  0.00  0.00     0.006 A 
ENDROOT
BRANCH   1   7
ATOM      7  N   UNL d   1     -47.613  12.683  22.640  0.00  0.00    -0.229 N 
ATOM      8  C   UNL d   1     -48.056  13.374  22.694  0.00  0.00     0.090 A 
ATOM      9  C   UNL d   1     -48.844  13.166  22.818  0.00  0.00     0.044 A 
ATOM     10  C   UNL d   1     -48.880  12.340  22.838  0.00  0.00     0.174 A 
ATOM     11  N   UNL d   1     -48.120  12.053  22.728  0.00  0.00    -0.161 NA
BRANCH   8  12
ATOM     12  C   UNL d   1     -47.847  14.171  22.648  0.00  0.00     0.047 A 
ATOM     13  S   UNL d   1     -47.246  14.726  22.809  0.00  0.00    -0.085 SA
ATOM     14  C   UNL d   1     -47.514  15.474  22.569  0.00  0.00     0.035 A 
ATOM     15  C   UNL d   1     -48.270  15.380  22.265  0.00  0.00     0.007 A 
ATOM     16  C   UNL d   1     -48.480  14.593  22.309  0.00  0.00     0.009 A 
ENDBRANCH   8  12
BRANCH  10  17
ATOM     17  C   UNL d   1     -49.563  11.886  22.950  0.00  0.00     0.437 C 
ATOM     18  F   UNL d   1     -50.250  11.791  22.431  0.00  0.00    -0.164 F 
ATOM     19  F   UNL d   1     -49.783  11.378  23.617  0.00  0.00    -0.164 F 
ATOM     20  F   UNL d   1     -50.187  11.471  23.052  0.00  0.00    -0.164 F 
ENDBRANCH  10  17
ENDBRANCH   1   7
BRANCH   2  21
ATOM     21  C   UNL d   1     -44.354  12.472  22.130  0.00  0.00     0.279 C 
ATOM     22  O   UNL d   1     -43.930  11.848  22.453  0.00  0.00    -0.265 OA
ATOM     23  N   UNL d   1     -43.975  13.048  21.679  0.00  0.00    -0.206 NA
BRANCH  23  24
ATOM     24  C   UNL d   1     -43.164  12.995  21.551  0.00  0.00     0.104 C 
BRANCH  24  25
ATOM     25  C   UNL d   1     -42.760  13.614  21.177  0.00  0.00     0.040 C 
BRANCH  25  26
ATOM     26  C   UNL d   1     -41.942  13.631  21.165  0.00  0.00     0.082 C 
BRANCH  26  27
ATOM     27  N   UNL d   1     -41.537  14.234  20.768  0.00  0.00    -0.299 N 
ATOM     28  C   UNL d   1     -41.533  15.000  21.080  0.00  0.00     0.107 A 
ATOM     29  C   UNL d   1     -41.126  15.592  20.677  0.00  0.00     0.142 A 
ATOM     30  O   UNL d   1     -40.731  15.426  19.977  0.00  0.00    -0.300 OA
ATOM     31  C   UNL d   1     -40.739  14.661  19.673  0.00  0.00     0.142 A 
ATOM     32  C   UNL d   1     -41.145  14.055  20.069  0.00  0.00     0.107 A 
ENDBRANCH  26  27
ENDBRANCH  25  26
ENDBRANCH  24  25
ENDBRANCH  23  24
ENDBRANCH   2  21
TORSDOF 8
ENDMDL
MODEL 3
REMARK VINA RESULT:      -4.5      4.004      7.611
REMARK  8 active torsions:
REMARK  status: ('A' for Active; 'I' for Inactive)
REMARK    1  A    between atoms: C_9  and  N_1 
REMARK    2  A    between atoms: C_7  and  C_2 
REMARK    3  A    between atoms: C_6  and  C_4 
REMARK    4  A    between atoms: C_8  and  C_12 
REMARK       I    between atoms: N_25  and  C_8 
REMARK    5  A    between atoms: N_11  and  C_26 
REMARK    6  A    between atoms: C_30  and  N_25 
REMARK    7  A    between atoms: C_26  and  C_27 
REMARK    8  A    between atoms: C_27  and  C_30 
ROOT
ATOM      1  C   UNL d   1     -41.167  14.221  20.999  0.00  0.00     0.083 A 
ATOM      2  C   UNL d   1     -42.627  13.466  21.150  0.00  0.00     0.058 A 
ATOM      3  C   UNL d   1     -41.194  13.403  21.093  0.00  0.00     0.019 A 
ATOM      4  C   UNL d   1     -41.863  14.664  20.981  0.00  0.00     0.019 A 
ATOM      5  C   UNL d   1     -42.589  14.293  21.055  0.00  0.00     0.006 A 
ATOM      6  C   UNL d   1     -41.917  13.029  21.167  0.00  0.00     0.006 A 
ENDROOT
BRANCH   1   7
ATOM      7  N   UNL d   1     -40.437  14.605  20.923  0.00  0.00    -0.229 N 
ATOM      8  C   UNL d   1     -40.038  14.762  20.221  0.00  0.00     0.090 A 
ATOM      9  C   UNL d   1     -39.335  15.153  20.407  0.00  0.00     0.044 A 
ATOM     10  C   UNL d   1     -39.309  15.233  21.229  0.00  0.00     0.174 A 
ATOM     11  N   UNL d   1     -39.989  14.894  21.537  0.00  0.00    -0.161 NA
BRANCH   8  12
ATOM     12  C   UNL d   1     -40.218  14.602  19.433  0.00  0.00     0.047 A 
ATOM     13  S   UNL d   1     -40.802  14.675  18.842  0.00  0.00    -0.085 SA
ATOM     14  C   UNL d   1     -40.507  14.337  18.143  0.00  0.00     0.035 A 
ATOM     15  C   UNL d   1     -39.751  14.061  18.304  0.00  0.00     0.007 A 
ATOM     16  C   UNL d   1     -39.568  14.217  19.082  0.00  0.00     0.009 A 
ENDBRANCH   8  12
BRANCH  10  17
ATOM     17  C   UNL d   1     -38.702  15.593  21.663  0.00  0.00     0.437 C 
ATOM     18  F   UNL d   1     -38.659  15.761  22.512  0.00  0.00    -0.164 F 
ATOM     19  F   UNL d   1     -37.940  15.903  21.391  0.00  0.00    -0.164 F 
ATOM     20  F   UNL d   1     -38.148  15.922  22.060  0.00  0.00    -0.164 F 
ENDBRANCH  10  17
ENDBRANCH   1   7
BRANCH   2  21
ATOM     21  C   UNL d   1     -43.358  13.088  21.225  0.00  0.00     0.279 C 
ATOM     22  O   UNL d   1     -43.546  12.461  20.729  0.00  0.00    -0.265 OA
ATOM     23  N   UNL d   1     -43.892  13.343  21.799  0.00  0.00    -0.206 NA
BRANCH  23  24
ATOM     24  C   UNL d   1     -44.619  12.966  21.873  0.00  0.00     0.104 C 
BRANCH  24  25
ATOM     25  C   UNL d   1     -45.279  13.386  22.145  0.00  0.00     0.040 C 
BRANCH  25  26
ATOM     26  C   UNL d   1     -45.804  13.043  22.672  0.00  0.00     0.082 C 
BRANCH  26  27
ATOM     27  N   UNL d   1     -46.579  13.323  22.741  0.00  0.00    -0.299 N 
ATOM     28  C   UNL d   1     -46.717  14.134  22.830  0.00  0.00     0.107 A 
ATOM     29  C   UNL d   1     -47.493  14.402  22.898  0.00  0.00     0.142 A 
ATOM     30  O   UNL d   1     -48.120  13.873  22.877  0.00  0.00    -0.300 OA
ATOM     31  C   UNL d   1     -47.977  13.067  22.788  0.00  0.00     0.142 A 
ATOM     32  C   UNL d   1     -47.199  12.784  22.718  0.00  0.00     0.107 A 
ENDBRANCH  26  27
ENDBRANCH  25  26
ENDBRANCH  24  25
ENDBRANCH  23  24
ENDBRANCH   2  21
TORSDOF 8
ENDMDL
MODEL 4
REMARK VINA RESULT:      -4.5      3.995      7.532
REMARK  8 active torsions:
REMARK  status: ('A' for Active; 'I' for Inactive)
REMARK    1  A    between atoms: C_9  and  N_1 
REMARK    2  A    between atoms: C_7  and  C_2 
REMARK    3  A    between atoms: C_6  and  C_4 
REMARK    4  A    between atoms: C_8  and  C_12 
REMARK       I    between atoms: N_25  and  C_8 
REMARK    5  A    between atoms: N_11  and  C_26 
REMARK    6  A    between atoms: C_30  and  N_25 
REMARK    7  A    between atoms: C_26  and  C_27 
REMARK    8  A    between atoms: C_27  and  C_30 
ROOT
ATOM      1  C   UNL d   1     -41.263  14.147  20.537  0.00  0.00     0.083 A 
ATOM      2  C   UNL d   1     -42.534  13.368  21.245  0.00  0.00     0.058 A 
ATOM      3  C   UNL d   1     -41.268  13.324  20.571  0.00  0.00     0.019 A 
ATOM      4  C   UNL d   1     -41.888  14.583  20.854  0.00  0.00     0.019 A 
ATOM      5  C   UNL d   1     -42.520  14.199  21.206  0.00  0.00     0.006 A 
ATOM      6  C   UNL d   1     -41.897  12.937  20.921  0.00  0.00     0.006 A 
ENDROOT
BRANCH   1   7
ATOM      7  N   UNL d   1     -40.628  14.543  20.183  0.00  0.00    -0.229 N 
ATOM      8  C   UNL d   1     -39.930  14.777  20.551  0.00  0.00     0.090 A 
ATOM      9  C   UNL d   1     -39.456  15.152  19.991  0.00  0.00     0.044 A 
ATOM     10  C   UNL d   1     -39.870  15.146  19.275  0.00  0.00     0.174 A 
ATOM     11  N   UNL d   1     -40.587  14.770  19.403  0.00  0.00    -0.161 NA
BRANCH   8  12
ATOM     12  C   UNL d   1     -39.660  14.700  21.327  0.00  0.00     0.047 A 
ATOM     13  S   UNL d   1     -39.495  14.155  21.937  0.00  0.00    -0.085 SA
ATOM     14  C   UNL d   1     -39.217  14.580  22.594  0.00  0.00     0.035 A 
ATOM     15  C   UNL d   1     -39.211  15.375  22.389  0.00  0.00     0.007 A 
ATOM     16  C   UNL d   1     -39.477  15.456  21.623  0.00  0.00     0.009 A 
ENDBRANCH   8  12
BRANCH  10  17
ATOM     17  C   UNL d   1     -39.605  15.463  18.557  0.00  0.00     0.437 C 
ATOM     18  F   UNL d   1     -38.818  15.426  18.198  0.00  0.00    -0.164 F 
ATOM     19  F   UNL d   1     -40.040  15.921  17.963  0.00  0.00    -0.164 F 
ATOM     20  F   UNL d   1     -39.363  15.753  17.902  0.00  0.00    -0.164 F 
ENDBRANCH  10  17
ENDBRANCH   1   7
BRANCH   2  21
ATOM     21  C   UNL d   1     -43.170  12.977  21.599  0.00  0.00     0.279 C 
ATOM     22  O   UNL d   1     -43.068  12.221  21.902  0.00  0.00    -0.265 OA
ATOM     23  N   UNL d   1     -43.904  13.351  21.644  0.00  0.00    -0.206 NA
BRANCH  23  24
ATOM     24  C   UNL d   1     -44.536  12.961  21.997  0.00  0.00     0.104 C 
BRANCH  24  25
ATOM     25  C   UNL d   1     -45.276  13.331  22.048  0.00  0.00     0.040 C 
BRANCH  25  26
ATOM     26  C   UNL d   1     -45.849  13.049  22.560  0.00  0.00     0.082 C 
BRANCH  26  27
ATOM     27  N   UNL d   1     -46.611  13.371  22.563  0.00  0.00    -0.299 N 
ATOM     28  C   UNL d   1     -47.247  12.925  22.281  0.00  0.00     0.107 A 
ATOM     29  C   UNL d   1     -48.001  13.256  22.288  0.00  0.00     0.142 A 
ATOM     30  O   UNL d   1     -48.121  14.017  22.571  0.00  0.00    -0.300 OA
ATOM     31  C   UNL d   1     -47.483  14.456  22.851  0.00  0.00     0.142 A 
ATOM     32  C   UNL d   1     -46.718  14.134  22.849  0.00  0.00     0.107 A 
ENDBRANCH  26  27
ENDBRANCH  25  26
ENDBRANCH  24  25
ENDBRANCH  23  24
ENDBRANCH   2  21
TORSDOF 8
ENDMDL
