MODEL 1
REMARK VINA RESULT:      30.8      0.000      0.000
REMARK  4 active torsions:
REMARK  status: ('A' for Active; 'I' for Inactive)
REMARK    1  A    between atoms: N_14  and  S_1 
REMARK    2  A    between atoms: C_5  and  C_17 
REMARK    3  A    between atoms: C_18  and  N_14 
REMARK    4  A    between atoms: C_17  and  C_18 
ROOT
ATOM      1  N   UNL d   1      13.289  13.507  -3.236  0.00  0.00    -0.208 NA
ATOM      2  C   UNL d   1      13.425  13.113  -2.519  0.00  0.00     0.279 A 
ATOM      3  C   UNL d   1      13.203  13.075  -3.942  0.00  0.00     0.085 A 
ATOM      4  C   UNL d   1      13.477  12.289  -2.505  0.00  0.00     0.059 A 
ATOM      5  C   UNL d   1      13.392  11.853  -3.208  0.00  0.00     0.006 A 
ATOM      6  C   UNL d   1      13.256  12.251  -3.920  0.00  0.00     0.018 A 
ATOM      7  C   UNL d   1      13.067  13.469  -4.655  0.00  0.00     0.019 A 
ATOM      8  C   UNL d   1      13.170  11.818  -4.626  0.00  0.00     0.002 A 
ATOM      9  C   UNL d   1      12.983  13.037  -5.353  0.00  0.00     0.002 A 
ATOM     10  C   UNL d   1      13.034  12.213  -5.339  0.00  0.00     0.000 A 
ATOM     11  O   UNL d   1      13.510  13.545  -1.821  0.00  0.00    -0.265 OA
ATOM     12  C   UNL d   1      12.950  11.780  -6.037  0.00  0.00     0.000 C 
ATOM     13  C   UNL d   1      12.847  13.431  -6.065  0.00  0.00     0.000 C 
ENDROOT
BRANCH   4  14
ATOM     14  C   UNL d   1      13.613  11.895  -1.793  0.00  0.00     0.026 C 
BRANCH  14  15
ATOM     15  C   UNL d   1      14.100  12.237  -1.221  0.00  0.00     0.112 C 
BRANCH  15  16
ATOM     16  N   UNL d   1      14.673  11.780  -0.845  0.00  0.00    -0.160 NA
BRANCH  16  17
ATOM     17  S   UNL d   1      15.452  12.067  -0.768  0.00  0.00     0.266 S 
ATOM     18  O   UNL d   1      15.110  12.149  -0.016  0.00  0.00    -0.203 OA
ATOM     19  O   UNL d   1      16.156  12.383  -0.483  0.00  0.00    -0.203 OA
ATOM     20  C   UNL d   1      15.769  11.974  -1.526  0.00  0.00     0.165 C 
ENDBRANCH  16  17
ENDBRANCH  15  16
ENDBRANCH  14  15
ENDBRANCH   4  14
TORSDOF 4
ENDMDL
