MODEL 1
REMARK VINA RESULT:      -6.8      0.000      0.000
REMARK  4 active torsions:
REMARK  status: ('A' for Active; 'I' for Inactive)
REMARK       I    between atoms: C_2  and  N_1 
REMARK    1  A    between atoms: C_7  and  N_1 
REMARK    2  A    between atoms: C_5  and  C_2 
REMARK    3  A    between atoms: C_3  and  C_6 
REMARK    4  A    between atoms: C_6  and  C_5 
ROOT
ATOM      1  N   UNL d   1     -47.652  13.220  22.993  0.00  0.00    -0.208 NA
ATOM      2  C   UNL d   1     -47.904  13.995  22.914  0.00  0.00     0.279 C 
ATOM      3  O   UNL d   1     -47.364  14.585  22.714  0.00  0.00    -0.265 OA
ENDROOT
BRANCH   2   4
ATOM      4  C   UNL d   1     -48.696  14.189  23.031  0.00  0.00     0.063 C 
BRANCH   4   5
ATOM      5  C   UNL d   1     -48.938  14.977  23.010  0.00  0.00     0.011 C 
BRANCH   5   6
ATOM      6  C   UNL d   1     -49.721  15.175  23.171  0.00  0.00     0.030 A 
ATOM      7  S   UNL d   1     -50.447  14.818  22.968  0.00  0.00    -0.086 SA
ATOM      8  C   UNL d   1     -51.063  15.275  23.291  0.00  0.00     0.035 A 
ATOM      9  C   UNL d   1     -50.728  15.919  23.697  0.00  0.00     0.007 A 
ATOM     10  C   UNL d   1     -49.891  15.860  23.624  0.00  0.00     0.007 A 
ENDBRANCH   5   6
ENDBRANCH   4   5
ENDBRANCH   2   4
BRANCH   1  11
ATOM     11  C   UNL d   1     -46.860  13.026  22.875  0.00  0.00     0.085 A 
ATOM     12  C   UNL d   1     -46.552  12.362  23.226  0.00  0.00     0.018 A 
ATOM     13  C   UNL d   1     -47.025  11.881  23.698  0.00  0.00     0.002 C 
ATOM     14  C   UNL d   1     -45.755  12.158  23.113  0.00  0.00     0.002 A 
ATOM     15  C   UNL d   1     -45.277  12.638  22.639  0.00  0.00     0.000 A 
ATOM     16  C   UNL d   1     -45.588  13.314  22.282  0.00  0.00     0.002 A 
ATOM     17  C   UNL d   1     -46.379  13.508  22.399  0.00  0.00     0.019 A 
ENDBRANCH   1  11
TORSDOF 4
ENDMDL
MODEL 2
REMARK VINA RESULT:      -6.2      1.420      4.321
REMARK  4 active torsions:
REMARK  status: ('A' for Active; 'I' for Inactive)
REMARK       I    between atoms: C_2  and  N_1 
REMARK    1  A    between atoms: C_7  and  N_1 
REMARK    2  A    between atoms: C_5  and  C_2 
REMARK    3  A    between atoms: C_3  and  C_6 
REMARK    4  A    between atoms: C_6  and  C_5 
ROOT
ATOM      1  N   UNL d   1     -49.061  13.985  23.238  0.00  0.00    -0.208 NA
ATOM      2  C   UNL d   1     -48.344  14.246  22.942  0.00  0.00     0.279 C 
ATOM      3  O   UNL d   1     -48.238  15.045  22.767  0.00  0.00    -0.265 OA
ENDROOT
BRANCH   2   4
ATOM      4  C   UNL d   1     -47.728  13.715  22.816  0.00  0.00     0.063 C 
BRANCH   4   5
ATOM      5  C   UNL d   1     -46.946  13.974  22.834  0.00  0.00     0.011 C 
BRANCH   5   6
ATOM      6  C   UNL d   1     -46.328  13.441  22.721  0.00  0.00     0.030 A 
ATOM      7  S   UNL d   1     -46.196  12.665  22.996  0.00  0.00    -0.086 SA
ATOM      8  C   UNL d   1     -45.466  12.401  22.697  0.00  0.00     0.035 A 
ATOM      9  C   UNL d   1     -45.136  13.010  22.234  0.00  0.00     0.007 A 
ATOM     10  C   UNL d   1     -45.672  13.659  22.248  0.00  0.00     0.007 A 
ENDBRANCH   5   6
ENDBRANCH   4   5
ENDBRANCH   2   4
BRANCH   1  11
ATOM     11  C   UNL d   1     -49.678  14.517  23.364  0.00  0.00     0.085 A 
ATOM     12  C   UNL d   1     -50.430  14.238  23.491  0.00  0.00     0.018 A 
ATOM     13  C   UNL d   1     -50.581  13.429  23.496  0.00  0.00     0.002 C 
ATOM     14  C   UNL d   1     -51.058  14.766  23.619  0.00  0.00     0.002 A 
ATOM     15  C   UNL d   1     -50.910  15.580  23.615  0.00  0.00     0.000 A 
ATOM     16  C   UNL d   1     -50.147  15.865  23.486  0.00  0.00     0.002 A 
ATOM     17  C   UNL d   1     -49.531  15.334  23.360  0.00  0.00     0.019 A 
ENDBRANCH   1  11
TORSDOF 4
ENDMDL
MODEL 3
REMARK VINA RESULT:      -6.1      1.544      2.063
REMARK  4 active torsions:
REMARK  status: ('A' for Active; 'I' for Inactive)
REMARK       I    between atoms: C_2  and  N_1 
REMARK    1  A    between atoms: C_7  and  N_1 
REMARK    2  A    between atoms: C_5  and  C_2 
REMARK    3  A    between atoms: C_3  and  C_6 
REMARK    4  A    between atoms: C_6  and  C_5 
ROOT
ATOM      1  N   UNL d   1     -47.789  12.641  23.344  0.00  0.00    -0.208 NA
ATOM      2  C   UNL d   1     -48.533  12.321  23.226  0.00  0.00     0.279 C 
ATOM      3  O   UNL d   1     -48.623  11.504  23.152  0.00  0.00    -0.265 OA
ENDROOT
BRANCH   2   4
ATOM      4  C   UNL d   1     -49.195  12.809  23.180  0.00  0.00     0.063 C 
BRANCH   4   5
ATOM      5  C   UNL d   1     -49.751  12.700  22.582  0.00  0.00     0.011 C 
BRANCH   5   6
ATOM      6  C   UNL d   1     -50.258  13.313  22.370  0.00  0.00     0.030 A 
ATOM      7  S   UNL d   1     -50.560  13.968  22.791  0.00  0.00    -0.086 SA
ATOM      8  C   UNL d   1     -51.053  14.403  22.281  0.00  0.00     0.035 A 
ATOM      9  C   UNL d   1     -51.062  14.025  21.539  0.00  0.00     0.007 A 
ATOM     10  C   UNL d   1     -50.568  13.346  21.592  0.00  0.00     0.007 A 
ENDBRANCH   5   6
ENDBRANCH   4   5
ENDBRANCH   2   4
BRANCH   1  11
ATOM     11  C   UNL d   1     -47.128  12.152  23.390  0.00  0.00     0.085 A 
ATOM     12  C   UNL d   1     -46.397  12.443  23.189  0.00  0.00     0.018 A 
ATOM     13  C   UNL d   1     -46.313  13.223  22.939  0.00  0.00     0.002 C 
ATOM     14  C   UNL d   1     -45.725  11.958  23.231  0.00  0.00     0.002 A 
ATOM     15  C   UNL d   1     -45.806  11.174  23.482  0.00  0.00     0.000 A 
ATOM     16  C   UNL d   1     -46.548  10.876  23.687  0.00  0.00     0.002 A 
ATOM     17  C   UNL d   1     -47.209  11.364  23.642  0.00  0.00     0.019 A 
ENDBRANCH   1  11
TORSDOF 4
ENDMDL
MODEL 4
REMARK VINA RESULT:      -5.6      2.185      4.419
REMARK  4 active torsions:
REMARK  status: ('A' for Active; 'I' for Inactive)
REMARK       I    between atoms: C_2  and  N_1 
REMARK    1  A    between atoms: C_7  and  N_1 
REMARK    2  A    between atoms: C_5  and  C_2 
REMARK    3  A    between atoms: C_3  and  C_6 
REMARK    4  A    between atoms: C_6  and  C_5 
ROOT
ATOM      1  N   UNL d   1     -48.858  12.671  22.360  0.00  0.00    -0.208 NA
ATOM      2  C   UNL d   1     -48.199  12.750  22.840  0.00  0.00     0.279 C 
ATOM      3  O   UNL d   1     -48.271  12.658  23.657  0.00  0.00    -0.265 OA
ENDROOT
BRANCH   2   4
ATOM      4  C   UNL d   1     -47.463  12.921  22.512  0.00  0.00     0.063 C 
BRANCH   4   5
ATOM      5  C   UNL d   1     -46.777  12.826  22.959  0.00  0.00     0.011 C 
BRANCH   5   6
ATOM      6  C   UNL d   1     -46.038  12.943  22.615  0.00  0.00     0.030 A 
ATOM      7  S   UNL d   1     -45.686  13.604  22.246  0.00  0.00    -0.086 SA
ATOM      8  C   UNL d   1     -44.919  13.391  22.003  0.00  0.00     0.035 A 
ATOM      9  C   UNL d   1     -44.787  12.597  22.217  0.00  0.00     0.007 A 
ATOM     10  C   UNL d   1     -45.483  12.316  22.598  0.00  0.00     0.007 A 
ENDBRANCH   5   6
ENDBRANCH   4   5
ENDBRANCH   2   4
BRANCH   1  11
ATOM     11  C   UNL d   1     -49.594  12.499  22.689  0.00  0.00     0.085 A 
ATOM     12  C   UNL d   1     -50.266  12.804  22.352  0.00  0.00     0.018 A 
ATOM     13  C   UNL d   1     -50.218  13.284  21.684  0.00  0.00     0.002 C 
ATOM     14  C   UNL d   1     -51.012  12.637  22.675  0.00  0.00     0.002 A 
ATOM     15  C   UNL d   1     -51.064  12.156  23.346  0.00  0.00     0.000 A 
ATOM     16  C   UNL d   1     -50.382  11.845  23.691  0.00  0.00     0.002 A 
ATOM     17  C   UNL d   1     -49.647  12.016  23.363  0.00  0.00     0.019 A 
ENDBRANCH   1  11
TORSDOF 4
ENDMDL
MODEL 5
REMARK VINA RESULT:      -5.3      2.298      4.837
REMARK  4 active torsions:
REMARK  status: ('A' for Active; 'I' for Inactive)
REMARK       I    between atoms: C_2  and  N_1 
REMARK    1  A    between atoms: C_7  and  N_1 
REMARK    2  A    between atoms: C_5  and  C_2 
REMARK    3  A    between atoms: C_3  and  C_6 
REMARK    4  A    between atoms: C_6  and  C_5 
ROOT
ATOM      1  N   UNL d   1     -47.145  12.508  22.920  0.00  0.00    -0.208 NA
ATOM      2  C   UNL d   1     -46.361  12.544  23.153  0.00  0.00     0.279 C 
ATOM      3  O   UNL d   1     -45.975  13.272  23.186  0.00  0.00    -0.265 OA
ENDROOT
BRANCH   2   4
ATOM      4  C   UNL d   1     -45.954  11.857  23.354  0.00  0.00     0.063 C 
BRANCH   4   5
ATOM      5  C   UNL d   1     -45.190  11.729  23.074  0.00  0.00     0.011 C 
BRANCH   5   6
ATOM      6  C   UNL d   1     -44.785  11.040  23.273  0.00  0.00     0.030 A 
ATOM      7  S   UNL d   1     -45.023  10.332  23.643  0.00  0.00    -0.086 SA
ATOM      8  C   UNL d   1     -44.363   9.828  23.697  0.00  0.00     0.035 A 
ATOM      9  C   UNL d   1     -43.708  10.217  23.361  0.00  0.00     0.007 A 
ATOM     10  C   UNL d   1     -43.968  10.973  23.096  0.00  0.00     0.007 A 
ENDBRANCH   5   6
ENDBRANCH   4   5
ENDBRANCH   2   4
BRANCH   1  11
ATOM     11  C   UNL d   1     -47.552  13.196  22.719  0.00  0.00     0.085 A 
ATOM     12  C   UNL d   1     -48.212  13.151  22.249  0.00  0.00     0.018 A 
ATOM     13  C   UNL d   1     -48.478  12.423  21.972  0.00  0.00     0.002 C 
ATOM     14  C   UNL d   1     -48.628  13.838  22.040  0.00  0.00     0.002 A 
ATOM     15  C   UNL d   1     -48.363  14.571  22.317  0.00  0.00     0.000 A 
ATOM     16  C   UNL d   1     -47.693  14.620  22.795  0.00  0.00     0.002 A 
ATOM     17  C   UNL d   1     -47.286  13.933  22.996  0.00  0.00     0.019 A 
ENDBRANCH   1  11
TORSDOF 4
ENDMDL
MODEL 6
REMARK VINA RESULT:      -5.0      8.791      9.503
REMARK  4 active torsions:
REMARK  status: ('A' for Active; 'I' for Inactive)
REMARK       I    between atoms: C_2  and  N_1 
REMARK    1  A    between atoms: C_7  and  N_1 
REMARK    2  A    between atoms: C_5  and  C_2 
REMARK    3  A    between atoms: C_3  and  C_6 
REMARK    4  A    between atoms: C_6  and  C_5 
ROOT
ATOM      1  N   UNL d   1     -39.656  14.747  18.967  0.00  0.00    -0.208 NA
ATOM      2  C   UNL d   1     -39.937  14.868  19.726  0.00  0.00     0.279 C 
ATOM      3  O   UNL d   1     -40.663  15.242  19.842  0.00  0.00    -0.265 OA
ENDROOT
BRANCH   2   4
ATOM      4  C   UNL d   1     -39.498  14.620  20.377  0.00  0.00     0.063 C 
BRANCH   4   5
ATOM      5  C   UNL d   1     -39.831  14.630  21.131  0.00  0.00     0.011 C 
BRANCH   5   6
ATOM      6  C   UNL d   1     -39.374  14.440  21.790  0.00  0.00     0.030 A 
ATOM      7  S   UNL d   1     -38.874  14.893  22.280  0.00  0.00    -0.086 SA
ATOM      8  C   UNL d   1     -38.557  14.393  22.865  0.00  0.00     0.035 A 
ATOM      9  C   UNL d   1     -38.856  13.626  22.745  0.00  0.00     0.007 A 
ATOM     10  C   UNL d   1     -39.366  13.652  22.075  0.00  0.00     0.007 A 
ENDBRANCH   5   6
ENDBRANCH   4   5
ENDBRANCH   2   4
BRANCH   1  11
ATOM     11  C   UNL d   1     -40.096  14.995  18.316  0.00  0.00     0.085 A 
ATOM     12  C   UNL d   1     -40.062  14.574  17.622  0.00  0.00     0.018 A 
ATOM     13  C   UNL d   1     -39.591  13.901  17.566  0.00  0.00     0.002 C 
ATOM     14  C   UNL d   1     -40.501  14.816  16.961  0.00  0.00     0.002 A 
ATOM     15  C   UNL d   1     -40.975  15.492  17.015  0.00  0.00     0.000 A 
ATOM     16  C   UNL d   1     -41.011  15.922  17.718  0.00  0.00     0.002 A 
ATOM     17  C   UNL d   1     -40.572  15.674  18.369  0.00  0.00     0.019 A 
ENDBRANCH   1  11
TORSDOF 4
ENDMDL
