MODEL 1
REMARK VINA RESULT:      55.9      0.000      0.000
REMARK  8 active torsions:
REMARK  status: ('A' for Active; 'I' for Inactive)
REMARK    1  A    between atoms: C_7  and  C_3 
REMARK    2  A    between atoms: C_9  and  C_4 
REMARK    3  A    between atoms: O_13  and  C_7 
REMARK    4  A    between atoms: O_15  and  C_12 
REMARK    5  A    between atoms: C_26  and  O_13 
REMARK    6  A    between atoms: O_25  and  C_14 
REMARK    7  A    between atoms: C_16  and  O_15 
REMARK    8  A    between atoms: C_28  and  O_25 
ROOT
ATOM      1  N   UNL d   1      14.591  12.991  -1.306  0.00  0.00    -0.254 N 
ATOM      2  C   UNL d   1      14.455  12.182  -1.222  0.00  0.00     0.182 A 
ATOM      3  C   UNL d   1      13.839  12.994  -2.516  0.00  0.00     0.097 A 
ATOM      4  C   UNL d   1      14.284  13.399  -1.952  0.00  0.00     0.075 A 
ATOM      5  N   UNL d   1      14.010  11.780  -1.786  0.00  0.00    -0.222 NA
ATOM      6  C   UNL d   1      13.701  12.184  -2.436  0.00  0.00     0.090 A 
ATOM      7  C   UNL d   1      15.037  13.399  -0.742  0.00  0.00     0.267 A 
ATOM      8  S   UNL d   1      14.760  11.781  -0.581  0.00  0.00    -0.049 SA
ATOM      9  C   UNL d   1      15.342  12.984  -0.095  0.00  0.00     0.068 A 
ATOM     10  O   UNL d   1      15.175  14.209  -0.823  0.00  0.00    -0.267 OA
ATOM     11  C   UNL d   1      15.204  12.174  -0.014  0.00  0.00     0.043 A 
ATOM     12  C   UNL d   1      13.258  11.784  -2.998  0.00  0.00     0.021 C 
ENDROOT
BRANCH   4  13
ATOM     13  C   UNL d   1      14.422  14.208  -2.033  0.00  0.00     0.019 A 
ATOM     14  C   UNL d   1      14.771  14.496  -2.718  0.00  0.00     0.028 A 
ATOM     15  C   UNL d   1      14.909  15.306  -2.799  0.00  0.00     0.123 A 
ATOM     16  C   UNL d   1      14.695  15.828  -2.187  0.00  0.00     0.126 A 
ATOM     17  C   UNL d   1      14.343  15.532  -1.497  0.00  0.00     0.027 A 
ATOM     18  C   UNL d   1      14.207  14.722  -1.420  0.00  0.00     0.004 A 
BRANCH  15  19
ATOM     19  O   UNL d   1      15.258  15.599  -3.484  0.00  0.00    -0.303 OA
BRANCH  19  20
ATOM     20  C   UNL d   1      14.797  15.751  -4.151  0.00  0.00     0.123 C 
ATOM     21  C   UNL d   1      14.914  16.442  -4.584  0.00  0.00     0.029 C 
ENDBRANCH  19  20
ENDBRANCH  15  19
BRANCH  16  22
ATOM     22  O   UNL d   1      14.832  16.638  -2.264  0.00  0.00    -0.271 OA
BRANCH  22  23
ATOM     23  C   UNL d   1      15.167  17.060  -1.644  0.00  0.00     0.300 C 
ATOM     24  O   UNL d   1      15.622  17.730  -1.802  0.00  0.00    -0.259 OA
ATOM     25  C   UNL d   1      15.050  16.816  -0.867  0.00  0.00     0.074 C 
ENDBRANCH  22  23
ENDBRANCH  16  22
ENDBRANCH   4  13
BRANCH   3  26
ATOM     26  C   UNL d   1      13.532  13.403  -3.162  0.00  0.00     0.303 C 
ATOM     27  O   UNL d   1      12.910  13.937  -3.066  0.00  0.00    -0.259 OA
BRANCH  26  28
ATOM     28  O   UNL d   1      13.853  13.273  -3.913  0.00  0.00    -0.273 OA
BRANCH  28  29
ATOM     29  C   UNL d   1      13.359  13.061  -4.544  0.00  0.00     0.103 C 
ATOM     30  C   UNL d   1      12.772  13.576  -4.806  0.00  0.00     0.027 C 
ATOM     31  C   UNL d   1      13.455  12.329  -4.911  0.00  0.00     0.027 C 
ENDBRANCH  28  29
ENDBRANCH  26  28
ENDBRANCH   3  26
TORSDOF 8
ENDMDL
MODEL 2
REMARK VINA RESULT:      56.9      0.606      1.517
REMARK  8 active torsions:
REMARK  status: ('A' for Active; 'I' for Inactive)
REMARK    1  A    between atoms: C_7  and  C_3 
REMARK    2  A    between atoms: C_9  and  C_4 
REMARK    3  A    between atoms: O_13  and  C_7 
REMARK    4  A    between atoms: O_15  and  C_12 
REMARK    5  A    between atoms: C_26  and  O_13 
REMARK    6  A    between atoms: O_25  and  C_14 
REMARK    7  A    between atoms: C_16  and  O_15 
REMARK    8  A    between atoms: C_28  and  O_25 
ROOT
ATOM      1  N   UNL d   1      14.564  13.175  -1.444  0.00  0.00    -0.254 N 
ATOM      2  C   UNL d   1      14.382  12.398  -1.236  0.00  0.00     0.182 A 
ATOM      3  C   UNL d   1      13.840  13.021  -2.662  0.00  0.00     0.097 A 
ATOM      4  C   UNL d   1      14.294  13.489  -2.156  0.00  0.00     0.075 A 
ATOM      5  N   UNL d   1      13.929  11.934  -1.743  0.00  0.00    -0.222 NA
ATOM      6  C   UNL d   1      13.656  12.243  -2.457  0.00  0.00     0.090 A 
ATOM      7  C   UNL d   1      15.019  13.646  -0.939  0.00  0.00     0.267 A 
ATOM      8  S   UNL d   1      14.652  12.090  -0.531  0.00  0.00    -0.049 SA
ATOM      9  C   UNL d   1      15.288  13.324  -0.225  0.00  0.00     0.068 A 
ATOM     10  O   UNL d   1      15.203  14.424  -1.144  0.00  0.00    -0.267 OA
ATOM     11  C   UNL d   1      15.104  12.547  -0.021  0.00  0.00     0.043 A 
ATOM     12  C   UNL d   1      13.204  11.781  -2.962  0.00  0.00     0.021 C 
ENDROOT
BRANCH   4  13
ATOM     13  C   UNL d   1      14.478  14.267  -2.360  0.00  0.00     0.019 A 
ATOM     14  C   UNL d   1      14.483  14.850  -1.782  0.00  0.00     0.028 A 
ATOM     15  C   UNL d   1      14.667  15.628  -1.986  0.00  0.00     0.123 A 
ATOM     16  C   UNL d   1      14.847  15.820  -2.777  0.00  0.00     0.126 A 
ATOM     17  C   UNL d   1      14.841  15.227  -3.356  0.00  0.00     0.027 A 
ATOM     18  C   UNL d   1      14.656  14.451  -3.147  0.00  0.00     0.004 A 
BRANCH  15  19
ATOM     19  O   UNL d   1      14.672  16.216  -1.410  0.00  0.00    -0.303 OA
BRANCH  19  20
ATOM     20  C   UNL d   1      15.389  16.499  -1.115  0.00  0.00     0.123 C 
ATOM     21  C   UNL d   1      15.395  17.119  -0.573  0.00  0.00     0.029 C 
ENDBRANCH  19  20
ENDBRANCH  15  19
BRANCH  16  22
ATOM     22  O   UNL d   1      15.031  16.597  -2.985  0.00  0.00    -0.271 OA
BRANCH  22  23
ATOM     23  C   UNL d   1      15.274  16.771  -3.750  0.00  0.00     0.300 C 
ATOM     24  O   UNL d   1      16.004  16.498  -4.020  0.00  0.00    -0.259 OA
ATOM     25  C   UNL d   1      14.792  17.217  -4.245  0.00  0.00     0.074 C 
ENDBRANCH  22  23
ENDBRANCH  16  22
ENDBRANCH   4  13
BRANCH   3  26
ATOM     26  C   UNL d   1      13.570  13.336  -3.374  0.00  0.00     0.303 C 
ATOM     27  O   UNL d   1      13.657  14.140  -3.538  0.00  0.00    -0.259 OA
BRANCH  26  28
ATOM     28  O   UNL d   1      13.209  12.837  -3.926  0.00  0.00    -0.273 OA
BRANCH  28  29
ATOM     29  C   UNL d   1      13.171  13.062  -4.723  0.00  0.00     0.103 C 
ATOM     30  C   UNL d   1      13.502  12.586  -5.307  0.00  0.00     0.027 C 
ATOM     31  C   UNL d   1      12.799  13.768  -4.932  0.00  0.00     0.027 C 
ENDBRANCH  28  29
ENDBRANCH  26  28
ENDBRANCH   3  26
TORSDOF 8
ENDMDL
MODEL 3
REMARK VINA RESULT:      57.0      1.571      3.234
REMARK  8 active torsions:
REMARK  status: ('A' for Active; 'I' for Inactive)
REMARK    1  A    between atoms: C_7  and  C_3 
REMARK    2  A    between atoms: C_9  and  C_4 
REMARK    3  A    between atoms: O_13  and  C_7 
REMARK    4  A    between atoms: O_15  and  C_12 
REMARK    5  A    between atoms: C_26  and  O_13 
REMARK    6  A    between atoms: O_25  and  C_14 
REMARK    7  A    between atoms: C_16  and  O_15 
REMARK    8  A    between atoms: C_28  and  O_25 
ROOT
ATOM      1  N   UNL d   1      13.473  13.187  -3.607  0.00  0.00    -0.254 N 
ATOM      2  C   UNL d   1      13.167  13.131  -4.371  0.00  0.00     0.182 A 
ATOM      3  C   UNL d   1      13.841  14.542  -3.851  0.00  0.00     0.097 A 
ATOM      4  C   UNL d   1      13.811  13.891  -3.345  0.00  0.00     0.075 A 
ATOM      5  N   UNL d   1      13.199  13.782  -4.874  0.00  0.00    -0.222 NA
ATOM      6  C   UNL d   1      13.536  14.490  -4.616  0.00  0.00     0.090 A 
ATOM      7  C   UNL d   1      13.444  12.536  -3.098  0.00  0.00     0.267 A 
ATOM      8  S   UNL d   1      12.834  12.432  -4.628  0.00  0.00    -0.049 SA
ATOM      9  C   UNL d   1      13.104  11.831  -3.368  0.00  0.00     0.068 A 
ATOM     10  O   UNL d   1      13.749  12.588  -2.334  0.00  0.00    -0.267 OA
ATOM     11  C   UNL d   1      12.799  11.780  -4.133  0.00  0.00     0.043 A 
ATOM     12  C   UNL d   1      13.567  15.138  -5.117  0.00  0.00     0.021 C 
ENDROOT
BRANCH   4  13
ATOM     13  C   UNL d   1      14.116  13.943  -2.580  0.00  0.00     0.019 A 
ATOM     14  C   UNL d   1      14.593  13.341  -2.290  0.00  0.00     0.028 A 
ATOM     15  C   UNL d   1      14.899  13.393  -1.525  0.00  0.00     0.123 A 
ATOM     16  C   UNL d   1      14.722  14.053  -1.050  0.00  0.00     0.126 A 
ATOM     17  C   UNL d   1      14.240  14.658  -1.348  0.00  0.00     0.027 A 
ATOM     18  C   UNL d   1      13.937  14.602  -2.114  0.00  0.00     0.004 A 
BRANCH  15  19
ATOM     19  O   UNL d   1      15.378  12.792  -1.230  0.00  0.00    -0.303 OA
BRANCH  19  20
ATOM     20  C   UNL d   1      16.029  12.530  -1.665  0.00  0.00     0.123 C 
ATOM     21  C   UNL d   1      16.338  11.779  -1.531  0.00  0.00     0.029 C 
ENDBRANCH  19  20
ENDBRANCH  15  19
BRANCH  16  22
ATOM     22  O   UNL d   1      15.026  14.109  -0.285  0.00  0.00    -0.271 OA
BRANCH  22  23
ATOM     23  C   UNL d   1      15.586  14.682  -0.105  0.00  0.00     0.300 C 
ATOM     24  O   UNL d   1      16.378  14.466  -0.014  0.00  0.00    -0.259 OA
ATOM     25  C   UNL d   1      15.360  15.468  -0.015  0.00  0.00     0.074 C 
ENDBRANCH  22  23
ENDBRANCH  16  22
ENDBRANCH   4  13
BRANCH   3  26
ATOM     26  C   UNL d   1      14.179  15.246  -3.588  0.00  0.00     0.303 C 
ATOM     27  O   UNL d   1      13.812  15.694  -3.001  0.00  0.00    -0.259 OA
BRANCH  26  28
ATOM     28  O   UNL d   1      14.892  15.501  -3.919  0.00  0.00    -0.273 OA
BRANCH  28  29
ATOM     29  C   UNL d   1      15.107  16.300  -3.872  0.00  0.00     0.103 C 
ATOM     30  C   UNL d   1      15.431  16.685  -4.524  0.00  0.00     0.027 C 
ATOM     31  C   UNL d   1      14.996  16.713  -3.167  0.00  0.00     0.027 C 
ENDBRANCH  28  29
ENDBRANCH  26  28
ENDBRANCH   3  26
TORSDOF 8
ENDMDL
