MODEL 1
REMARK VINA RESULT:      13.8      0.000      0.000
REMARK  4 active torsions:
REMARK  status: ('A' for Active; 'I' for Inactive)
REMARK    1  A    between atoms: C_9  and  C_2 
REMARK    2  A    between atoms: N_11  and  C_9 
REMARK    3  A    between atoms: C_14  and  N_11 
REMARK    4  A    between atoms: C_17  and  C_14 
ROOT
ATOM      1  C   UNL d   1      46.573 -19.205  42.889  0.00  0.00     0.106 A 
ATOM      2  C   UNL d   1      46.502 -18.086  43.772  0.00  0.00     0.025 A 
ATOM      3  C   UNL d   1      46.528 -18.390  43.008  0.00  0.00     0.025 A 
ATOM      4  O   UNL d   1      46.593 -19.716  43.533  0.00  0.00    -0.273 OA
ATOM      5  C   UNL d   1      46.599 -19.509  42.123  0.00  0.00     0.062 A 
ATOM      6  C   UNL d   1      46.567 -19.413  44.306  0.00  0.00     0.300 A 
ATOM      7  C   UNL d   1      46.521 -18.598  44.426  0.00  0.00     0.070 A 
ATOM      8  C   UNL d   1      46.508 -17.879  42.362  0.00  0.00     0.005 A 
ATOM      9  C   UNL d   1      46.579 -18.993  41.479  0.00  0.00     0.198 A 
ATOM     10  O   UNL d   1      46.587 -19.932  44.955  0.00  0.00    -0.259 OA
ATOM     11  C   UNL d   1      46.534 -18.183  41.598  0.00  0.00     0.042 A 
ATOM     12  O   UNL d   1      46.605 -19.297  40.710  0.00  0.00    -0.286 OA
ATOM     13  C   UNL d   1      46.644 -20.324  42.004  0.00  0.00     0.005 C 
ENDROOT
BRANCH   2  14
ATOM     14  C   UNL d   1      46.457 -17.278  43.890  0.00  0.00     0.081 C 
BRANCH  14  15
ATOM     15  N   UNL d   1      45.892 -16.970  44.415  0.00  0.00    -0.301 N 
ATOM     16  C   UNL d   1      45.129 -17.283  44.415  0.00  0.00     0.100 C 
BRANCH  15  17
ATOM     17  C   UNL d   1      46.092 -16.355  44.931  0.00  0.00     0.080 C 
BRANCH  17  18
ATOM     18  C   UNL d   1      45.760 -15.609  44.833  0.00  0.00     0.018 A 
ATOM     19  C   UNL d   1      46.228 -14.983  44.627  0.00  0.00     0.002 A 
ATOM     20  C   UNL d   1      45.904 -14.230  44.525  0.00  0.00     0.000 A 
ATOM     21  C   UNL d   1      45.081 -14.115  44.637  0.00  0.00     0.000 A 
ATOM     22  C   UNL d   1      44.615 -14.766  44.848  0.00  0.00     0.000 A 
ATOM     23  C   UNL d   1      44.949 -15.504  44.944  0.00  0.00     0.002 A 
ENDBRANCH  17  18
ENDBRANCH  15  17
ENDBRANCH  14  15
ENDBRANCH   2  14
TORSDOF 4
ENDMDL
