MODEL 1
REMARK VINA RESULT:      -6.7      0.000      0.000
REMARK  4 active torsions:
REMARK  status: ('A' for Active; 'I' for Inactive)
REMARK    1  A    between atoms: N_4  and  C_1 
REMARK    2  A    between atoms: C_11  and  C_3 
REMARK       I    between atoms: C_6  and  N_4 
REMARK    3  A    between atoms: C_8  and  C_6 
REMARK    4  A    between atoms: C_9  and  C_8 
ROOT
ATOM      1  C   UNL d   1     -47.400  13.841  23.039  0.00  0.00     0.197 A 
ATOM      2  N   UNL d   1     -47.313  13.054  23.251  0.00  0.00    -0.221 NA
ATOM      3  C   UNL d   1     -46.518  12.848  23.151  0.00  0.00     0.092 A 
ATOM      4  S   UNL d   1     -46.665  14.129  22.807  0.00  0.00    -0.046 SA
ATOM      5  C   UNL d   1     -46.115  13.520  22.873  0.00  0.00     0.058 A 
ENDROOT
BRANCH   1   6
ATOM      6  N   UNL d   1     -48.102  14.280  23.054  0.00  0.00    -0.183 NA
ATOM      7  C   UNL d   1     -48.569  14.319  22.373  0.00  0.00     0.281 C 
ATOM      8  O   UNL d   1     -48.334  13.926  21.692  0.00  0.00    -0.265 OA
BRANCH   7   9
ATOM      9  C   UNL d   1     -49.270  14.754  22.378  0.00  0.00     0.069 C 
BRANCH   9  10
ATOM     10  C   UNL d   1     -49.966  14.338  22.246  0.00  0.00     0.034 A 
ATOM     11  S   UNL d   1     -50.407  13.931  22.810  0.00  0.00    -0.086 SA
ATOM     12  C   UNL d   1     -51.063  13.594  22.435  0.00  0.00     0.035 A 
ATOM     13  C   UNL d   1     -51.024  13.797  21.633  0.00  0.00     0.007 A 
ATOM     14  C   UNL d   1     -50.347  14.256  21.516  0.00  0.00     0.007 A 
ENDBRANCH   9  10
ENDBRANCH   7   9
ENDBRANCH   1   6
BRANCH   3  15
ATOM     15  C   UNL d   1     -46.179  12.113  23.296  0.00  0.00     0.037 A 
ATOM     16  C   UNL d   1     -45.369  12.023  23.191  0.00  0.00     0.100 A 
ATOM     17  N   UNL d   1     -45.023  11.291  23.335  0.00  0.00    -0.242 NA
ATOM     18  C   UNL d   1     -45.485  10.652  23.582  0.00  0.00     0.099 A 
ATOM     19  C   UNL d   1     -46.289  10.755  23.683  0.00  0.00     0.021 A 
ATOM     20  C   UNL d   1     -46.647  11.489  23.541  0.00  0.00     0.005 A 
ENDBRANCH   3  15
TORSDOF 4
ENDMDL
MODEL 2
REMARK VINA RESULT:      -6.7      1.381      1.878
REMARK  4 active torsions:
REMARK  status: ('A' for Active; 'I' for Inactive)
REMARK    1  A    between atoms: N_4  and  C_1 
REMARK    2  A    between atoms: C_11  and  C_3 
REMARK       I    between atoms: C_6  and  N_4 
REMARK    3  A    between atoms: C_8  and  C_6 
REMARK    4  A    between atoms: C_9  and  C_8 
ROOT
ATOM      1  C   UNL d   1     -48.191  12.115  23.452  0.00  0.00     0.197 A 
ATOM      2  N   UNL d   1     -47.617  12.581  23.097  0.00  0.00    -0.221 NA
ATOM      3  C   UNL d   1     -46.900  12.167  23.122  0.00  0.00     0.092 A 
ATOM      4  S   UNL d   1     -47.839  11.413  23.698  0.00  0.00    -0.046 SA
ATOM      5  C   UNL d   1     -47.041  11.438  23.497  0.00  0.00     0.058 A 
ENDROOT
BRANCH   1   6
ATOM      6  N   UNL d   1     -48.990  12.309  23.550  0.00  0.00    -0.183 NA
ATOM      7  C   UNL d   1     -49.512  12.211  22.916  0.00  0.00     0.281 C 
ATOM      8  O   UNL d   1     -49.234  11.923  22.200  0.00  0.00    -0.265 OA
BRANCH   7   9
ATOM      9  C   UNL d   1     -50.309  12.402  23.005  0.00  0.00     0.069 C 
BRANCH   9  10
ATOM     10  C   UNL d   1     -50.594  13.027  22.554  0.00  0.00     0.034 A 
ATOM     11  S   UNL d   1     -50.810  13.772  22.833  0.00  0.00    -0.086 SA
ATOM     12  C   UNL d   1     -51.064  14.226  22.191  0.00  0.00     0.035 A 
ATOM     13  C   UNL d   1     -51.005  13.755  21.512  0.00  0.00     0.007 A 
ATOM     14  C   UNL d   1     -50.714  13.015  21.736  0.00  0.00     0.007 A 
ENDBRANCH   9  10
ENDBRANCH   7   9
ENDBRANCH   1   6
BRANCH   3  15
ATOM     15  C   UNL d   1     -46.176  12.423  22.830  0.00  0.00     0.037 A 
ATOM     16  C   UNL d   1     -45.512  11.951  22.950  0.00  0.00     0.100 A 
ATOM     17  N   UNL d   1     -44.784  12.200  22.661  0.00  0.00    -0.242 NA
ATOM     18  C   UNL d   1     -44.719  12.917  22.255  0.00  0.00     0.099 A 
ATOM     19  C   UNL d   1     -45.386  13.376  22.143  0.00  0.00     0.021 A 
ATOM     20  C   UNL d   1     -46.124  13.133  22.430  0.00  0.00     0.005 A 
ENDBRANCH   3  15
TORSDOF 4
ENDMDL
MODEL 3
REMARK VINA RESULT:      -5.9      8.194      9.873
REMARK  4 active torsions:
REMARK  status: ('A' for Active; 'I' for Inactive)
REMARK    1  A    between atoms: N_4  and  C_1 
REMARK    2  A    between atoms: C_11  and  C_3 
REMARK       I    between atoms: C_6  and  N_4 
REMARK    3  A    between atoms: C_8  and  C_6 
REMARK    4  A    between atoms: C_9  and  C_8 
ROOT
ATOM      1  C   UNL d   1     -40.341  14.487  18.638  0.00  0.00     0.197 A 
ATOM      2  N   UNL d   1     -39.626  14.314  18.275  0.00  0.00    -0.221 NA
ATOM      3  C   UNL d   1     -39.689  14.517  17.475  0.00  0.00     0.092 A 
ATOM      4  S   UNL d   1     -40.850  14.797  18.071  0.00  0.00    -0.046 SA
ATOM      5  C   UNL d   1     -40.454  14.819  17.350  0.00  0.00     0.058 A 
ENDROOT
BRANCH   1   6
ATOM      6  N   UNL d   1     -40.527  14.373  19.436  0.00  0.00    -0.183 NA
ATOM      7  C   UNL d   1     -40.471  15.009  19.961  0.00  0.00     0.281 C 
ATOM      8  O   UNL d   1     -40.232  15.745  19.687  0.00  0.00    -0.265 OA
BRANCH   7   9
ATOM      9  C   UNL d   1     -40.654  14.904  20.758  0.00  0.00     0.069 C 
BRANCH   9  10
ATOM     10  C   UNL d   1     -40.093  15.154  21.305  0.00  0.00     0.034 A 
ATOM     11  S   UNL d   1     -39.993  15.922  21.585  0.00  0.00    -0.086 SA
ATOM     12  C   UNL d   1     -39.367  15.922  22.125  0.00  0.00     0.035 A 
ATOM     13  C   UNL d   1     -39.081  15.146  22.177  0.00  0.00     0.007 A 
ATOM     14  C   UNL d   1     -39.529  14.672  21.670  0.00  0.00     0.007 A 
ENDBRANCH   9  10
ENDBRANCH   7   9
ENDBRANCH   1   6
BRANCH   3  15
ATOM     15  C   UNL d   1     -39.106  14.439  16.902  0.00  0.00     0.037 A 
ATOM     16  C   UNL d   1     -38.834  15.114  16.519  0.00  0.00     0.100 A 
ATOM     17  N   UNL d   1     -38.250  15.043  15.944  0.00  0.00    -0.242 NA
ATOM     18  C   UNL d   1     -37.940  14.301  15.752  0.00  0.00     0.099 A 
ATOM     19  C   UNL d   1     -38.219  13.638  16.141  0.00  0.00     0.021 A 
ATOM     20  C   UNL d   1     -38.807  13.700  16.722  0.00  0.00     0.005 A 
ENDBRANCH   3  15
TORSDOF 4
ENDMDL
MODEL 4
REMARK VINA RESULT:      -5.6      8.042      9.314
REMARK  4 active torsions:
REMARK  status: ('A' for Active; 'I' for Inactive)
REMARK    1  A    between atoms: N_4  and  C_1 
REMARK    2  A    between atoms: C_11  and  C_3 
REMARK       I    between atoms: C_6  and  N_4 
REMARK    3  A    between atoms: C_8  and  C_6 
REMARK    4  A    between atoms: C_9  and  C_8 
ROOT
ATOM      1  C   UNL d   1     -40.450  14.359  19.833  0.00  0.00     0.197 A 
ATOM      2  N   UNL d   1     -39.800  14.192  20.304  0.00  0.00    -0.221 NA
ATOM      3  C   UNL d   1     -39.951  14.487  21.062  0.00  0.00     0.092 A 
ATOM      4  S   UNL d   1     -41.006  14.757  20.290  0.00  0.00    -0.046 SA
ATOM      5  C   UNL d   1     -40.704  14.840  21.052  0.00  0.00     0.058 A 
ENDROOT
BRANCH   1   6
ATOM      6  N   UNL d   1     -40.540  14.165  19.033  0.00  0.00    -0.183 NA
ATOM      7  C   UNL d   1     -40.341  14.722  18.455  0.00  0.00     0.281 C 
ATOM      8  O   UNL d   1     -40.057  15.459  18.679  0.00  0.00    -0.265 OA
BRANCH   7   9
ATOM      9  C   UNL d   1     -40.428  14.537  17.656  0.00  0.00     0.069 C 
BRANCH   9  10
ATOM     10  C   UNL d   1     -39.764  14.627  17.180  0.00  0.00     0.034 A 
ATOM     11  S   UNL d   1     -39.533  15.313  16.788  0.00  0.00    -0.086 SA
ATOM     12  C   UNL d   1     -38.835  15.154  16.374  0.00  0.00     0.035 A 
ATOM     13  C   UNL d   1     -38.636  14.362  16.513  0.00  0.00     0.007 A 
ATOM     14  C   UNL d   1     -39.210  14.037  17.011  0.00  0.00     0.007 A 
ENDBRANCH   9  10
ENDBRANCH   7   9
ENDBRANCH   1   6
BRANCH   3  15
ATOM     15  C   UNL d   1     -39.452  14.444  21.714  0.00  0.00     0.037 A 
ATOM     16  C   UNL d   1     -39.097  15.134  21.987  0.00  0.00     0.100 A 
ATOM     17  N   UNL d   1     -38.597  15.098  22.639  0.00  0.00    -0.242 NA
ATOM     18  C   UNL d   1     -38.451  14.377  23.015  0.00  0.00     0.099 A 
ATOM     19  C   UNL d   1     -38.810  13.699  22.732  0.00  0.00     0.021 A 
ATOM     20  C   UNL d   1     -39.316  13.724  22.077  0.00  0.00     0.005 A 
ENDBRANCH   3  15
TORSDOF 4
ENDMDL
MODEL 5
REMARK VINA RESULT:      -5.3      1.528      4.692
REMARK  4 active torsions:
REMARK  status: ('A' for Active; 'I' for Inactive)
REMARK    1  A    between atoms: N_4  and  C_1 
REMARK    2  A    between atoms: C_11  and  C_3 
REMARK       I    between atoms: C_6  and  N_4 
REMARK    3  A    between atoms: C_8  and  C_6 
REMARK    4  A    between atoms: C_9  and  C_8 
ROOT
ATOM      1  C   UNL d   1     -48.223  13.286  22.610  0.00  0.00     0.197 A 
ATOM      2  N   UNL d   1     -48.665  13.743  23.127  0.00  0.00    -0.221 NA
ATOM      3  C   UNL d   1     -49.278  14.096  22.697  0.00  0.00     0.092 A 
ATOM      4  S   UNL d   1     -48.553  13.350  21.860  0.00  0.00    -0.046 SA
ATOM      5  C   UNL d   1     -49.206  13.850  21.906  0.00  0.00     0.058 A 
ENDROOT
BRANCH   1   6
ATOM      6  N   UNL d   1     -47.556  12.835  22.802  0.00  0.00    -0.183 NA
ATOM      7  C   UNL d   1     -46.826  13.210  22.901  0.00  0.00     0.281 C 
ATOM      8  O   UNL d   1     -46.770  14.024  22.810  0.00  0.00    -0.265 OA
BRANCH   7   9
ATOM      9  C   UNL d   1     -46.157  12.768  23.092  0.00  0.00     0.069 C 
BRANCH   9  10
ATOM     10  C   UNL d   1     -45.506  12.846  22.596  0.00  0.00     0.034 A 
ATOM     11  S   UNL d   1     -45.010  12.240  22.342  0.00  0.00    -0.086 SA
ATOM     12  C   UNL d   1     -44.429  12.567  21.853  0.00  0.00     0.035 A 
ATOM     13  C   UNL d   1     -44.571  13.382  21.806  0.00  0.00     0.007 A 
ATOM     14  C   UNL d   1     -45.235  13.554  22.265  0.00  0.00     0.007 A 
ENDBRANCH   9  10
ENDBRANCH   7   9
ENDBRANCH   1   6
BRANCH   3  15
ATOM     15  C   UNL d   1     -49.857  14.600  22.990  0.00  0.00     0.037 A 
ATOM     16  C   UNL d   1     -49.784  15.408  22.854  0.00  0.00     0.100 A 
ATOM     17  N   UNL d   1     -50.359  15.919  23.144  0.00  0.00    -0.242 NA
ATOM     18  C   UNL d   1     -51.004  15.623  23.569  0.00  0.00     0.099 A 
ATOM     19  C   UNL d   1     -51.064  14.819  23.697  0.00  0.00     0.021 A 
ATOM     20  C   UNL d   1     -50.490  14.296  23.408  0.00  0.00     0.005 A 
ENDBRANCH   3  15
TORSDOF 4
ENDMDL
MODEL 6
REMARK VINA RESULT:      -5.2      8.284      9.508
REMARK  4 active torsions:
REMARK  status: ('A' for Active; 'I' for Inactive)
REMARK    1  A    between atoms: N_4  and  C_1 
REMARK    2  A    between atoms: C_11  and  C_3 
REMARK       I    between atoms: C_6  and  N_4 
REMARK    3  A    between atoms: C_8  and  C_6 
REMARK    4  A    between atoms: C_9  and  C_8 
ROOT
ATOM      1  C   UNL d   1     -39.910  15.623  20.704  0.00  0.00     0.197 A 
ATOM      2  N   UNL d   1     -39.779  15.372  19.936  0.00  0.00    -0.221 NA
ATOM      3  C   UNL d   1     -40.488  15.448  19.517  0.00  0.00     0.092 A 
ATOM      4  S   UNL d   1     -40.696  15.856  20.770  0.00  0.00    -0.046 SA
ATOM      5  C   UNL d   1     -41.060  15.750  20.039  0.00  0.00     0.058 A 
ENDROOT
BRANCH   1   6
ATOM      6  N   UNL d   1     -39.352  15.643  21.317  0.00  0.00    -0.183 NA
ATOM      7  C   UNL d   1     -39.338  15.031  21.872  0.00  0.00     0.281 C 
ATOM      8  O   UNL d   1     -39.873  14.411  21.811  0.00  0.00    -0.265 OA
BRANCH   7   9
ATOM      9  C   UNL d   1     -38.786  15.042  22.485  0.00  0.00     0.069 C 
BRANCH   9  10
ATOM     10  C   UNL d   1     -38.538  14.315  22.775  0.00  0.00     0.034 A 
ATOM     11  S   UNL d   1     -38.711  14.000  23.516  0.00  0.00    -0.086 SA
ATOM     12  C   UNL d   1     -38.349  13.259  23.575  0.00  0.00     0.035 A 
ATOM     13  C   UNL d   1     -37.949  13.118  22.863  0.00  0.00     0.007 A 
ATOM     14  C   UNL d   1     -38.066  13.770  22.370  0.00  0.00     0.007 A 
ENDBRANCH   9  10
ENDBRANCH   7   9
ENDBRANCH   1   6
BRANCH   3  15
ATOM     15  C   UNL d   1     -40.614  15.260  18.726  0.00  0.00     0.037 A 
ATOM     16  C   UNL d   1     -40.561  14.473  18.493  0.00  0.00     0.100 A 
ATOM     17  N   UNL d   1     -40.686  14.278  17.704  0.00  0.00    -0.242 NA
ATOM     18  C   UNL d   1     -40.863  14.867  17.151  0.00  0.00     0.099 A 
ATOM     19  C   UNL d   1     -40.913  15.644  17.397  0.00  0.00     0.021 A 
ATOM     20  C   UNL d   1     -40.789  15.851  18.190  0.00  0.00     0.005 A 
ENDBRANCH   3  15
TORSDOF 4
ENDMDL
MODEL 7
REMARK VINA RESULT:      -4.7      1.919      4.459
REMARK  4 active torsions:
REMARK  status: ('A' for Active; 'I' for Inactive)
REMARK    1  A    between atoms: N_4  and  C_1 
REMARK    2  A    between atoms: C_11  and  C_3 
REMARK       I    between atoms: C_6  and  N_4 
REMARK    3  A    between atoms: C_8  and  C_6 
REMARK    4  A    between atoms: C_9  and  C_8 
ROOT
ATOM      1  C   UNL d   1     -47.159  12.577  23.412  0.00  0.00     0.197 A 
ATOM      2  N   UNL d   1     -47.882  12.904  23.210  0.00  0.00    -0.221 NA
ATOM      3  C   UNL d   1     -48.465  12.328  23.326  0.00  0.00     0.092 A 
ATOM      4  S   UNL d   1     -47.283  11.800  23.652  0.00  0.00    -0.046 SA
ATOM      5  C   UNL d   1     -48.089  11.640  23.602  0.00  0.00     0.058 A 
ENDROOT
BRANCH   1   6
ATOM      6  N   UNL d   1     -46.422  12.955  23.381  0.00  0.00    -0.183 NA
ATOM      7  C   UNL d   1     -46.074  13.105  22.647  0.00  0.00     0.281 C 
ATOM      8  O   UNL d   1     -46.458  12.879  21.958  0.00  0.00    -0.265 OA
BRANCH   7   9
ATOM      9  C   UNL d   1     -45.341  13.481  22.607  0.00  0.00     0.069 C 
BRANCH   9  10
ATOM     10  C   UNL d   1     -44.743  13.089  22.202  0.00  0.00     0.034 A 
ATOM     11  S   UNL d   1     -44.393  13.329  21.496  0.00  0.00    -0.086 SA
ATOM     12  C   UNL d   1     -43.819  12.771  21.288  0.00  0.00     0.035 A 
ATOM     13  C   UNL d   1     -43.817  12.184  21.872  0.00  0.00     0.007 A 
ATOM     14  C   UNL d   1     -44.388  12.380  22.436  0.00  0.00     0.007 A 
ENDBRANCH   9  10
ENDBRANCH   7   9
ENDBRANCH   1   6
BRANCH   3  15
ATOM     15  C   UNL d   1     -49.272  12.413  23.194  0.00  0.00     0.037 A 
ATOM     16  C   UNL d   1     -49.707  12.897  23.697  0.00  0.00     0.100 A 
ATOM     17  N   UNL d   1     -50.514  12.987  23.572  0.00  0.00    -0.242 NA
ATOM     18  C   UNL d   1     -50.886  12.594  22.947  0.00  0.00     0.099 A 
ATOM     19  C   UNL d   1     -50.442  12.116  22.455  0.00  0.00     0.021 A 
ATOM     20  C   UNL d   1     -49.628  12.019  22.573  0.00  0.00     0.005 A 
ENDBRANCH   3  15
TORSDOF 4
ENDMDL
