MODEL 1
REMARK VINA RESULT:       2.0      0.000      0.000
REMARK  7 active torsions:
REMARK  status: ('A' for Active; 'I' for Inactive)
REMARK    1  A    between atoms: C_4  and  C_1 
REMARK    2  A    between atoms: N_5  and  C_3 
REMARK    3  A    between atoms: C_9  and  C_4 
REMARK       I    between atoms: C_7  and  N_5 
REMARK    4  A    between atoms: C_10  and  C_7 
REMARK       I    between atoms: N_19  and  C_9 
REMARK    5  A    between atoms: C_21  and  N_19 
REMARK    6  A    between atoms: C_24  and  C_21 
REMARK    7  A    between atoms: C_23  and  C_24 
ROOT
ATOM      1  C   UNL d   1     -41.431-122.304 -51.973  0.00  0.00     0.144 C 
ATOM      2  C   UNL d   1     -41.276-121.526 -52.190  0.00  0.00     0.107 C 
ATOM      3  N   UNL d   1     -41.124-120.749 -52.398  0.00  0.00    -0.191 NA
ENDROOT
BRANCH   1   4
ATOM      4  C   UNL d   1     -41.783-122.478 -51.240  0.00  0.00     0.097 A 
ATOM      5  N   UNL d   1     -41.460-122.829 -50.566  0.00  0.00    -0.226 NA
ATOM      6  C   UNL d   1     -42.049-122.872 -49.990  0.00  0.00     0.166 A 
ATOM      7  C   UNL d   1     -42.738-122.548 -50.305  0.00  0.00     0.037 A 
ATOM      8  C   UNL d   1     -42.582-122.302 -51.080  0.00  0.00     0.021 A 
ATOM      9  C   UNL d   1     -43.494-122.443 -49.991  0.00  0.00     0.003 A 
ATOM     10  C   UNL d   1     -43.172-121.955 -51.532  0.00  0.00     0.002 A 
ATOM     11  C   UNL d   1     -43.926-121.850 -51.219  0.00  0.00     0.000 A 
ATOM     12  C   UNL d   1     -44.083-122.097 -50.444  0.00  0.00     0.000 A 
BRANCH   6  13
ATOM     13  N   UNL d   1     -42.004-123.172 -49.233  0.00  0.00    -0.189 NA
ATOM     14  C   UNL d   1     -41.757-122.792 -48.534  0.00  0.00     0.286 C 
ATOM     15  O   UNL d   1     -41.519-122.005 -48.580  0.00  0.00    -0.265 OA
BRANCH  14  16
ATOM     16  C   UNL d   1     -41.746-123.181 -47.808  0.00  0.00     0.087 A 
ATOM     17  S   UNL d   1     -42.452-123.331 -47.408  0.00  0.00    -0.082 SA
ATOM     18  C   UNL d   1     -42.263-123.724 -46.706  0.00  0.00     0.036 A 
ATOM     19  C   UNL d   1     -41.442-123.816 -46.676  0.00  0.00     0.008 A 
ATOM     20  C   UNL d   1     -41.124-123.481 -47.356  0.00  0.00     0.012 A 
ENDBRANCH  14  16
ENDBRANCH   6  13
ENDBRANCH   1   4
BRANCH   1  21
ATOM     21  C   UNL d   1     -41.237-122.922 -52.490  0.00  0.00     0.290 C 
ATOM     22  O   UNL d   1     -41.133-123.685 -52.200  0.00  0.00    -0.264 OA
ATOM     23  N   UNL d   1     -41.147-122.775 -53.291  0.00  0.00    -0.206 NA
BRANCH  23  24
ATOM     24  C   UNL d   1     -41.251-122.012 -53.581  0.00  0.00     0.102 C 
BRANCH  24  25
ATOM     25  C   UNL d   1     -41.355-121.683 -54.329  0.00  0.00     0.021 C 
BRANCH  25  26
ATOM     26  C   UNL d   1     -41.900-122.009 -54.854  0.00  0.00     0.002 A 
ATOM     27  C   UNL d   1     -41.707-122.690 -55.281  0.00  0.00     0.000 A 
ATOM     28  C   UNL d   1     -42.257-123.012 -55.805  0.00  0.00     0.000 A 
ATOM     29  C   UNL d   1     -43.000-122.662 -55.909  0.00  0.00     0.000 A 
ATOM     30  C   UNL d   1     -43.185-121.974 -55.472  0.00  0.00     0.000 A 
ATOM     31  C   UNL d   1     -42.642-121.651 -54.951  0.00  0.00     0.000 A 
ENDBRANCH  25  26
ENDBRANCH  24  25
ENDBRANCH  23  24
ENDBRANCH   1  21
TORSDOF 7
ENDMDL
