MODEL 1
REMARK VINA RESULT:      39.0      0.000      0.000
REMARK  6 active torsions:
REMARK  status: ('A' for Active; 'I' for Inactive)
REMARK       I    between atoms: C_2  and  N_1 
REMARK    1  A    between atoms: C_8  and  C_2 
REMARK    2  A    between atoms: C_11  and  C_3 
REMARK       I    between atoms: C_4  and  N_6 
REMARK    3  A    between atoms: C_5  and  C_4 
REMARK       I    between atoms: N_7  and  C_5 
REMARK    4  A    between atoms: N_6  and  C_11 
REMARK    5  A    between atoms: C_17  and  N_7 
REMARK    6  A    between atoms: C_20  and  C_17 
ROOT
ATOM      1  C   UNL d   1      45.960 -14.690  43.901  0.00  0.00     0.146 C 
ENDROOT
BRANCH   1   2
ATOM      2  N   UNL d   1      46.394 -14.190  44.392  0.00  0.00    -0.199 NA
ATOM      3  C   UNL d   1      46.180 -13.401  44.462  0.00  0.00     0.337 C 
ATOM      4  O   UNL d   1      46.614 -12.901  44.953  0.00  0.00    -0.260 OA
BRANCH   3   5
ATOM      5  C   UNL d   1      45.533 -13.101  44.042  0.00  0.00     0.337 C 
ATOM      6  N   UNL d   1      45.587 -12.384  43.661  0.00  0.00    -0.202 NA
ATOM      7  O   UNL d   1      44.832 -13.532  44.014  0.00  0.00    -0.260 OA
BRANCH   6   8
ATOM      8  C   UNL d   1      44.939 -12.084  43.241  0.00  0.00     0.102 C 
BRANCH   8   9
ATOM      9  C   UNL d   1      44.915 -12.128  42.422  0.00  0.00     0.019 A 
ATOM     10  C   UNL d   1      45.597 -12.218  41.981  0.00  0.00     0.002 A 
ATOM     11  C   UNL d   1      45.583 -12.263  41.168  0.00  0.00     0.011 A 
ATOM     12  C   UNL d   1      44.848 -12.215  40.771  0.00  0.00     0.058 A 
ATOM     13  C   UNL d   1      44.153 -12.124  41.201  0.00  0.00     0.011 A 
ATOM     14 CL   UNL d   1      44.826 -12.260  39.938  0.00  0.00    -0.082 Cl
ATOM     15  C   UNL d   1      44.179 -12.080  42.025  0.00  0.00     0.002 A 
ENDBRANCH   8   9
ENDBRANCH   6   8
ENDBRANCH   3   5
ENDBRANCH   1   2
BRANCH   1  16
ATOM     16  C   UNL d   1      45.651 -15.393  44.197  0.00  0.00     0.190 A 
ATOM     17  N   UNL d   1      45.790 -16.144  43.890  0.00  0.00    -0.250 N 
ATOM     18  C   UNL d   1      46.261 -16.329  43.233  0.00  0.00     0.266 C 
ATOM     19  C   UNL d   1      45.373 -16.679  44.357  0.00  0.00     0.112 A 
ATOM     20  O   UNL d   1      46.646 -15.733  42.818  0.00  0.00    -0.267 OA
ATOM     21  C   UNL d   1      44.974 -16.265  44.955  0.00  0.00     0.144 A 
ATOM     22  O   UNL d   1      45.147 -15.467  44.856  0.00  0.00    -0.285 OA
BRANCH  18  23
ATOM     23  C   UNL d   1      46.345 -17.127  42.990  0.00  0.00     0.057 A 
ATOM     24  C   UNL d   1      46.350 -17.727  43.547  0.00  0.00     0.006 A 
ATOM     25  C   UNL d   1      46.433 -18.513  43.306  0.00  0.00     0.012 A 
ATOM     26  C   UNL d   1      46.511 -18.691  42.507  0.00  0.00     0.058 A 
ATOM     27  C   UNL d   1      46.507 -18.083  41.945  0.00  0.00     0.012 A 
ATOM     28 CL   UNL d   1      46.596 -19.487  42.266  0.00  0.00    -0.082 Cl
ATOM     29  C   UNL d   1      46.424 -17.310  42.189  0.00  0.00     0.006 A 
ENDBRANCH  18  23
ENDBRANCH   1  16
TORSDOF 6
ENDMDL
