MODEL 1
REMARK VINA RESULT:      59.0      0.000      0.000
REMARK  3 active torsions:
REMARK  status: ('A' for Active; 'I' for Inactive)
REMARK       I    between atoms: C_4  and  N_1 
REMARK    1  A    between atoms: C_7  and  C_3 
REMARK    2  A    between atoms: C_8  and  C_4 
REMARK    3  A    between atoms: C_13  and  C_5 
ROOT
ATOM      1  N   UNL d   1     -51.606  26.017  33.775  0.00  0.00    -0.194 N 
ATOM      2  N   UNL d   1     -52.355  25.702  33.849  0.00  0.00    -0.163 NA
ATOM      3  C   UNL d   1     -51.074  25.395  33.661  0.00  0.00     0.091 A 
ATOM      4  C   UNL d   1     -51.394  26.841  33.809  0.00  0.00     0.286 C 
ATOM      5  C   UNL d   1     -52.288  24.882  33.779  0.00  0.00     0.103 A 
ATOM      6  C   UNL d   1     -51.501  24.697  33.664  0.00  0.00     0.040 A 
ATOM      7  O   UNL d   1     -51.996  27.398  33.927  0.00  0.00    -0.265 OA
ENDROOT
BRANCH   3   8
ATOM      8  C   UNL d   1     -50.253  25.473  33.561  0.00  0.00     0.057 A 
ATOM      9  C   UNL d   1     -49.775  24.817  33.616  0.00  0.00     0.197 A 
ATOM     10  O   UNL d   1     -50.093  24.085  33.768  0.00  0.00    -0.286 OA
ATOM     11  C   UNL d   1     -48.954  24.894  33.515  0.00  0.00     0.042 A 
ATOM     12  C   UNL d   1     -48.609  25.626  33.361  0.00  0.00     0.003 A 
ATOM     13  C   UNL d   1     -49.109  26.278  33.309  0.00  0.00     0.000 A 
ATOM     14  C   UNL d   1     -49.907  26.206  33.405  0.00  0.00     0.005 A 
ENDBRANCH   3   8
BRANCH   4  15
ATOM     15  C   UNL d   1     -50.628  27.072  33.727  0.00  0.00     0.087 A 
ATOM     16  S   UNL d   1     -50.312  27.740  34.037  0.00  0.00    -0.082 SA
ATOM     17  C   UNL d   1     -49.505  27.762  33.818  0.00  0.00     0.036 A 
ATOM     18  C   UNL d   1     -49.345  27.083  33.364  0.00  0.00     0.008 A 
ATOM     19  C   UNL d   1     -50.039  26.658  33.309  0.00  0.00     0.012 A 
ENDBRANCH   4  15
BRANCH   5  20
ATOM     20  C   UNL d   1     -52.914  24.345  33.821  0.00  0.00     0.019 A 
ATOM     21  C   UNL d   1     -52.897  23.734  34.386  0.00  0.00     0.002 A 
ATOM     22  C   UNL d   1     -53.522  23.194  34.430  0.00  0.00     0.000 A 
ATOM     23  C   UNL d   1     -54.164  23.261  33.913  0.00  0.00     0.000 A 
ATOM     24  C   UNL d   1     -54.182  23.873  33.348  0.00  0.00     0.000 A 
ATOM     25  C   UNL d   1     -53.556  24.410  33.307  0.00  0.00     0.002 A 
ENDBRANCH   5  20
TORSDOF 3
ENDMDL
MODEL 2
REMARK VINA RESULT:      61.1      0.874      2.080
REMARK  3 active torsions:
REMARK  status: ('A' for Active; 'I' for Inactive)
REMARK       I    between atoms: C_4  and  N_1 
REMARK    1  A    between atoms: C_7  and  C_3 
REMARK    2  A    between atoms: C_8  and  C_4 
REMARK    3  A    between atoms: C_13  and  C_5 
ROOT
ATOM      1  N   UNL d   1     -50.976  25.731  33.720  0.00  0.00    -0.194 N 
ATOM      2  N   UNL d   1     -51.357  25.010  33.728  0.00  0.00    -0.163 NA
ATOM      3  C   UNL d   1     -51.529  26.313  33.521  0.00  0.00     0.091 A 
ATOM      4  C   UNL d   1     -50.154  25.876  33.885  0.00  0.00     0.286 C 
ATOM      5  C   UNL d   1     -52.148  25.143  33.533  0.00  0.00     0.103 A 
ATOM      6  C   UNL d   1     -52.250  25.944  33.407  0.00  0.00     0.040 A 
ATOM      7  O   UNL d   1     -49.671  25.230  34.076  0.00  0.00    -0.265 OA
ENDROOT
BRANCH   3   8
ATOM      8  C   UNL d   1     -51.372  27.126  33.451  0.00  0.00     0.057 A 
ATOM      9  C   UNL d   1     -51.988  27.657  33.444  0.00  0.00     0.197 A 
ATOM     10  O   UNL d   1     -52.757  27.401  33.506  0.00  0.00    -0.286 OA
ATOM     11  C   UNL d   1     -51.831  28.470  33.374  0.00  0.00     0.042 A 
ATOM     12  C   UNL d   1     -51.061  28.754  33.311  0.00  0.00     0.003 A 
ATOM     13  C   UNL d   1     -50.451  28.200  33.319  0.00  0.00     0.000 A 
ATOM     14  C   UNL d   1     -50.600  27.410  33.387  0.00  0.00     0.005 A 
ENDBRANCH   3   8
BRANCH   4  15
ATOM     15  C   UNL d   1     -49.853  26.621  33.856  0.00  0.00     0.087 A 
ATOM     16  S   UNL d   1     -50.213  27.275  34.145  0.00  0.00    -0.082 SA
ATOM     17  C   UNL d   1     -49.709  27.927  33.998  0.00  0.00     0.036 A 
ATOM     18  C   UNL d   1     -49.032  27.641  33.609  0.00  0.00     0.008 A 
ATOM     19  C   UNL d   1     -49.122  26.836  33.522  0.00  0.00     0.012 A 
ENDBRANCH   4  15
BRANCH   5  20
ATOM     20  C   UNL d   1     -52.732  24.563  33.478  0.00  0.00     0.019 A 
ATOM     21  C   UNL d   1     -53.535  24.779  33.528  0.00  0.00     0.002 A 
ATOM     22  C   UNL d   1     -54.123  24.200  33.473  0.00  0.00     0.000 A 
ATOM     23  C   UNL d   1     -53.915  23.406  33.368  0.00  0.00     0.000 A 
ATOM     24  C   UNL d   1     -53.112  23.190  33.318  0.00  0.00     0.000 A 
ATOM     25  C   UNL d   1     -52.528  23.771  33.373  0.00  0.00     0.002 A 
ENDBRANCH   5  20
TORSDOF 3
ENDMDL
