MODEL 1
REMARK VINA RESULT:      -7.6      0.000      0.000
REMARK  4 active torsions:
REMARK  status: ('A' for Active; 'I' for Inactive)
REMARK    1  A    between atoms: C_9  and  C_2 
REMARK    2  A    between atoms: N_11  and  C_9 
REMARK    3  A    between atoms: C_14  and  N_11 
REMARK    4  A    between atoms: C_17  and  C_14 
ROOT
ATOM      1  C   UNL d   1     -46.376  12.328  22.874  0.00  0.00     0.106 A 
ATOM      2  C   UNL d   1     -47.695  12.869  22.964  0.00  0.00     0.025 A 
ATOM      3  C   UNL d   1     -46.900  12.957  22.771  0.00  0.00     0.025 A 
ATOM      4  O   UNL d   1     -46.648  11.611  23.171  0.00  0.00    -0.273 OA
ATOM      5  C   UNL d   1     -45.581  12.418  22.681  0.00  0.00     0.062 A 
ATOM      6  C   UNL d   1     -47.449  11.516  23.367  0.00  0.00     0.300 A 
ATOM      7  C   UNL d   1     -47.973  12.146  23.264  0.00  0.00     0.070 A 
ATOM      8  C   UNL d   1     -46.628  13.676  22.474  0.00  0.00     0.005 A 
ATOM      9  C   UNL d   1     -45.312  13.140  22.384  0.00  0.00     0.198 A 
ATOM     10  O   UNL d   1     -47.720  10.790  23.666  0.00  0.00    -0.259 OA
ATOM     11  C   UNL d   1     -45.833  13.765  22.281  0.00  0.00     0.042 A 
ATOM     12  O   UNL d   1     -44.513  13.231  22.189  0.00  0.00    -0.286 OA
ATOM     13  C   UNL d   1     -45.057  11.789  22.784  0.00  0.00     0.005 C 
ENDROOT
BRANCH   2  14
ATOM     14  C   UNL d   1     -48.213  13.492  22.862  0.00  0.00     0.081 C 
BRANCH  14  15
ATOM     15  N   UNL d   1     -49.026  13.343  22.781  0.00  0.00    -0.301 N 
ATOM     16  C   UNL d   1     -49.297  12.939  22.114  0.00  0.00     0.100 C 
BRANCH  15  17
ATOM     17  C   UNL d   1     -49.558  13.595  23.362  0.00  0.00     0.080 C 
BRANCH  17  18
ATOM     18  C   UNL d   1     -50.031  14.255  23.229  0.00  0.00     0.018 A 
ATOM     19  C   UNL d   1     -50.584  14.243  22.640  0.00  0.00     0.002 A 
ATOM     20  C   UNL d   1     -51.064  14.900  22.497  0.00  0.00     0.000 A 
ATOM     21  C   UNL d   1     -50.976  15.587  22.970  0.00  0.00     0.000 A 
ATOM     22  C   UNL d   1     -50.405  15.584  23.570  0.00  0.00     0.000 A 
ATOM     23  C   UNL d   1     -49.938  14.927  23.698  0.00  0.00     0.002 A 
ENDBRANCH  17  18
ENDBRANCH  15  17
ENDBRANCH  14  15
ENDBRANCH   2  14
TORSDOF 4
ENDMDL
MODEL 2
REMARK VINA RESULT:      -7.0      1.864      4.436
REMARK  4 active torsions:
REMARK  status: ('A' for Active; 'I' for Inactive)
REMARK    1  A    between atoms: C_9  and  C_2 
REMARK    2  A    between atoms: N_11  and  C_9 
REMARK    3  A    between atoms: C_14  and  N_11 
REMARK    4  A    between atoms: C_17  and  C_14 
ROOT
ATOM      1  C   UNL d   1     -49.886  13.760  23.244  0.00  0.00     0.106 A 
ATOM      2  C   UNL d   1     -48.754  12.897  23.127  0.00  0.00     0.025 A 
ATOM      3  C   UNL d   1     -49.081  13.652  23.100  0.00  0.00     0.025 A 
ATOM      4  O   UNL d   1     -50.364  13.113  23.416  0.00  0.00    -0.273 OA
ATOM      5  C   UNL d   1     -50.212  14.516  23.216  0.00  0.00     0.062 A 
ATOM      6  C   UNL d   1     -50.039  12.349  23.445  0.00  0.00     0.300 A 
ATOM      7  C   UNL d   1     -49.234  12.242  23.300  0.00  0.00     0.070 A 
ATOM      8  C   UNL d   1     -48.602  14.300  22.927  0.00  0.00     0.005 A 
ATOM      9  C   UNL d   1     -49.729  15.162  23.043  0.00  0.00     0.198 A 
ATOM     10  O   UNL d   1     -50.525  11.699  23.618  0.00  0.00    -0.259 OA
ATOM     11  C   UNL d   1     -48.929  15.055  22.900  0.00  0.00     0.042 A 
ATOM     12  O   UNL d   1     -50.055  15.922  23.015  0.00  0.00    -0.286 OA
ATOM     13  C   UNL d   1     -51.017  14.624  23.360  0.00  0.00     0.005 C 
ENDROOT
BRANCH   2  14
ATOM     14  C   UNL d   1     -47.956  12.791  22.984  0.00  0.00     0.081 C 
BRANCH  14  15
ATOM     15  N   UNL d   1     -47.625  12.031  23.042  0.00  0.00    -0.301 N 
ATOM     16  C   UNL d   1     -47.831  11.459  22.485  0.00  0.00     0.100 C 
BRANCH  15  17
ATOM     17  C   UNL d   1     -47.096  11.851  23.652  0.00  0.00     0.080 C 
BRANCH  17  18
ATOM     18  C   UNL d   1     -46.324  11.631  23.475  0.00  0.00     0.018 A 
ATOM     19  C   UNL d   1     -46.051  10.902  23.695  0.00  0.00     0.002 A 
ATOM     20  C   UNL d   1     -45.277  10.671  23.522  0.00  0.00     0.000 A 
ATOM     21  C   UNL d   1     -44.769  11.199  23.115  0.00  0.00     0.000 A 
ATOM     22  C   UNL d   1     -45.062  11.942  22.897  0.00  0.00     0.000 A 
ATOM     23  C   UNL d   1     -45.829  12.156  23.074  0.00  0.00     0.002 A 
ENDBRANCH  17  18
ENDBRANCH  15  17
ENDBRANCH  14  15
ENDBRANCH   2  14
TORSDOF 4
ENDMDL
MODEL 3
REMARK VINA RESULT:      -6.9      1.694      4.415
REMARK  4 active torsions:
REMARK  status: ('A' for Active; 'I' for Inactive)
REMARK    1  A    between atoms: C_9  and  C_2 
REMARK    2  A    between atoms: N_11  and  C_9 
REMARK    3  A    between atoms: C_14  and  N_11 
REMARK    4  A    between atoms: C_17  and  C_14 
ROOT
ATOM      1  C   UNL d   1     -49.786  13.887  23.283  0.00  0.00     0.106 A 
ATOM      2  C   UNL d   1     -48.511  13.376  22.893  0.00  0.00     0.025 A 
ATOM      3  C   UNL d   1     -49.027  14.011  22.985  0.00  0.00     0.025 A 
ATOM      4  O   UNL d   1     -50.029  13.129  23.489  0.00  0.00    -0.273 OA
ATOM      5  C   UNL d   1     -50.301  14.523  23.375  0.00  0.00     0.062 A 
ATOM      6  C   UNL d   1     -49.512  12.485  23.398  0.00  0.00     0.300 A 
ATOM      7  C   UNL d   1     -48.753  12.609  23.100  0.00  0.00     0.070 A 
ATOM      8  C   UNL d   1     -48.783  14.770  22.779  0.00  0.00     0.005 A 
ATOM      9  C   UNL d   1     -50.053  15.282  23.167  0.00  0.00     0.198 A 
ATOM     10  O   UNL d   1     -49.762  11.721  23.608  0.00  0.00    -0.259 OA
ATOM     11  C   UNL d   1     -49.299  15.405  22.871  0.00  0.00     0.042 A 
ATOM     12  O   UNL d   1     -50.570  15.921  23.258  0.00  0.00    -0.286 OA
ATOM     13  C   UNL d   1     -51.060  14.399  23.673  0.00  0.00     0.005 C 
ENDROOT
BRANCH   2  14
ATOM     14  C   UNL d   1     -47.759  13.499  22.598  0.00  0.00     0.081 C 
BRANCH  14  15
ATOM     15  N   UNL d   1     -47.215  12.871  22.581  0.00  0.00    -0.301 N 
ATOM     16  C   UNL d   1     -47.367  12.220  22.098  0.00  0.00     0.100 C 
BRANCH  15  17
ATOM     17  C   UNL d   1     -46.530  12.899  23.043  0.00  0.00     0.080 C 
BRANCH  17  18
ATOM     18  C   UNL d   1     -45.791  12.835  22.688  0.00  0.00     0.018 A 
ATOM     19  C   UNL d   1     -45.480  13.463  22.286  0.00  0.00     0.002 A 
ATOM     20  C   UNL d   1     -44.738  13.409  21.926  0.00  0.00     0.000 A 
ATOM     21  C   UNL d   1     -44.304  12.695  21.979  0.00  0.00     0.000 A 
ATOM     22  C   UNL d   1     -44.635  12.059  22.394  0.00  0.00     0.000 A 
ATOM     23  C   UNL d   1     -45.369  12.128  22.744  0.00  0.00     0.002 A 
ENDBRANCH  17  18
ENDBRANCH  15  17
ENDBRANCH  14  15
ENDBRANCH   2  14
TORSDOF 4
ENDMDL
MODEL 4
REMARK VINA RESULT:      -6.8      1.876      4.670
REMARK  4 active torsions:
REMARK  status: ('A' for Active; 'I' for Inactive)
REMARK    1  A    between atoms: C_9  and  C_2 
REMARK    2  A    between atoms: N_11  and  C_9 
REMARK    3  A    between atoms: C_14  and  N_11 
REMARK    4  A    between atoms: C_17  and  C_14 
ROOT
ATOM      1  C   UNL d   1     -49.637  13.435  23.034  0.00  0.00     0.106 A 
ATOM      2  C   UNL d   1     -48.209  13.469  23.017  0.00  0.00     0.025 A 
ATOM      3  C   UNL d   1     -48.911  13.058  23.142  0.00  0.00     0.025 A 
ATOM      4  O   UNL d   1     -49.661  14.224  22.801  0.00  0.00    -0.273 OA
ATOM      5  C   UNL d   1     -50.339  13.023  23.159  0.00  0.00     0.062 A 
ATOM      6  C   UNL d   1     -48.955  14.643  22.673  0.00  0.00     0.300 A 
ATOM      7  C   UNL d   1     -48.230  14.266  22.782  0.00  0.00     0.070 A 
ATOM      8  C   UNL d   1     -48.887  12.268  23.375  0.00  0.00     0.005 A 
ATOM      9  C   UNL d   1     -50.311  12.232  23.392  0.00  0.00     0.198 A 
ATOM     10  O   UNL d   1     -48.984  15.440  22.438  0.00  0.00    -0.259 OA
ATOM     11  C   UNL d   1     -49.589  11.857  23.500  0.00  0.00     0.042 A 
ATOM     12  O   UNL d   1     -51.015  11.816  23.518  0.00  0.00    -0.286 OA
ATOM     13  C   UNL d   1     -51.064  13.400  23.050  0.00  0.00     0.005 C 
ENDROOT
BRANCH   2  14
ATOM     14  C   UNL d   1     -47.491  13.096  23.124  0.00  0.00     0.081 C 
BRANCH  14  15
ATOM     15  N   UNL d   1     -46.795  13.452  22.843  0.00  0.00    -0.301 N 
ATOM     16  C   UNL d   1     -46.473  14.089  23.257  0.00  0.00     0.100 C 
BRANCH  15  17
ATOM     17  C   UNL d   1     -46.430  13.171  22.156  0.00  0.00     0.080 C 
BRANCH  17  18
ATOM     18  C   UNL d   1     -45.657  12.892  22.185  0.00  0.00     0.018 A 
ATOM     19  C   UNL d   1     -45.477  12.251  22.643  0.00  0.00     0.002 A 
ATOM     20  C   UNL d   1     -44.703  11.962  22.679  0.00  0.00     0.000 A 
ATOM     21  C   UNL d   1     -44.100  12.339  22.236  0.00  0.00     0.000 A 
ATOM     22  C   UNL d   1     -44.300  12.994  21.772  0.00  0.00     0.000 A 
ATOM     23  C   UNL d   1     -45.069  13.268  21.746  0.00  0.00     0.002 A 
ENDBRANCH  17  18
ENDBRANCH  15  17
ENDBRANCH  14  15
ENDBRANCH   2  14
TORSDOF 4
ENDMDL
MODEL 5
REMARK VINA RESULT:      -6.1      8.362     10.382
REMARK  4 active torsions:
REMARK  status: ('A' for Active; 'I' for Inactive)
REMARK    1  A    between atoms: C_9  and  C_2 
REMARK    2  A    between atoms: N_11  and  C_9 
REMARK    3  A    between atoms: C_14  and  N_11 
REMARK    4  A    between atoms: C_17  and  C_14 
ROOT
ATOM      1  C   UNL d   1     -38.430  14.030  16.490  0.00  0.00     0.106 A 
ATOM      2  C   UNL d   1     -38.920  14.271  17.810  0.00  0.00     0.025 A 
ATOM      3  C   UNL d   1     -38.675  14.555  17.077  0.00  0.00     0.025 A 
ATOM      4  O   UNL d   1     -38.430  13.220  16.636  0.00  0.00    -0.273 OA
ATOM      5  C   UNL d   1     -38.185  14.315  15.758  0.00  0.00     0.062 A 
ATOM      6  C   UNL d   1     -38.677  12.929  17.374  0.00  0.00     0.300 A 
ATOM      7  C   UNL d   1     -38.922  13.454  17.960  0.00  0.00     0.070 A 
ATOM      8  C   UNL d   1     -38.675  15.366  16.932  0.00  0.00     0.005 A 
ATOM      9  C   UNL d   1     -38.186  15.128  15.616  0.00  0.00     0.198 A 
ATOM     10  O   UNL d   1     -38.676  12.110  17.517  0.00  0.00    -0.259 OA
ATOM     11  C   UNL d   1     -38.429  15.650  16.199  0.00  0.00     0.042 A 
ATOM     12  O   UNL d   1     -37.940  15.416  14.880  0.00  0.00    -0.286 OA
ATOM     13  C   UNL d   1     -37.940  13.790  15.171  0.00  0.00     0.005 C 
ENDROOT
BRANCH   2  14
ATOM     14  C   UNL d   1     -39.163  14.792  18.391  0.00  0.00     0.081 C 
BRANCH  14  15
ATOM     15  N   UNL d   1     -39.762  14.568  18.921  0.00  0.00    -0.301 N 
ATOM     16  C   UNL d   1     -40.539  14.509  18.648  0.00  0.00     0.100 C 
BRANCH  15  17
ATOM     17  C   UNL d   1     -39.582  14.405  19.711  0.00  0.00     0.080 C 
BRANCH  17  18
ATOM     18  C   UNL d   1     -39.853  14.904  20.306  0.00  0.00     0.018 A 
ATOM     19  C   UNL d   1     -40.643  14.940  20.475  0.00  0.00     0.002 A 
ATOM     20  C   UNL d   1     -40.926  15.437  21.071  0.00  0.00     0.000 A 
ATOM     21  C   UNL d   1     -40.387  15.910  21.505  0.00  0.00     0.000 A 
ATOM     22  C   UNL d   1     -39.581  15.863  21.321  0.00  0.00     0.000 A 
ATOM     23  C   UNL d   1     -39.317  15.366  20.730  0.00  0.00     0.002 A 
ENDBRANCH  17  18
ENDBRANCH  15  17
ENDBRANCH  14  15
ENDBRANCH   2  14
TORSDOF 4
ENDMDL
MODEL 6
REMARK VINA RESULT:      -6.0      8.364     10.066
REMARK  4 active torsions:
REMARK  status: ('A' for Active; 'I' for Inactive)
REMARK    1  A    between atoms: C_9  and  C_2 
REMARK    2  A    between atoms: N_11  and  C_9 
REMARK    3  A    between atoms: C_14  and  N_11 
REMARK    4  A    between atoms: C_17  and  C_14 
ROOT
ATOM      1  C   UNL d   1     -39.349  13.966  21.595  0.00  0.00     0.106 A 
ATOM      2  C   UNL d   1     -39.252  14.241  20.197  0.00  0.00     0.025 A 
ATOM      3  C   UNL d   1     -38.948  13.891  20.878  0.00  0.00     0.025 A 
ATOM      4  O   UNL d   1     -40.052  14.390  21.632  0.00  0.00    -0.273 OA
ATOM      5  C   UNL d   1     -39.044  13.615  22.275  0.00  0.00     0.062 A 
ATOM      6  C   UNL d   1     -40.362  14.745  20.949  0.00  0.00     0.300 A 
ATOM      7  C   UNL d   1     -39.962  14.671  20.231  0.00  0.00     0.070 A 
ATOM      8  C   UNL d   1     -38.244  13.466  20.840  0.00  0.00     0.005 A 
ATOM      9  C   UNL d   1     -38.338  13.190  22.234  0.00  0.00     0.198 A 
ATOM     10  O   UNL d   1     -41.073  15.173  20.990  0.00  0.00    -0.259 OA
ATOM     11  C   UNL d   1     -37.941  13.116  21.521  0.00  0.00     0.042 A 
ATOM     12  O   UNL d   1     -38.032  12.837  22.917  0.00  0.00    -0.286 OA
ATOM     13  C   UNL d   1     -39.445  13.690  22.993  0.00  0.00     0.005 C 
ENDROOT
BRANCH   2  14
ATOM     14  C   UNL d   1     -38.855  14.167  19.487  0.00  0.00     0.081 C 
BRANCH  14  15
ATOM     15  N   UNL d   1     -39.191  14.477  18.793  0.00  0.00    -0.301 N 
ATOM     16  C   UNL d   1     -39.227  15.295  18.694  0.00  0.00     0.100 C 
BRANCH  15  17
ATOM     17  C   UNL d   1     -39.487  13.971  18.210  0.00  0.00     0.080 C 
BRANCH  17  18
ATOM     18  C   UNL d   1     -39.099  13.905  17.487  0.00  0.00     0.018 A 
ATOM     19  C   UNL d   1     -39.204  14.471  16.920  0.00  0.00     0.002 A 
ATOM     20  C   UNL d   1     -38.820  14.415  16.190  0.00  0.00     0.000 A 
ATOM     21  C   UNL d   1     -38.317  13.763  16.038  0.00  0.00     0.000 A 
ATOM     22  C   UNL d   1     -38.219  13.191  16.628  0.00  0.00     0.000 A 
ATOM     23  C   UNL d   1     -38.605  13.260  17.344  0.00  0.00     0.002 A 
ENDBRANCH  17  18
ENDBRANCH  15  17
ENDBRANCH  14  15
ENDBRANCH   2  14
TORSDOF 4
ENDMDL
MODEL 7
REMARK VINA RESULT:      -5.7      8.304      9.839
REMARK  4 active torsions:
REMARK  status: ('A' for Active; 'I' for Inactive)
REMARK    1  A    between atoms: C_9  and  C_2 
REMARK    2  A    between atoms: N_11  and  C_9 
REMARK    3  A    between atoms: C_14  and  N_11 
REMARK    4  A    between atoms: C_17  and  C_14 
ROOT
ATOM      1  C   UNL d   1     -39.495  14.305  17.492  0.00  0.00     0.106 A 
ATOM      2  C   UNL d   1     -39.834  14.440  18.873  0.00  0.00     0.025 A 
ATOM      3  C   UNL d   1     -39.376  14.097  18.282  0.00  0.00     0.025 A 
ATOM      4  O   UNL d   1     -40.073  14.856  17.294  0.00  0.00    -0.273 OA
ATOM      5  C   UNL d   1     -39.036  13.961  16.902  0.00  0.00     0.062 A 
ATOM      6  C   UNL d   1     -40.538  15.205  17.887  0.00  0.00     0.300 A 
ATOM      7  C   UNL d   1     -40.419  14.997  18.676  0.00  0.00     0.070 A 
ATOM      8  C   UNL d   1     -38.797  13.545  18.480  0.00  0.00     0.005 A 
ATOM      9  C   UNL d   1     -38.457  13.409  17.104  0.00  0.00     0.198 A 
ATOM     10  O   UNL d   1     -41.121  15.761  17.683  0.00  0.00    -0.259 OA
ATOM     11  C   UNL d   1     -38.338  13.202  17.889  0.00  0.00     0.042 A 
ATOM     12  O   UNL d   1     -37.995  13.063  16.512  0.00  0.00    -0.286 OA
ATOM     13  C   UNL d   1     -39.155  14.169  16.112  0.00  0.00     0.005 C 
ENDROOT
BRANCH   2  14
ATOM     14  C   UNL d   1     -39.716  14.234  19.655  0.00  0.00     0.081 C 
BRANCH  14  15
ATOM     15  N   UNL d   1     -39.981  14.739  20.258  0.00  0.00    -0.301 N 
ATOM     16  C   UNL d   1     -40.760  14.675  20.523  0.00  0.00     0.100 C 
BRANCH  15  17
ATOM     17  C   UNL d   1     -39.471  15.299  20.590  0.00  0.00     0.080 C 
BRANCH  17  18
ATOM     18  C   UNL d   1     -39.307  15.281  21.396  0.00  0.00     0.018 A 
ATOM     19  C   UNL d   1     -38.941  14.637  21.719  0.00  0.00     0.002 A 
ATOM     20  C   UNL d   1     -38.773  14.609  22.528  0.00  0.00     0.000 A 
ATOM     21  C   UNL d   1     -38.984  15.256  23.017  0.00  0.00     0.000 A 
ATOM     22  C   UNL d   1     -39.358  15.909  22.671  0.00  0.00     0.000 A 
ATOM     23  C   UNL d   1     -39.518  15.922  21.871  0.00  0.00     0.002 A 
ENDBRANCH  17  18
ENDBRANCH  15  17
ENDBRANCH  14  15
ENDBRANCH   2  14
TORSDOF 4
ENDMDL
MODEL 8
REMARK VINA RESULT:      -5.7      9.062      9.950
REMARK  4 active torsions:
REMARK  status: ('A' for Active; 'I' for Inactive)
REMARK    1  A    between atoms: C_9  and  C_2 
REMARK    2  A    between atoms: N_11  and  C_9 
REMARK    3  A    between atoms: C_14  and  N_11 
REMARK    4  A    between atoms: C_17  and  C_14 
ROOT
ATOM      1  C   UNL d   1     -39.942  14.497  17.867  0.00  0.00     0.106 A 
ATOM      2  C   UNL d   1     -39.384  14.288  19.165  0.00  0.00     0.025 A 
ATOM      3  C   UNL d   1     -39.898  14.695  18.666  0.00  0.00     0.025 A 
ATOM      4  O   UNL d   1     -39.473  13.893  17.565  0.00  0.00    -0.273 OA
ATOM      5  C   UNL d   1     -40.456  14.905  17.369  0.00  0.00     0.062 A 
ATOM      6  C   UNL d   1     -38.953  13.479  18.064  0.00  0.00     0.300 A 
ATOM      7  C   UNL d   1     -38.909  13.676  18.863  0.00  0.00     0.070 A 
ATOM      8  C   UNL d   1     -40.368  15.300  18.969  0.00  0.00     0.005 A 
ATOM      9  C   UNL d   1     -40.925  15.511  17.676  0.00  0.00     0.198 A 
ATOM     10  O   UNL d   1     -38.481  12.869  17.755  0.00  0.00    -0.259 OA
ATOM     11  C   UNL d   1     -40.881  15.707  18.471  0.00  0.00     0.042 A 
ATOM     12  O   UNL d   1     -41.442  15.922  17.177  0.00  0.00    -0.286 OA
ATOM     13  C   UNL d   1     -40.500  14.708  16.569  0.00  0.00     0.005 C 
ENDROOT
BRANCH   2  14
ATOM     14  C   UNL d   1     -39.341  14.483  19.957  0.00  0.00     0.081 C 
BRANCH  14  15
ATOM     15  N   UNL d   1     -38.775  14.116  20.441  0.00  0.00    -0.301 N 
ATOM     16  C   UNL d   1     -37.978  14.310  20.347  0.00  0.00     0.100 C 
BRANCH  15  17
ATOM     17  C   UNL d   1     -39.007  13.564  21.011  0.00  0.00     0.080 C 
BRANCH  17  18
ATOM     18  C   UNL d   1     -38.809  13.679  21.801  0.00  0.00     0.018 A 
ATOM     19  C   UNL d   1     -39.105  14.316  22.202  0.00  0.00     0.002 A 
ATOM     20  C   UNL d   1     -38.913  14.441  22.996  0.00  0.00     0.000 A 
ATOM     21  C   UNL d   1     -38.406  13.902  23.389  0.00  0.00     0.000 A 
ATOM     22  C   UNL d   1     -38.111  13.254  22.965  0.00  0.00     0.000 A 
ATOM     23  C   UNL d   1     -38.310  13.144  22.181  0.00  0.00     0.002 A 
ENDBRANCH  17  18
ENDBRANCH  15  17
ENDBRANCH  14  15
ENDBRANCH   2  14
TORSDOF 4
ENDMDL
MODEL 9
REMARK VINA RESULT:      -5.0      8.225     10.625
REMARK  4 active torsions:
REMARK  status: ('A' for Active; 'I' for Inactive)
REMARK    1  A    between atoms: C_9  and  C_2 
REMARK    2  A    between atoms: N_11  and  C_9 
REMARK    3  A    between atoms: C_14  and  N_11 
REMARK    4  A    between atoms: C_17  and  C_14 
ROOT
ATOM      1  C   UNL d   1     -39.680  14.749  20.555  0.00  0.00     0.106 A 
ATOM      2  C   UNL d   1     -38.974  14.620  19.320  0.00  0.00     0.025 A 
ATOM      3  C   UNL d   1     -39.590  14.944  19.758  0.00  0.00     0.025 A 
ATOM      4  O   UNL d   1     -39.152  14.230  20.913  0.00  0.00    -0.273 OA
ATOM      5  C   UNL d   1     -40.297  15.074  20.992  0.00  0.00     0.062 A 
ATOM      6  C   UNL d   1     -38.528  13.900  20.476  0.00  0.00     0.300 A 
ATOM      7  C   UNL d   1     -38.439  14.095  19.679  0.00  0.00     0.070 A 
ATOM      8  C   UNL d   1     -40.119  15.464  19.399  0.00  0.00     0.005 A 
ATOM      9  C   UNL d   1     -40.824  15.595  20.628  0.00  0.00     0.198 A 
ATOM     10  O   UNL d   1     -37.997  13.375  20.842  0.00  0.00    -0.259 OA
ATOM     11  C   UNL d   1     -40.735  15.789  19.837  0.00  0.00     0.042 A 
ATOM     12  O   UNL d   1     -41.445  15.922  21.067  0.00  0.00    -0.286 OA
ATOM     13  C   UNL d   1     -40.386  14.879  21.789  0.00  0.00     0.005 C 
ENDROOT
BRANCH   2  14
ATOM     14  C   UNL d   1     -38.885  14.813  18.531  0.00  0.00     0.081 C 
BRANCH  14  15
ATOM     15  N   UNL d   1     -38.650  14.230  17.988  0.00  0.00    -0.301 N 
ATOM     16  C   UNL d   1     -39.134  13.573  17.869  0.00  0.00     0.100 C 
BRANCH  15  17
ATOM     17  C   UNL d   1     -37.940  14.308  17.573  0.00  0.00     0.080 C 
BRANCH  17  18
ATOM     18  C   UNL d   1     -37.944  14.335  16.751  0.00  0.00     0.018 A 
ATOM     19  C   UNL d   1     -37.950  15.047  16.370  0.00  0.00     0.002 A 
ATOM     20  C   UNL d   1     -37.954  15.086  15.544  0.00  0.00     0.000 A 
ATOM     21  C   UNL d   1     -37.952  14.376  15.098  0.00  0.00     0.000 A 
ATOM     22  C   UNL d   1     -37.945  13.654  15.502  0.00  0.00     0.000 A 
ATOM     23  C   UNL d   1     -37.941  13.632  16.318  0.00  0.00     0.002 A 
ENDBRANCH  17  18
ENDBRANCH  15  17
ENDBRANCH  14  15
ENDBRANCH   2  14
TORSDOF 4
ENDMDL
