MODEL 1
REMARK VINA RESULT:      43.7      0.000      0.000
REMARK  9 active torsions:
REMARK  status: ('A' for Active; 'I' for Inactive)
REMARK    1  A    between atoms: P_4  and  C_1 
REMARK    2  A    between atoms: N_7  and  C_3 
REMARK    3  A    between atoms: O_10  and  P_4 
REMARK    4  A    between atoms: O_11  and  P_4 
REMARK    5  A    between atoms: C_8  and  C_5 
REMARK    6  A    between atoms: C_14  and  N_7 
REMARK    7  A    between atoms: C_21  and  O_10 
REMARK    8  A    between atoms: C_20  and  O_11 
REMARK    9  A    between atoms: C_19  and  C_14 
ROOT
ATOM      1  C   UNL d   1      13.717  13.870  -3.335  0.00  0.00     0.205 A 
ATOM      2  N   UNL d   1      13.820  14.677  -3.242  0.00  0.00    -0.211 NA
ATOM      3  C   UNL d   1      14.141  13.474  -2.752  0.00  0.00     0.209 A 
ATOM      4  C   UNL d   1      14.300  14.785  -2.614  0.00  0.00     0.184 A 
ATOM      5  O   UNL d   1      14.510  14.062  -2.296  0.00  0.00    -0.270 OA
ENDROOT
BRANCH   1   6
ATOM      6  P   UNL d   1      13.250  13.491  -3.931  0.00  0.00     0.395 P 
ATOM      7  O   UNL d   1      13.006  12.915  -3.393  0.00  0.00    -0.251 OA
BRANCH   6   8
ATOM      8  O   UNL d   1      12.800  13.130  -4.519  0.00  0.00    -0.263 OA
BRANCH   8   9
ATOM      9  C   UNL d   1      12.808  12.330  -4.627  0.00  0.00     0.126 C 
ATOM     10  C   UNL d   1      12.773  12.026  -5.369  0.00  0.00     0.029 C 
ENDBRANCH   8   9
ENDBRANCH   6   8
BRANCH   6  11
ATOM     11  O   UNL d   1      13.510  14.087  -4.467  0.00  0.00    -0.263 OA
BRANCH  11  12
ATOM     12  C   UNL d   1      13.127  14.157  -5.182  0.00  0.00     0.126 C 
ATOM     13  C   UNL d   1      13.020  14.919  -5.472  0.00  0.00     0.029 C 
ENDBRANCH  11  12
ENDBRANCH   6  11
ENDBRANCH   1   6
BRANCH   3  14
ATOM     14  N   UNL d   1      14.127  12.633  -2.723  0.00  0.00    -0.219 NA
BRANCH  14  15
ATOM     15  C   UNL d   1      13.838  12.250  -2.048  0.00  0.00     0.101 C 
BRANCH  15  16
ATOM     16  C   UNL d   1      14.349  12.094  -1.417  0.00  0.00     0.019 A 
ATOM     17  C   UNL d   1      14.051  12.030  -0.632  0.00  0.00     0.002 A 
ATOM     18  C   UNL d   1      14.565  11.876  -0.016  0.00  0.00     0.000 A 
ATOM     19  C   UNL d   1      15.386  11.779  -0.146  0.00  0.00     0.000 A 
ATOM     20  C   UNL d   1      15.686  11.845  -0.940  0.00  0.00     0.000 A 
ATOM     21  C   UNL d   1      15.150  12.002  -1.555  0.00  0.00     0.002 A 
ENDBRANCH  15  16
ENDBRANCH  14  15
ENDBRANCH   3  14
BRANCH   4  22
ATOM     22  C   UNL d   1      14.528  15.534  -2.353  0.00  0.00     0.042 A 
ATOM     23  C   UNL d   1      14.547  15.720  -1.556  0.00  0.00     0.006 A 
ATOM     24  C   UNL d   1      14.776  16.467  -1.312  0.00  0.00     0.030 A 
ATOM     25  C   UNL d   1      14.993  17.051  -1.859  0.00  0.00     0.140 A 
ATOM     26  C   UNL d   1      14.976  16.864  -2.687  0.00  0.00     0.030 A 
ATOM     27  F   UNL d   1      15.227  17.808  -1.644  0.00  0.00    -0.204 F 
ATOM     28  C   UNL d   1      14.745  16.111  -2.922  0.00  0.00     0.006 A 
ENDBRANCH   4  22
TORSDOF 9
ENDMDL
