MODEL 1
REMARK VINA RESULT:      -3.6      0.000      0.000
REMARK  8 active torsions:
REMARK  status: ('A' for Active; 'I' for Inactive)
REMARK    1  A    between atoms: C_7  and  N_1 
REMARK    2  A    between atoms: C_23  and  C_5 
REMARK    3  A    between atoms: C_22  and  C_6 
REMARK    4  A    between atoms: C_8  and  C_7 
REMARK       I    between atoms: N_10  and  C_8 
REMARK    5  A    between atoms: C_9  and  C_13 
REMARK    6  A    between atoms: O_19  and  C_9 
REMARK    7  A    between atoms: C_18  and  N_10 
REMARK    8  A    between atoms: C_24  and  O_19 
ROOT
ATOM      1  C   UNL d   1      57.695  -0.350  30.414  0.00  0.00     0.297 C 
ATOM      2  N   UNL d   1      57.643   0.392  30.776  0.00  0.00    -0.207 NA
ATOM      3  O   UNL d   1      57.532  -1.031  30.851  0.00  0.00    -0.264 OA
ENDROOT
BRANCH   1   4
ATOM      4  C   UNL d   1      57.906  -0.417  29.628  0.00  0.00     0.148 C 
BRANCH   4   5
ATOM      5  N   UNL d   1      58.630  -0.754  29.421  0.00  0.00    -0.235 N 
ATOM      6  C   UNL d   1      58.695  -1.577  29.347  0.00  0.00     0.273 A 
ATOM      7  C   UNL d   1      59.412  -1.911  29.142  0.00  0.00     0.086 A 
ATOM      8  O   UNL d   1      58.034  -2.056  29.481  0.00  0.00    -0.266 OA
ATOM      9  S   UNL d   1      60.071  -1.444  29.008  0.00  0.00    -0.077 SA
ATOM     10  C   UNL d   1      60.011  -0.629  29.080  0.00  0.00     0.086 A 
ATOM     11  C   UNL d   1      59.294  -0.276  29.286  0.00  0.00     0.273 A 
ATOM     12  O   UNL d   1      59.232   0.541  29.360  0.00  0.00    -0.266 OA
BRANCH   7  13
ATOM     13  C   UNL d   1      59.475  -2.737  29.069  0.00  0.00     0.011 C 
ATOM     14  C   UNL d   1      60.195  -3.111  29.220  0.00  0.00     0.001 C 
ENDBRANCH   7  13
BRANCH  10  15
ATOM     15  C   UNL d   1      60.671  -0.153  28.946  0.00  0.00     0.011 C 
ATOM     16  C   UNL d   1      61.018   0.253  29.576  0.00  0.00     0.001 C 
ENDBRANCH  10  15
ENDBRANCH   4   5
ENDBRANCH   1   4
BRANCH   2  17
ATOM     17  C   UNL d   1      57.428   0.452  31.572  0.00  0.00     0.085 A 
ATOM     18  C   UNL d   1      58.000   0.621  32.142  0.00  0.00     0.019 A 
ATOM     19  C   UNL d   1      57.771   0.677  32.929  0.00  0.00     0.007 A 
ATOM     20  C   UNL d   1      56.992   0.569  33.154  0.00  0.00     0.064 A 
ATOM     21  C   UNL d   1      56.423   0.401  32.581  0.00  0.00     0.007 A 
ATOM     22  C   UNL d   1      56.637   0.341  31.785  0.00  0.00     0.019 A 
BRANCH  20  23
ATOM     23  C   UNL d   1      56.772   0.628  33.950  0.00  0.00     0.300 C 
ATOM     24  O   UNL d   1      57.354   0.632  34.535  0.00  0.00    -0.259 OA
BRANCH  23  25
ATOM     25  O   UNL d   1      55.986   0.682  34.157  0.00  0.00    -0.271 OA
BRANCH  25  26
ATOM     26  C   UNL d   1      55.752   0.658  34.945  0.00  0.00     0.126 C 
ATOM     27  C   UNL d   1      54.976   0.517  35.149  0.00  0.00     0.029 C 
ENDBRANCH  25  26
ENDBRANCH  23  25
ENDBRANCH  20  23
ENDBRANCH   2  17
TORSDOF 8
ENDMDL
MODEL 2
REMARK VINA RESULT:      -2.9      0.868      1.260
REMARK  8 active torsions:
REMARK  status: ('A' for Active; 'I' for Inactive)
REMARK    1  A    between atoms: C_7  and  N_1 
REMARK    2  A    between atoms: C_23  and  C_5 
REMARK    3  A    between atoms: C_22  and  C_6 
REMARK    4  A    between atoms: C_8  and  C_7 
REMARK       I    between atoms: N_10  and  C_8 
REMARK    5  A    between atoms: C_9  and  C_13 
REMARK    6  A    between atoms: O_19  and  C_9 
REMARK    7  A    between atoms: C_18  and  N_10 
REMARK    8  A    between atoms: C_24  and  O_19 
ROOT
ATOM      1  C   UNL d   1      58.452  -0.161  30.305  0.00  0.00     0.297 C 
ATOM      2  N   UNL d   1      57.664   0.039  30.464  0.00  0.00    -0.207 NA
ATOM      3  O   UNL d   1      58.987  -0.244  30.928  0.00  0.00    -0.264 OA
ENDROOT
BRANCH   1   4
ATOM      4  C   UNL d   1      58.705  -0.278  29.538  0.00  0.00     0.148 C 
BRANCH   4   5
ATOM      5  N   UNL d   1      58.997  -1.015  29.306  0.00  0.00    -0.235 N 
ATOM      6  C   UNL d   1      58.479  -1.584  28.999  0.00  0.00     0.273 A 
ATOM      7  C   UNL d   1      58.768  -2.313  28.769  0.00  0.00     0.086 A 
ATOM      8  O   UNL d   1      57.674  -1.411  28.925  0.00  0.00    -0.266 OA
ATOM      9  S   UNL d   1      59.564  -2.492  28.838  0.00  0.00    -0.077 SA
ATOM     10  C   UNL d   1      60.080  -1.932  29.142  0.00  0.00     0.086 A 
ATOM     11  C   UNL d   1      59.804  -1.190  29.379  0.00  0.00     0.273 A 
ATOM     12  O   UNL d   1      60.319  -0.626  29.684  0.00  0.00    -0.266 OA
BRANCH   7  13
ATOM     13  C   UNL d   1      58.246  -2.883  28.460  0.00  0.00     0.011 C 
ATOM     14  C   UNL d   1      58.387  -3.685  28.592  0.00  0.00     0.001 C 
ENDBRANCH   7  13
BRANCH  10  15
ATOM     15  C   UNL d   1      60.882  -2.105  29.215  0.00  0.00     0.011 C 
ATOM     16  C   UNL d   1      61.131  -2.891  29.246  0.00  0.00     0.001 C 
ENDBRANCH  10  15
ENDBRANCH   4   5
ENDBRANCH   1   4
BRANCH   2  17
ATOM     17  C   UNL d   1      57.414   0.156  31.243  0.00  0.00     0.085 A 
ATOM     18  C   UNL d   1      56.682  -0.133  31.490  0.00  0.00     0.019 A 
ATOM     19  C   UNL d   1      56.448  -0.009  32.268  0.00  0.00     0.007 A 
ATOM     20  C   UNL d   1      56.926   0.394  32.796  0.00  0.00     0.064 A 
ATOM     21  C   UNL d   1      57.658   0.682  32.545  0.00  0.00     0.007 A 
ATOM     22  C   UNL d   1      57.907   0.565  31.766  0.00  0.00     0.019 A 
BRANCH  20  23
ATOM     23  C   UNL d   1      56.681   0.514  33.578  0.00  0.00     0.300 C 
ATOM     24  O   UNL d   1      57.233   0.475  34.190  0.00  0.00    -0.259 OA
BRANCH  23  25
ATOM     25  O   UNL d   1      55.898   0.670  33.744  0.00  0.00    -0.271 OA
BRANCH  25  26
ATOM     26  C   UNL d   1      55.615   0.642  34.515  0.00  0.00     0.126 C 
ATOM     27  C   UNL d   1      54.818   0.574  34.668  0.00  0.00     0.029 C 
ENDBRANCH  25  26
ENDBRANCH  23  25
ENDBRANCH  20  23
ENDBRANCH   2  17
TORSDOF 8
ENDMDL
