MODEL 1
REMARK VINA RESULT:      -4.0      0.000      0.000
REMARK  4 active torsions:
REMARK  status: ('A' for Active; 'I' for Inactive)
REMARK    1  A    between atoms: C_9  and  C_3 
REMARK    2  A    between atoms: N_10  and  C_9 
REMARK    3  A    between atoms: C_19  and  C_9 
REMARK    4  A    between atoms: C_12  and  N_11 
ROOT
ATOM      1  C   UNL d   1     -40.573  14.593  20.619  0.00  0.00     0.075 C 
ENDROOT
BRANCH   1   2
ATOM      2  C   UNL d   1     -40.056  14.818  21.224  0.00  0.00     0.106 A 
ATOM      3  C   UNL d   1     -39.385  14.392  21.478  0.00  0.00     0.289 A 
ATOM      4  N   UNL d   1     -39.032  14.815  22.092  0.00  0.00    -0.169 N 
ATOM      5  O   UNL d   1     -39.123  13.670  21.167  0.00  0.00    -0.265 OA
ATOM      6  C   UNL d   1     -39.478  15.499  22.220  0.00  0.00     0.200 A 
ATOM      7  N   UNL d   1     -38.407  14.819  22.626  0.00  0.00    -0.141 NA
ATOM      8  S   UNL d   1     -40.108  15.502  21.688  0.00  0.00    -0.042 SA
ATOM      9  N   UNL d   1     -39.125  15.922  22.833  0.00  0.00    -0.200 NA
ATOM     10  C   UNL d   1     -38.461  15.503  23.086  0.00  0.00     0.184 A 
ATOM     11  C   UNL d   1     -37.940  15.720  23.691  0.00  0.00     0.044 C 
ENDBRANCH   1   2
BRANCH   1  12
ATOM     12  N   UNL d   1     -40.395  14.797  19.840  0.00  0.00    -0.301 N 
ATOM     13  C   UNL d   1     -40.499  15.567  19.574  0.00  0.00     0.100 A 
ATOM     14  C   UNL d   1     -40.318  15.765  18.791  0.00  0.00     0.100 A 
ATOM     15  N   UNL d   1     -40.032  15.194  18.263  0.00  0.00    -0.299 N 
ATOM     16  C   UNL d   1     -39.932  14.424  18.540  0.00  0.00     0.100 A 
ATOM     17  C   UNL d   1     -40.110  14.218  19.322  0.00  0.00     0.100 A 
BRANCH  15  18
ATOM     18  C   UNL d   1     -39.858  15.398  17.496  0.00  0.00     0.092 A 
ATOM     19  C   UNL d   1     -40.424  15.718  17.002  0.00  0.00     0.156 A 
ATOM     20  F   UNL d   1     -41.198  15.837  17.295  0.00  0.00    -0.203 F 
ATOM     21  C   UNL d   1     -40.238  15.922  16.226  0.00  0.00     0.031 A 
ATOM     22  C   UNL d   1     -39.474  15.802  15.946  0.00  0.00     0.002 A 
ATOM     23  C   UNL d   1     -38.908  15.481  16.440  0.00  0.00     0.002 A 
ATOM     24  C   UNL d   1     -39.091  15.279  17.209  0.00  0.00     0.020 A 
ENDBRANCH  15  18
ENDBRANCH   1  12
BRANCH   1  25
ATOM     25  C   UNL d   1     -41.256  14.173  20.796  0.00  0.00     0.017 A 
ATOM     26  C   UNL d   1     -41.280  13.366  20.679  0.00  0.00     0.002 A 
ATOM     27  C   UNL d   1     -41.955  12.961  20.855  0.00  0.00     0.000 A 
ATOM     28  C   UNL d   1     -42.631  13.357  21.156  0.00  0.00     0.000 A 
ATOM     29  C   UNL d   1     -42.600  14.154  21.269  0.00  0.00     0.000 A 
ATOM     30  C   UNL d   1     -41.913  14.582  21.092  0.00  0.00     0.002 A 
ENDBRANCH   1  25
TORSDOF 4
ENDMDL
MODEL 2
REMARK VINA RESULT:      -2.3      1.886      4.877
REMARK  4 active torsions:
REMARK  status: ('A' for Active; 'I' for Inactive)
REMARK    1  A    between atoms: C_9  and  C_3 
REMARK    2  A    between atoms: N_10  and  C_9 
REMARK    3  A    between atoms: C_19  and  C_9 
REMARK    4  A    between atoms: C_12  and  N_11 
ROOT
ATOM      1  C   UNL d   1     -40.600  14.468  20.563  0.00  0.00     0.075 C 
ENDROOT
BRANCH   1   2
ATOM      2  C   UNL d   1     -40.483  14.594  19.754  0.00  0.00     0.106 A 
ATOM      3  C   UNL d   1     -40.724  15.265  19.322  0.00  0.00     0.289 A 
ATOM      4  N   UNL d   1     -40.496  15.159  18.537  0.00  0.00    -0.169 N 
ATOM      5  O   UNL d   1     -41.123  15.922  19.631  0.00  0.00    -0.265 OA
ATOM      6  C   UNL d   1     -40.115  14.428  18.478  0.00  0.00     0.200 A 
ATOM      7  N   UNL d   1     -40.501  15.500  17.789  0.00  0.00    -0.141 NA
ATOM      8  S   UNL d   1     -40.106  14.079  19.225  0.00  0.00    -0.042 SA
ATOM      9  N   UNL d   1     -39.887  14.322  17.693  0.00  0.00    -0.200 NA
ATOM     10  C   UNL d   1     -40.125  14.985  17.264  0.00  0.00     0.184 A 
ATOM     11  C   UNL d   1     -40.012  15.117  16.455  0.00  0.00     0.044 C 
ENDBRANCH   1   2
BRANCH   1  12
ATOM     12  N   UNL d   1     -41.299  14.115  20.820  0.00  0.00    -0.301 N 
ATOM     13  C   UNL d   1     -41.911  14.571  21.122  0.00  0.00     0.100 A 
ATOM     14  C   UNL d   1     -42.611  14.210  21.379  0.00  0.00     0.100 A 
ATOM     15  N   UNL d   1     -42.706  13.388  21.336  0.00  0.00    -0.299 N 
ATOM     16  C   UNL d   1     -42.086  12.940  21.031  0.00  0.00     0.100 A 
ATOM     17  C   UNL d   1     -41.383  13.293  20.772  0.00  0.00     0.100 A 
BRANCH  15  18
ATOM     18  C   UNL d   1     -43.397  13.043  21.590  0.00  0.00     0.092 A 
ATOM     19  C   UNL d   1     -43.393  12.345  22.014  0.00  0.00     0.156 A 
ATOM     20  F   UNL d   1     -42.661  11.980  22.189  0.00  0.00    -0.203 F 
ATOM     21  C   UNL d   1     -44.098  12.003  22.267  0.00  0.00     0.031 A 
ATOM     22  C   UNL d   1     -44.814  12.369  22.092  0.00  0.00     0.002 A 
ATOM     23  C   UNL d   1     -44.818  13.067  21.667  0.00  0.00     0.002 A 
ATOM     24  C   UNL d   1     -44.120  13.407  21.415  0.00  0.00     0.020 A 
ENDBRANCH  15  18
ENDBRANCH   1  12
BRANCH   1  25
ATOM     25  C   UNL d   1     -40.023  14.695  21.102  0.00  0.00     0.017 A 
ATOM     26  C   UNL d   1     -40.035  15.445  21.421  0.00  0.00     0.002 A 
ATOM     27  C   UNL d   1     -39.465  15.659  21.950  0.00  0.00     0.000 A 
ATOM     28  C   UNL d   1     -38.862  15.122  22.176  0.00  0.00     0.000 A 
ATOM     29  C   UNL d   1     -38.856  14.382  21.857  0.00  0.00     0.000 A 
ATOM     30  C   UNL d   1     -39.435  14.150  21.314  0.00  0.00     0.002 A 
ENDBRANCH   1  25
TORSDOF 4
ENDMDL
MODEL 3
REMARK VINA RESULT:      -2.1      2.073      4.948
REMARK  4 active torsions:
REMARK  status: ('A' for Active; 'I' for Inactive)
REMARK    1  A    between atoms: C_9  and  C_3 
REMARK    2  A    between atoms: N_10  and  C_9 
REMARK    3  A    between atoms: C_19  and  C_9 
REMARK    4  A    between atoms: C_12  and  N_11 
ROOT
ATOM      1  C   UNL d   1     -39.307  14.062  18.584  0.00  0.00     0.075 C 
ENDROOT
BRANCH   1   2
ATOM      2  C   UNL d   1     -39.877  14.427  18.108  0.00  0.00     0.106 A 
ATOM      3  C   UNL d   1     -39.728  14.876  17.421  0.00  0.00     0.289 A 
ATOM      4  N   UNL d   1     -40.453  15.134  17.123  0.00  0.00    -0.169 N 
ATOM      5  O   UNL d   1     -38.983  15.033  17.098  0.00  0.00    -0.265 OA
ATOM      6  C   UNL d   1     -41.050  14.849  17.620  0.00  0.00     0.200 A 
ATOM      7  N   UNL d   1     -40.811  15.566  16.523  0.00  0.00    -0.141 NA
ATOM      8  S   UNL d   1     -40.698  14.414  18.226  0.00  0.00    -0.042 SA
ATOM      9  N   UNL d   1     -41.773  15.106  17.322  0.00  0.00    -0.200 NA
ATOM     10  C   UNL d   1     -41.629  15.551  16.642  0.00  0.00     0.184 A 
ATOM     11  C   UNL d   1     -42.193  15.919  16.162  0.00  0.00     0.044 C 
ENDBRANCH   1   2
BRANCH   1  12
ATOM     12  N   UNL d   1     -39.204  14.319  19.360  0.00  0.00    -0.301 N 
ATOM     13  C   UNL d   1     -39.757  14.132  19.939  0.00  0.00     0.100 A 
ATOM     14  C   UNL d   1     -39.648  14.393  20.717  0.00  0.00     0.100 A 
ATOM     15  N   UNL d   1     -38.985  14.843  20.926  0.00  0.00    -0.299 N 
ATOM     16  C   UNL d   1     -38.437  15.025  20.338  0.00  0.00     0.100 A 
ATOM     17  C   UNL d   1     -38.538  14.768  19.557  0.00  0.00     0.100 A 
BRANCH  15  18
ATOM     18  C   UNL d   1     -38.887  15.095  21.693  0.00  0.00     0.092 A 
ATOM     19  C   UNL d   1     -39.350  14.801  22.299  0.00  0.00     0.156 A 
ATOM     20  F   UNL d   1     -39.935  14.231  22.123  0.00  0.00    -0.203 F 
ATOM     21  C   UNL d   1     -39.244  15.062  23.072  0.00  0.00     0.031 A 
ATOM     22  C   UNL d   1     -38.665  15.624  23.237  0.00  0.00     0.002 A 
ATOM     23  C   UNL d   1     -38.203  15.917  22.631  0.00  0.00     0.002 A 
ATOM     24  C   UNL d   1     -38.307  15.660  21.863  0.00  0.00     0.020 A 
ENDBRANCH  15  18
ENDBRANCH   1  12
BRANCH   1  25
ATOM     25  C   UNL d   1     -38.850  13.450  18.281  0.00  0.00     0.017 A 
ATOM     26  C   UNL d   1     -38.436  13.555  17.586  0.00  0.00     0.002 A 
ATOM     27  C   UNL d   1     -37.989  12.949  17.297  0.00  0.00     0.000 A 
ATOM     28  C   UNL d   1     -37.944  12.215  17.699  0.00  0.00     0.000 A 
ATOM     29  C   UNL d   1     -38.355  12.118  18.386  0.00  0.00     0.000 A 
ATOM     30  C   UNL d   1     -38.817  12.732  18.693  0.00  0.00     0.002 A 
ENDBRANCH   1  25
TORSDOF 4
ENDMDL
MODEL 4
REMARK VINA RESULT:      -1.1      6.415      8.628
REMARK  4 active torsions:
REMARK  status: ('A' for Active; 'I' for Inactive)
REMARK    1  A    between atoms: C_9  and  C_3 
REMARK    2  A    between atoms: N_10  and  C_9 
REMARK    3  A    between atoms: C_19  and  C_9 
REMARK    4  A    between atoms: C_12  and  N_11 
ROOT
ATOM      1  C   UNL d   1     -47.835  13.560  22.470  0.00  0.00     0.075 C 
ENDROOT
BRANCH   1   2
ATOM      2  C   UNL d   1     -48.404  12.984  22.636  0.00  0.00     0.106 A 
ATOM      3  C   UNL d   1     -48.832  12.540  22.074  0.00  0.00     0.289 A 
ATOM      4  N   UNL d   1     -49.338  12.032  22.481  0.00  0.00    -0.169 N 
ATOM      5  O   UNL d   1     -48.759  12.602  21.251  0.00  0.00    -0.265 OA
ATOM      6  C   UNL d   1     -49.227  12.156  23.291  0.00  0.00     0.200 A 
ATOM      7  N   UNL d   1     -49.910  11.449  22.393  0.00  0.00    -0.141 NA
ATOM      8  S   UNL d   1     -48.654  12.741  23.388  0.00  0.00    -0.042 SA
ATOM      9  N   UNL d   1     -49.732  11.648  23.698  0.00  0.00    -0.200 NA
ATOM     10  C   UNL d   1     -50.157  11.208  23.143  0.00  0.00     0.184 A 
ATOM     11  C   UNL d   1     -50.727  10.631  23.302  0.00  0.00     0.044 C 
ENDBRANCH   1   2
BRANCH   1  12
ATOM     12  N   UNL d   1     -47.047  13.335  22.377  0.00  0.00    -0.301 N 
ATOM     13  C   UNL d   1     -46.787  13.004  21.672  0.00  0.00     0.100 A 
ATOM     14  C   UNL d   1     -45.995  12.780  21.584  0.00  0.00     0.100 A 
ATOM     15  N   UNL d   1     -45.453  12.885  22.202  0.00  0.00    -0.299 N 
ATOM     16  C   UNL d   1     -45.724  13.218  22.906  0.00  0.00     0.100 A 
ATOM     17  C   UNL d   1     -46.515  13.444  23.001  0.00  0.00     0.100 A 
BRANCH  15  18
ATOM     18  C   UNL d   1     -44.677  12.661  22.107  0.00  0.00     0.092 A 
ATOM     19  C   UNL d   1     -44.361  12.033  22.522  0.00  0.00     0.156 A 
ATOM     20  F   UNL d   1     -44.849  11.612  23.056  0.00  0.00    -0.203 F 
ATOM     21  C   UNL d   1     -43.575  11.814  22.419  0.00  0.00     0.031 A 
ATOM     22  C   UNL d   1     -43.101  12.233  21.892  0.00  0.00     0.002 A 
ATOM     23  C   UNL d   1     -43.417  12.862  21.477  0.00  0.00     0.002 A 
ATOM     24  C   UNL d   1     -44.197  13.080  21.579  0.00  0.00     0.020 A 
ENDBRANCH  15  18
ENDBRANCH   1  12
BRANCH   1  25
ATOM     25  C   UNL d   1     -48.056  14.348  22.398  0.00  0.00     0.017 A 
ATOM     26  C   UNL d   1     -48.101  14.694  21.661  0.00  0.00     0.002 A 
ATOM     27  C   UNL d   1     -48.318  15.468  21.600  0.00  0.00     0.000 A 
ATOM     28  C   UNL d   1     -48.499  15.922  22.282  0.00  0.00     0.000 A 
ATOM     29  C   UNL d   1     -48.452  15.574  23.008  0.00  0.00     0.000 A 
ATOM     30  C   UNL d   1     -48.230  14.780  23.084  0.00  0.00     0.002 A 
ENDBRANCH   1  25
TORSDOF 4
ENDMDL
