MODEL 1
REMARK VINA RESULT:      40.6      0.000      0.000
REMARK  6 active torsions:
REMARK  status: ('A' for Active; 'I' for Inactive)
REMARK    1  A    between atoms: S_2  and  N_1 
REMARK    2  A    between atoms: C_11  and  S_2 
REMARK    3  A    between atoms: O_8  and  C_5 
REMARK    4  A    between atoms: C_7  and  O_8 
REMARK    5  A    between atoms: C_12  and  C_7 
REMARK    6  A    between atoms: O_20  and  C_17 
ROOT
ATOM      1  N   UNL d   1     -55.024-101.567 -43.097  0.00  0.00    -0.130 N 
ATOM      2  N   UNL d   1     -54.910-101.579 -42.282  0.00  0.00    -0.128 NA
ATOM      3  C   UNL d   1     -55.161-102.334 -43.355  0.00  0.00     0.200 A 
ATOM      4  C   UNL d   1     -54.978-102.366 -42.033  0.00  0.00     0.208 A 
ATOM      5  C   UNL d   1     -55.132-102.827 -42.688  0.00  0.00     0.088 A 
ATOM      6  N   UNL d   1     -55.302-102.569 -44.131  0.00  0.00    -0.126 N 
ENDROOT
BRANCH   4   7
ATOM      7  O   UNL d   1     -54.904-102.636 -41.254  0.00  0.00    -0.253 OA
BRANCH   7   8
ATOM      8  C   UNL d   1     -55.575-102.721 -40.781  0.00  0.00     0.301 C 
ATOM      9  O   UNL d   1     -56.316-102.816 -41.125  0.00  0.00    -0.259 OA
BRANCH   8  10
ATOM     10  C   UNL d   1     -55.506-102.712 -39.958  0.00  0.00     0.064 A 
ATOM     11  C   UNL d   1     -56.160-102.877 -39.477  0.00  0.00     0.007 A 
ATOM     12  C   UNL d   1     -56.097-102.869 -38.661  0.00  0.00     0.024 A 
ATOM     13  C   UNL d   1     -55.366-102.692 -38.310  0.00  0.00     0.094 A 
ATOM     14  C   UNL d   1     -54.712-102.526 -38.791  0.00  0.00     0.024 A 
ATOM     15  C   UNL d   1     -54.779-102.535 -39.610  0.00  0.00     0.007 A 
BRANCH  13  16
ATOM     16  O   UNL d   1     -55.285-102.679 -37.499  0.00  0.00    -0.328 OA
ATOM     17  C   UNL d   1     -54.783-102.148 -37.120  0.00  0.00     0.181 C 
ENDBRANCH  13  16
ENDBRANCH   8  10
ENDBRANCH   7   8
ENDBRANCH   4   7
BRANCH   1  18
ATOM     18  S   UNL d   1     -55.003-100.895 -43.575  0.00  0.00     0.287 S 
ATOM     19  O   UNL d   1     -55.276-101.330 -44.236  0.00  0.00    -0.198 OA
ATOM     20  O   UNL d   1     -54.737-100.467 -42.938  0.00  0.00    -0.198 OA
BRANCH  18  21
ATOM     21  C   UNL d   1     -54.976-100.214 -44.039  0.00  0.00     0.105 A 
ATOM     22  C   UNL d   1     -55.082-100.266 -44.858  0.00  0.00     0.013 A 
ATOM     23  C   UNL d   1     -55.055 -99.583 -45.319  0.00  0.00     0.001 A 
ATOM     24  C   UNL d   1     -54.922 -98.851 -44.968  0.00  0.00     0.000 A 
ATOM     25  C   UNL d   1     -54.817 -98.802 -44.152  0.00  0.00     0.001 A 
ATOM     26  C   UNL d   1     -54.842 -99.479 -43.681  0.00  0.00     0.013 A 
ENDBRANCH  18  21
ENDBRANCH   1  18
TORSDOF 6
ENDMDL
