MODEL 1
REMARK VINA RESULT:      -1.7      0.000      0.000
REMARK  4 active torsions:
REMARK  status: ('A' for Active; 'I' for Inactive)
REMARK    1  A    between atoms: S_10  and  C_1 
REMARK    2  A    between atoms: N_3  and  C_2 
REMARK    3  A    between atoms: S_4  and  C_9 
REMARK    4  A    between atoms: C_8  and  S_10 
ROOT
ATOM      1  C   UNL d   1      30.868  16.383 -24.177  0.00  0.00     0.133 A 
ATOM      2  C   UNL d   1      30.059  16.237 -24.056  0.00  0.00     0.035 A 
ATOM      3  C   UNL d   1      31.122  17.139 -24.392  0.00  0.00     0.053 A 
ATOM      4  C   UNL d   1      29.508  16.849 -24.151  0.00  0.00     0.086 A 
ATOM      5  C   UNL d   1      30.573  17.748 -24.485  0.00  0.00     0.009 A 
ATOM      6  C   UNL d   1      29.767  17.606 -24.365  0.00  0.00     0.012 A 
ENDROOT
BRANCH   3   7
ATOM      7  S   UNL d   1      31.926  17.286 -24.512  0.00  0.00    -0.060 SA
BRANCH   7   8
ATOM      8  C   UNL d   1      32.235  18.041 -24.373  0.00  0.00     0.141 A 
ATOM      9  N   UNL d   1      32.414  18.362 -23.635  0.00  0.00    -0.232 NA
ATOM     10  C   UNL d   1      32.708  19.125 -23.755  0.00  0.00     0.088 A 
ATOM     11  C   UNL d   1      32.973  19.700 -23.234  0.00  0.00     0.020 A 
ATOM     12  C   UNL d   1      32.710  19.273 -24.565  0.00  0.00     0.049 A 
ATOM     13  C   UNL d   1      33.240  20.424 -23.521  0.00  0.00     0.002 A 
ATOM     14  C   UNL d   1      33.241  20.570 -24.332  0.00  0.00     0.001 A 
ATOM     15  C   UNL d   1      32.976  19.993 -24.853  0.00  0.00     0.008 A 
ATOM     16  S   UNL d   1      32.417  18.601 -24.950  0.00  0.00    -0.060 SA
ENDBRANCH   7   8
ENDBRANCH   3   7
BRANCH   1  17
ATOM     17  N   UNL d   1      31.421  15.770 -24.083  0.00  0.00    -0.113 N 
ATOM     18  O   UNL d   1      31.588  15.478 -23.328  0.00  0.00    -0.532 OA
ATOM     19  O   UNL d   1      31.803  15.454 -24.745  0.00  0.00    -0.532 OA
ENDBRANCH   1  17
BRANCH   4  20
ATOM     20  S   UNL d   1      28.704  16.705 -24.031  0.00  0.00     0.191 S 
ATOM     21  O   UNL d   1      27.899  16.561 -23.907  0.00  0.00    -0.222 OA
ATOM     22  O   UNL d   1      28.799  16.828 -23.222  0.00  0.00    -0.222 OA
ATOM     23  C   UNL d   1      28.605  16.580 -24.845  0.00  0.00     0.145 C 
ENDBRANCH   4  20
TORSDOF 4
ENDMDL
MODEL 2
REMARK VINA RESULT:      -0.6      3.395      5.153
REMARK  4 active torsions:
REMARK  status: ('A' for Active; 'I' for Inactive)
REMARK    1  A    between atoms: S_10  and  C_1 
REMARK    2  A    between atoms: N_3  and  C_2 
REMARK    3  A    between atoms: S_4  and  C_9 
REMARK    4  A    between atoms: C_8  and  S_10 
ROOT
ATOM      1  C   UNL d   1      32.716  20.961 -21.649  0.00  0.00     0.133 A 
ATOM      2  C   UNL d   1      32.730  21.766 -21.854  0.00  0.00     0.035 A 
ATOM      3  C   UNL d   1      32.964  20.393 -22.196  0.00  0.00     0.053 A 
ATOM      4  C   UNL d   1      32.992  21.999 -22.605  0.00  0.00     0.086 A 
ATOM      5  C   UNL d   1      33.225  20.626 -22.943  0.00  0.00     0.009 A 
ATOM      6  C   UNL d   1      33.240  21.426 -23.150  0.00  0.00     0.012 A 
ENDROOT
BRANCH   3   7
ATOM      7  S   UNL d   1      32.951  19.592 -21.994  0.00  0.00    -0.060 SA
BRANCH   7   8
ATOM      8  C   UNL d   1      32.778  19.023 -22.569  0.00  0.00     0.141 A 
ATOM      9  N   UNL d   1      32.115  19.015 -23.059  0.00  0.00    -0.232 NA
ATOM     10  C   UNL d   1      32.167  18.349 -23.546  0.00  0.00     0.088 A 
ATOM     11  C   UNL d   1      31.676  18.058 -24.134  0.00  0.00     0.020 A 
ATOM     12  C   UNL d   1      32.861  17.948 -23.355  0.00  0.00     0.049 A 
ATOM     13  C   UNL d   1      31.876  17.367 -24.533  0.00  0.00     0.002 A 
ATOM     14  C   UNL d   1      32.570  16.967 -24.341  0.00  0.00     0.001 A 
ATOM     15  C   UNL d   1      33.061  17.258 -23.752  0.00  0.00     0.008 A 
ATOM     16  S   UNL d   1      33.241  18.365 -22.749  0.00  0.00    -0.060 SA
ENDBRANCH   7   8
ENDBRANCH   3   7
BRANCH   1  17
ATOM     17  N   UNL d   1      32.454  20.726 -20.897  0.00  0.00    -0.113 N 
ATOM     18  O   UNL d   1      32.936  20.252 -20.421  0.00  0.00    -0.532 OA
ATOM     19  O   UNL d   1      31.710  20.967 -20.625  0.00  0.00    -0.532 OA
ENDBRANCH   1  17
BRANCH   4  20
ATOM     20  S   UNL d   1      33.007  22.799 -22.809  0.00  0.00     0.191 S 
ATOM     21  O   UNL d   1      33.021  23.601 -23.009  0.00  0.00    -0.222 OA
ATOM     22  O   UNL d   1      32.935  23.006 -22.015  0.00  0.00    -0.222 OA
ATOM     23  C   UNL d   1      33.079  22.593 -23.609  0.00  0.00     0.145 C 
ENDBRANCH   4  20
TORSDOF 4
ENDMDL
MODEL 3
REMARK VINA RESULT:      -0.2      4.546      6.303
REMARK  4 active torsions:
REMARK  status: ('A' for Active; 'I' for Inactive)
REMARK    1  A    between atoms: S_10  and  C_1 
REMARK    2  A    between atoms: N_3  and  C_2 
REMARK    3  A    between atoms: S_4  and  C_9 
REMARK    4  A    between atoms: C_8  and  S_10 
ROOT
ATOM      1  C   UNL d   1      32.619  22.992 -21.553  0.00  0.00     0.133 A 
ATOM      2  C   UNL d   1      32.461  23.266 -20.785  0.00  0.00     0.035 A 
ATOM      3  C   UNL d   1      33.006  22.270 -21.662  0.00  0.00     0.053 A 
ATOM      4  C   UNL d   1      32.690  22.816 -20.128  0.00  0.00     0.086 A 
ATOM      5  C   UNL d   1      33.234  21.822 -21.007  0.00  0.00     0.009 A 
ATOM      6  C   UNL d   1      33.078  22.092 -20.241  0.00  0.00     0.012 A 
ENDROOT
BRANCH   3   7
ATOM      7  S   UNL d   1      33.164  21.996 -22.425  0.00  0.00    -0.060 SA
BRANCH   7   8
ATOM      8  C   UNL d   1      33.172  21.184 -22.580  0.00  0.00     0.141 A 
ATOM      9  N   UNL d   1      33.151  20.583 -22.016  0.00  0.00    -0.232 NA
ATOM     10  C   UNL d   1      33.169  19.860 -22.416  0.00  0.00     0.088 A 
ATOM     11  C   UNL d   1      33.160  19.084 -22.150  0.00  0.00     0.020 A 
ATOM     12  C   UNL d   1      33.200  20.015 -23.224  0.00  0.00     0.049 A 
ATOM     13  C   UNL d   1      33.183  18.463 -22.689  0.00  0.00     0.002 A 
ATOM     14  C   UNL d   1      33.214  18.621 -23.498  0.00  0.00     0.001 A 
ATOM     15  C   UNL d   1      33.223  19.398 -23.763  0.00  0.00     0.008 A 
ATOM     16  S   UNL d   1      33.202  20.837 -23.327  0.00  0.00    -0.060 SA
ENDBRANCH   7   8
ENDBRANCH   3   7
BRANCH   1  17
ATOM     17  N   UNL d   1      32.389  23.443 -22.212  0.00  0.00    -0.113 N 
ATOM     18  O   UNL d   1      32.947  23.643 -22.789  0.00  0.00    -0.532 OA
ATOM     19  O   UNL d   1      31.604  23.690 -22.290  0.00  0.00    -0.532 OA
ENDBRANCH   1  17
BRANCH   4  20
ATOM     20  S   UNL d   1      32.534  23.087 -19.365  0.00  0.00     0.191 S 
ATOM     21  O   UNL d   1      32.373  23.356 -18.600  0.00  0.00    -0.222 OA
ATOM     22  O   UNL d   1      31.832  22.657 -19.352  0.00  0.00    -0.222 OA
ATOM     23  C   UNL d   1      33.241  23.521 -19.374  0.00  0.00     0.145 C 
ENDBRANCH   4  20
TORSDOF 4
ENDMDL
MODEL 4
REMARK VINA RESULT:       0.4      1.995      4.179
REMARK  4 active torsions:
REMARK  status: ('A' for Active; 'I' for Inactive)
REMARK    1  A    between atoms: S_10  and  C_1 
REMARK    2  A    between atoms: N_3  and  C_2 
REMARK    3  A    between atoms: S_4  and  C_9 
REMARK    4  A    between atoms: C_8  and  S_10 
ROOT
ATOM      1  C   UNL d   1      32.556  16.650 -23.854  0.00  0.00     0.133 A 
ATOM      2  C   UNL d   1      32.927  17.394 -23.860  0.00  0.00     0.035 A 
ATOM      3  C   UNL d   1      31.755  16.588 -24.047  0.00  0.00     0.053 A 
ATOM      4  C   UNL d   1      32.494  18.072 -24.059  0.00  0.00     0.086 A 
ATOM      5  C   UNL d   1      31.325  17.264 -24.244  0.00  0.00     0.009 A 
ATOM      6  C   UNL d   1      31.691  18.006 -24.251  0.00  0.00     0.012 A 
ENDROOT
BRANCH   3   7
ATOM      7  S   UNL d   1      31.385  15.850 -24.042  0.00  0.00    -0.060 SA
BRANCH   7   8
ATOM      8  C   UNL d   1      30.565  15.798 -23.943  0.00  0.00     0.141 A 
ATOM      9  N   UNL d   1      30.157  15.885 -23.232  0.00  0.00    -0.232 NA
ATOM     10  C   UNL d   1      29.351  15.791 -23.390  0.00  0.00     0.088 A 
ATOM     11  C   UNL d   1      28.689  15.818 -22.906  0.00  0.00     0.020 A 
ATOM     12  C   UNL d   1      29.264  15.645 -24.195  0.00  0.00     0.049 A 
ATOM     13  C   UNL d   1      27.940  15.700 -23.226  0.00  0.00     0.002 A 
ATOM     14  C   UNL d   1      27.855  15.555 -24.032  0.00  0.00     0.001 A 
ATOM     15  C   UNL d   1      28.518  15.528 -24.516  0.00  0.00     0.008 A 
ATOM     16  S   UNL d   1      30.017  15.650 -24.540  0.00  0.00    -0.060 SA
ENDBRANCH   7   8
ENDBRANCH   3   7
BRANCH   1  17
ATOM     17  N   UNL d   1      32.989  15.970 -23.656  0.00  0.00    -0.113 N 
ATOM     18  O   UNL d   1      33.168  15.811 -22.864  0.00  0.00    -0.532 OA
ATOM     19  O   UNL d   1      33.241  15.452 -24.250  0.00  0.00    -0.532 OA
ENDBRANCH   1  17
BRANCH   4  20
ATOM     20  S   UNL d   1      32.862  18.811 -24.065  0.00  0.00     0.191 S 
ATOM     21  O   UNL d   1      33.229  19.552 -24.067  0.00  0.00    -0.222 OA
ATOM     22  O   UNL d   1      32.705  18.900 -23.262  0.00  0.00    -0.222 OA
ATOM     23  C   UNL d   1      33.022  18.725 -24.875  0.00  0.00     0.145 C 
ENDBRANCH   4  20
TORSDOF 4
ENDMDL
