MODEL 1
REMARK VINA RESULT:      -3.6      0.000      0.000
REMARK  3 active torsions:
REMARK  status: ('A' for Active; 'I' for Inactive)
REMARK    1  A    between atoms: N_5  and  S_1 
REMARK    2  A    between atoms: C_6  and  S_1 
REMARK    3  A    between atoms: C_2  and  C_9 
ROOT
ATOM      1  C   UNL d   1      32.641  17.838 -23.625  0.00  0.00     0.104 A 
ATOM      2  C   UNL d   1      31.681  16.824 -23.918  0.00  0.00     0.025 A 
ATOM      3  C   UNL d   1      31.861  17.561 -23.607  0.00  0.00     0.015 A 
ATOM      4  C   UNL d   1      33.239  17.368 -23.958  0.00  0.00     0.013 A 
ATOM      5  C   UNL d   1      32.279  16.354 -24.251  0.00  0.00     0.002 A 
ATOM      6  C   UNL d   1      33.061  16.629 -24.270  0.00  0.00     0.001 A 
ENDROOT
BRANCH   2   7
ATOM      7  C   UNL d   1      30.901  16.546 -23.900  0.00  0.00     0.111 A 
ATOM      8  N   UNL d   1      30.548  16.163 -23.272  0.00  0.00    -0.239 NA
ATOM      9  C   UNL d   1      29.775  15.986 -23.489  0.00  0.00     0.088 A 
ATOM     10  C   UNL d   1      29.164  15.611 -23.095  0.00  0.00     0.020 A 
ATOM     11  C   UNL d   1      29.654  16.263 -24.257  0.00  0.00     0.049 A 
ATOM     12  C   UNL d   1      28.437  15.509 -23.456  0.00  0.00     0.002 A 
ATOM     13  C   UNL d   1      28.316  15.787 -24.224  0.00  0.00     0.001 A 
ATOM     14  C   UNL d   1      28.933  16.166 -24.622  0.00  0.00     0.008 A 
ATOM     15  S   UNL d   1      30.355  16.612 -24.512  0.00  0.00    -0.066 SA
ENDBRANCH   2   7
BRANCH   1  16
ATOM     16  S   UNL d   1      32.824  18.578 -23.314  0.00  0.00     0.271 S 
ATOM     17  O   UNL d   1      32.738  18.354 -22.554  0.00  0.00    -0.200 OA
ATOM     18  O   UNL d   1      32.919  18.818 -24.234  0.00  0.00    -0.200 OA
BRANCH  16  19
ATOM     19  N   UNL d   1      32.986  19.258 -22.885  0.00  0.00    -0.229 N 
ATOM     20  C   UNL d   1      33.086  19.313 -22.062  0.00  0.00     0.092 A 
ATOM     21  C   UNL d   1      33.241  20.103 -21.874  0.00  0.00     0.021 A 
ATOM     22  C   UNL d   1      33.240  20.541 -22.567  0.00  0.00     0.021 A 
ATOM     23  C   UNL d   1      33.083  20.021 -23.191  0.00  0.00     0.092 A 
ENDBRANCH  16  19
ENDBRANCH   1  16
TORSDOF 3
ENDMDL
MODEL 2
REMARK VINA RESULT:      -3.0      1.314      4.726
REMARK  3 active torsions:
REMARK  status: ('A' for Active; 'I' for Inactive)
REMARK    1  A    between atoms: N_5  and  S_1 
REMARK    2  A    between atoms: C_6  and  S_1 
REMARK    3  A    between atoms: C_2  and  C_9 
ROOT
ATOM      1  C   UNL d   1      32.403  17.975 -23.802  0.00  0.00     0.104 A 
ATOM      2  C   UNL d   1      32.893  19.209 -23.281  0.00  0.00     0.025 A 
ATOM      3  C   UNL d   1      32.477  18.511 -23.176  0.00  0.00     0.015 A 
ATOM      4  C   UNL d   1      32.751  18.147 -24.536  0.00  0.00     0.013 A 
ATOM      5  C   UNL d   1      33.241  19.381 -24.015  0.00  0.00     0.002 A 
ATOM      6  C   UNL d   1      33.169  18.846 -24.645  0.00  0.00     0.001 A 
ENDROOT
BRANCH   2   7
ATOM      7  C   UNL d   1      32.967  19.745 -22.654  0.00  0.00     0.111 A 
ATOM      8  N   UNL d   1      33.063  19.546 -21.868  0.00  0.00    -0.239 NA
ATOM      9  C   UNL d   1      33.112  20.245 -21.437  0.00  0.00     0.088 A 
ATOM     10  C   UNL d   1      33.208  20.394 -20.639  0.00  0.00     0.020 A 
ATOM     11  C   UNL d   1      33.047  20.877 -21.964  0.00  0.00     0.049 A 
ATOM     12  C   UNL d   1      33.240  21.163 -20.360  0.00  0.00     0.002 A 
ATOM     13  C   UNL d   1      33.174  21.795 -20.887  0.00  0.00     0.001 A 
ATOM     14  C   UNL d   1      33.077  21.644 -21.694  0.00  0.00     0.008 A 
ATOM     15  S   UNL d   1      32.957  20.565 -22.721  0.00  0.00    -0.066 SA
ENDBRANCH   2   7
BRANCH   1  16
ATOM     16  S   UNL d   1      31.986  17.273 -23.698  0.00  0.00     0.271 S 
ATOM     17  O   UNL d   1      31.296  17.565 -23.969  0.00  0.00    -0.200 OA
ATOM     18  O   UNL d   1      32.827  16.951 -23.380  0.00  0.00    -0.200 OA
BRANCH  16  19
ATOM     19  N   UNL d   1      31.466  16.641 -23.643  0.00  0.00    -0.229 N 
ATOM     20  C   UNL d   1      30.771  16.531 -24.084  0.00  0.00     0.092 A 
ATOM     21  C   UNL d   1      30.423  15.820 -23.845  0.00  0.00     0.021 A 
ATOM     22  C   UNL d   1      30.892  15.486 -23.261  0.00  0.00     0.021 A 
ATOM     23  C   UNL d   1      31.534  15.990 -23.135  0.00  0.00     0.092 A 
ENDBRANCH  16  19
ENDBRANCH   1  16
TORSDOF 3
ENDMDL
MODEL 3
REMARK VINA RESULT:      -3.0      1.476      4.524
REMARK  3 active torsions:
REMARK  status: ('A' for Active; 'I' for Inactive)
REMARK    1  A    between atoms: N_5  and  S_1 
REMARK    2  A    between atoms: C_6  and  S_1 
REMARK    3  A    between atoms: C_2  and  C_9 
ROOT
ATOM      1  C   UNL d   1      30.690  16.065 -24.076  0.00  0.00     0.104 A 
ATOM      2  C   UNL d   1      31.812  16.943 -24.146  0.00  0.00     0.025 A 
ATOM      3  C   UNL d   1      31.027  16.811 -23.952  0.00  0.00     0.015 A 
ATOM      4  C   UNL d   1      31.149  15.453 -24.397  0.00  0.00     0.013 A 
ATOM      5  C   UNL d   1      32.271  16.331 -24.467  0.00  0.00     0.002 A 
ATOM      6  C   UNL d   1      31.936  15.582 -24.592  0.00  0.00     0.001 A 
ENDROOT
BRANCH   2   7
ATOM      7  C   UNL d   1      32.149  17.689 -24.023  0.00  0.00     0.111 A 
ATOM      8  N   UNL d   1      32.344  18.007 -23.297  0.00  0.00    -0.239 NA
ATOM      9  C   UNL d   1      32.662  18.754 -23.428  0.00  0.00     0.088 A 
ATOM     10  C   UNL d   1      32.952  19.327 -22.921  0.00  0.00     0.020 A 
ATOM     11  C   UNL d   1      32.662  18.894 -24.242  0.00  0.00     0.049 A 
ATOM     12  C   UNL d   1      33.241  20.034 -23.213  0.00  0.00     0.002 A 
ATOM     13  C   UNL d   1      33.241  20.174 -24.027  0.00  0.00     0.001 A 
ATOM     14  C   UNL d   1      32.948  19.596 -24.540  0.00  0.00     0.008 A 
ATOM     15  S   UNL d   1      32.343  18.231 -24.610  0.00  0.00    -0.066 SA
ENDBRANCH   2   7
BRANCH   1  16
ATOM     16  S   UNL d   1      29.901  15.931 -23.882  0.00  0.00     0.271 S 
ATOM     17  O   UNL d   1      29.612  16.242 -24.556  0.00  0.00    -0.200 OA
ATOM     18  O   UNL d   1      30.276  15.565 -23.083  0.00  0.00    -0.200 OA
BRANCH  16  19
ATOM     19  N   UNL d   1      29.088  15.852 -23.806  0.00  0.00    -0.229 N 
ATOM     20  C   UNL d   1      28.616  16.149 -23.190  0.00  0.00     0.092 A 
ATOM     21  C   UNL d   1      27.831  15.939 -23.343  0.00  0.00     0.021 A 
ATOM     22  C   UNL d   1      27.807  15.516 -24.044  0.00  0.00     0.021 A 
ATOM     23  C   UNL d   1      28.581  15.462 -24.331  0.00  0.00     0.092 A 
ENDBRANCH  16  19
ENDBRANCH   1  16
TORSDOF 3
ENDMDL
MODEL 4
REMARK VINA RESULT:      -2.3      2.536      3.903
REMARK  3 active torsions:
REMARK  status: ('A' for Active; 'I' for Inactive)
REMARK    1  A    between atoms: N_5  and  S_1 
REMARK    2  A    between atoms: C_6  and  S_1 
REMARK    3  A    between atoms: C_2  and  C_9 
ROOT
ATOM      1  C   UNL d   1      32.808  20.857 -21.438  0.00  0.00     0.104 A 
ATOM      2  C   UNL d   1      32.914  19.507 -21.887  0.00  0.00     0.025 A 
ATOM      3  C   UNL d   1      32.736  20.293 -22.039  0.00  0.00     0.015 A 
ATOM      4  C   UNL d   1      33.061  20.626 -20.682  0.00  0.00     0.013 A 
ATOM      5  C   UNL d   1      33.167  19.275 -21.131  0.00  0.00     0.002 A 
ATOM      6  C   UNL d   1      33.240  19.839 -20.527  0.00  0.00     0.001 A 
ENDROOT
BRANCH   2   7
ATOM      7  C   UNL d   1      32.842  18.943 -22.488  0.00  0.00     0.111 A 
ATOM      8  N   UNL d   1      32.368  19.012 -23.150  0.00  0.00    -0.239 NA
ATOM      9  C   UNL d   1      32.464  18.329 -23.598  0.00  0.00     0.088 A 
ATOM     10  C   UNL d   1      32.137  18.086 -24.308  0.00  0.00     0.020 A 
ATOM     11  C   UNL d   1      33.000  17.838 -23.208  0.00  0.00     0.049 A 
ATOM     12  C   UNL d   1      32.338  17.361 -24.632  0.00  0.00     0.002 A 
ATOM     13  C   UNL d   1      32.875  16.871 -24.241  0.00  0.00     0.001 A 
ATOM     14  C   UNL d   1      33.205  17.117 -23.524  0.00  0.00     0.008 A 
ATOM     15  S   UNL d   1      33.235  18.221 -22.518  0.00  0.00    -0.066 SA
ENDBRANCH   2   7
BRANCH   1  16
ATOM     16  S   UNL d   1      32.630  21.647 -21.589  0.00  0.00     0.271 S 
ATOM     17  O   UNL d   1      33.241  21.759 -22.089  0.00  0.00    -0.200 OA
ATOM     18  O   UNL d   1      31.908  21.483 -20.986  0.00  0.00    -0.200 OA
BRANCH  16  19
ATOM     19  N   UNL d   1      32.560  22.431 -21.819  0.00  0.00    -0.229 N 
ATOM     20  C   UNL d   1      33.037  22.831 -22.369  0.00  0.00     0.092 A 
ATOM     21  C   UNL d   1      32.765  23.610 -22.427  0.00  0.00     0.021 A 
ATOM     22  C   UNL d   1      32.126  23.701 -21.922  0.00  0.00     0.021 A 
ATOM     23  C   UNL d   1      31.998  22.975 -21.547  0.00  0.00     0.092 A 
ENDBRANCH  16  19
ENDBRANCH   1  16
TORSDOF 3
ENDMDL
MODEL 5
REMARK VINA RESULT:      -2.0      4.036      6.091
REMARK  3 active torsions:
REMARK  status: ('A' for Active; 'I' for Inactive)
REMARK    1  A    between atoms: N_5  and  S_1 
REMARK    2  A    between atoms: C_6  and  S_1 
REMARK    3  A    between atoms: C_2  and  C_9 
ROOT
ATOM      1  C   UNL d   1      32.531  23.080 -20.237  0.00  0.00     0.104 A 
ATOM      2  C   UNL d   1      32.675  22.168 -21.325  0.00  0.00     0.025 A 
ATOM      3  C   UNL d   1      32.661  22.312 -20.518  0.00  0.00     0.015 A 
ATOM      4  C   UNL d   1      32.415  23.702 -20.774  0.00  0.00     0.013 A 
ATOM      5  C   UNL d   1      32.559  22.791 -21.862  0.00  0.00     0.002 A 
ATOM      6  C   UNL d   1      32.428  23.561 -21.583  0.00  0.00     0.001 A 
ENDROOT
BRANCH   2   7
ATOM      7  C   UNL d   1      32.805  21.401 -21.607  0.00  0.00     0.111 A 
ATOM      8  N   UNL d   1      32.856  21.185 -22.392  0.00  0.00    -0.239 NA
ATOM      9  C   UNL d   1      32.988  20.374 -22.422  0.00  0.00     0.088 A 
ATOM     10  C   UNL d   1      33.084  19.854 -23.045  0.00  0.00     0.020 A 
ATOM     11  C   UNL d   1      33.018  20.091 -21.647  0.00  0.00     0.049 A 
ATOM     12  C   UNL d   1      33.211  19.057 -22.907  0.00  0.00     0.002 A 
ATOM     13  C   UNL d   1      33.241  18.774 -22.132  0.00  0.00     0.001 A 
ATOM     14  C   UNL d   1      33.143  19.300 -21.502  0.00  0.00     0.008 A 
ATOM     15  S   UNL d   1      32.904  20.730 -21.141  0.00  0.00    -0.066 SA
ENDBRANCH   2   7
BRANCH   1  16
ATOM     16  S   UNL d   1      32.517  23.227 -19.427  0.00  0.00     0.271 S 
ATOM     17  O   UNL d   1      33.206  22.854 -19.280  0.00  0.00    -0.200 OA
ATOM     18  O   UNL d   1      31.695  23.666 -19.634  0.00  0.00    -0.200 OA
BRANCH  16  19
ATOM     19  N   UNL d   1      32.619  23.306 -18.617  0.00  0.00    -0.229 N 
ATOM     20  C   UNL d   1      32.119  23.010 -18.023  0.00  0.00     0.092 A 
ATOM     21  C   UNL d   1      32.437  23.222 -17.290  0.00  0.00     0.021 A 
ATOM     22  C   UNL d   1      33.128  23.645 -17.418  0.00  0.00     0.021 A 
ATOM     23  C   UNL d   1      33.241  23.698 -18.236  0.00  0.00     0.092 A 
ENDBRANCH  16  19
ENDBRANCH   1  16
TORSDOF 3
ENDMDL
MODEL 6
REMARK VINA RESULT:      -1.5      3.342      5.117
REMARK  3 active torsions:
REMARK  status: ('A' for Active; 'I' for Inactive)
REMARK    1  A    between atoms: N_5  and  S_1 
REMARK    2  A    between atoms: C_6  and  S_1 
REMARK    3  A    between atoms: C_2  and  C_9 
ROOT
ATOM      1  C   UNL d   1      33.039  22.533 -21.448  0.00  0.00     0.104 A 
ATOM      2  C   UNL d   1      33.146  21.501 -22.428  0.00  0.00     0.025 A 
ATOM      3  C   UNL d   1      33.046  21.729 -21.647  0.00  0.00     0.015 A 
ATOM      4  C   UNL d   1      33.134  23.106 -22.041  0.00  0.00     0.013 A 
ATOM      5  C   UNL d   1      33.241  22.074 -23.021  0.00  0.00     0.002 A 
ATOM      6  C   UNL d   1      33.235  22.880 -22.825  0.00  0.00     0.001 A 
ENDROOT
BRANCH   2   7
ATOM      7  C   UNL d   1      33.152  20.697 -22.627  0.00  0.00     0.111 A 
ATOM      8  N   UNL d   1      33.096  20.078 -22.098  0.00  0.00    -0.239 NA
ATOM      9  C   UNL d   1      33.125  19.378 -22.529  0.00  0.00     0.088 A 
ATOM     10  C   UNL d   1      33.093  18.591 -22.306  0.00  0.00     0.020 A 
ATOM     11  C   UNL d   1      33.199  19.571 -23.328  0.00  0.00     0.049 A 
ATOM     12  C   UNL d   1      33.135  17.998 -22.868  0.00  0.00     0.002 A 
ATOM     13  C   UNL d   1      33.209  18.191 -23.667  0.00  0.00     0.001 A 
ATOM     14  C   UNL d   1      33.241  18.986 -23.892  0.00  0.00     0.008 A 
ATOM     15  S   UNL d   1      33.216  20.392 -23.387  0.00  0.00    -0.066 SA
ENDBRANCH   2   7
BRANCH   1  16
ATOM     16  S   UNL d   1      32.939  22.764 -20.664  0.00  0.00     0.271 S 
ATOM     17  O   UNL d   1      33.213  22.081 -20.358  0.00  0.00    -0.200 OA
ATOM     18  O   UNL d   1      32.615  23.571 -21.061  0.00  0.00    -0.200 OA
BRANCH  16  19
ATOM     19  N   UNL d   1      32.887  22.874 -19.853  0.00  0.00    -0.229 N 
ATOM     20  C   UNL d   1      33.050  22.310 -19.265  0.00  0.00     0.092 A 
ATOM     21  C   UNL d   1      32.925  22.663 -18.528  0.00  0.00     0.021 A 
ATOM     22  C   UNL d   1      32.686  23.438 -18.648  0.00  0.00     0.021 A 
ATOM     23  C   UNL d   1      32.663  23.570 -19.464  0.00  0.00     0.092 A 
ENDBRANCH  16  19
ENDBRANCH   1  16
TORSDOF 3
ENDMDL
