MODEL 1
REMARK VINA RESULT:      -5.8      0.000      0.000
REMARK  8 active torsions:
REMARK  status: ('A' for Active; 'I' for Inactive)
REMARK       I    between atoms: C_2  and  N_1 
REMARK    1  A    between atoms: C_3  and  N_1 
REMARK    2  A    between atoms: C_4  and  C_2 
REMARK    3  A    between atoms: N_12  and  C_3 
REMARK    4  A    between atoms: O_19  and  C_5 
REMARK    5  A    between atoms: O_20  and  C_6 
REMARK    6  A    between atoms: O_21  and  C_7 
REMARK    7  A    between atoms: C_10  and  C_18 
REMARK    8  A    between atoms: C_18  and  N_12 
ROOT
ATOM      1  C   UNL d   1     -48.313  13.534  22.840  0.00  0.00     0.062 A 
ATOM      2  C   UNL d   1     -49.937  13.379  22.540  0.00  0.00     0.138 A 
ATOM      3  C   UNL d   1     -49.567  14.120  22.454  0.00  0.00     0.118 A 
ATOM      4  C   UNL d   1     -49.480  12.731  22.776  0.00  0.00     0.118 A 
ATOM      5  C   UNL d   1     -48.678  12.806  22.924  0.00  0.00     0.031 A 
ATOM      6  C   UNL d   1     -48.751  14.193  22.605  0.00  0.00     0.031 A 
ENDROOT
BRANCH   1   7
ATOM      7  C   UNL d   1     -47.491  13.606  22.993  0.00  0.00     0.281 C 
ATOM      8  N   UNL d   1     -46.988  12.968  22.812  0.00  0.00    -0.179 NA
ATOM      9  O   UNL d   1     -47.180  14.288  23.314  0.00  0.00    -0.265 OA
BRANCH   8  10
ATOM     10  C   UNL d   1     -46.175  13.039  22.964  0.00  0.00     0.224 C 
ATOM     11  S   UNL d   1     -45.731  13.721  22.827  0.00  0.00    -0.037 SA
BRANCH  10  12
ATOM     12  N   UNL d   1     -45.816  12.376  23.269  0.00  0.00    -0.214 NA
BRANCH  12  13
ATOM     13  C   UNL d   1     -45.180  12.032  22.873  0.00  0.00     0.126 C 
BRANCH  13  14
ATOM     14  C   UNL d   1     -44.853  11.326  23.134  0.00  0.00     0.119 A 
ATOM     15  O   UNL d   1     -45.232  10.708  23.564  0.00  0.00    -0.304 OA
ATOM     16  C   UNL d   1     -44.675  10.117  23.696  0.00  0.00     0.123 A 
ATOM     17  C   UNL d   1     -43.968  10.344  23.366  0.00  0.00     0.029 A 
ATOM     18  C   UNL d   1     -44.069  11.101  23.011  0.00  0.00     0.028 A 
ENDBRANCH  13  14
ENDBRANCH  12  13
ENDBRANCH  10  12
ENDBRANCH   8  10
ENDBRANCH   1   7
BRANCH   4  19
ATOM     19  O   UNL d   1     -49.857  11.987  22.861  0.00  0.00    -0.326 OA
ATOM     20  C   UNL d   1     -49.655  11.503  23.517  0.00  0.00     0.181 C 
ENDBRANCH   4  19
BRANCH   3  21
ATOM     21  O   UNL d   1     -50.019  14.790  22.214  0.00  0.00    -0.326 OA
ATOM     22  C   UNL d   1     -50.044  15.470  22.670  0.00  0.00     0.181 C 
ENDBRANCH   3  21
BRANCH   2  23
ATOM     23  O   UNL d   1     -50.757  13.292  22.390  0.00  0.00    -0.324 OA
ATOM     24  C   UNL d   1     -51.040  13.127  21.628  0.00  0.00     0.182 C 
ENDBRANCH   2  23
TORSDOF 8
ENDMDL
MODEL 2
REMARK VINA RESULT:      -5.5      0.489      1.650
REMARK  8 active torsions:
REMARK  status: ('A' for Active; 'I' for Inactive)
REMARK       I    between atoms: C_2  and  N_1 
REMARK    1  A    between atoms: C_3  and  N_1 
REMARK    2  A    between atoms: C_4  and  C_2 
REMARK    3  A    between atoms: N_12  and  C_3 
REMARK    4  A    between atoms: O_19  and  C_5 
REMARK    5  A    between atoms: O_20  and  C_6 
REMARK    6  A    between atoms: O_21  and  C_7 
REMARK    7  A    between atoms: C_10  and  C_18 
REMARK    8  A    between atoms: C_18  and  N_12 
ROOT
ATOM      1  C   UNL d   1     -48.194  13.396  22.949  0.00  0.00     0.062 A 
ATOM      2  C   UNL d   1     -49.848  13.272  22.899  0.00  0.00     0.138 A 
ATOM      3  C   UNL d   1     -49.400  12.702  23.308  0.00  0.00     0.118 A 
ATOM      4  C   UNL d   1     -49.452  13.894  22.523  0.00  0.00     0.118 A 
ATOM      5  C   UNL d   1     -48.636  13.956  22.547  0.00  0.00     0.031 A 
ATOM      6  C   UNL d   1     -48.571  12.768  23.331  0.00  0.00     0.031 A 
ENDROOT
BRANCH   1   7
ATOM      7  C   UNL d   1     -47.359  13.464  22.971  0.00  0.00     0.281 C 
ATOM      8  N   UNL d   1     -46.895  12.775  22.914  0.00  0.00    -0.179 NA
ATOM      9  O   UNL d   1     -46.997  14.191  23.047  0.00  0.00    -0.265 OA
BRANCH   8  10
ATOM     10  C   UNL d   1     -46.067  12.844  22.935  0.00  0.00     0.224 C 
ATOM     11  S   UNL d   1     -45.641  13.481  22.630  0.00  0.00    -0.037 SA
BRANCH  10  12
ATOM     12  N   UNL d   1     -45.674  12.225  23.288  0.00  0.00    -0.214 NA
BRANCH  12  13
ATOM     13  C   UNL d   1     -45.109  11.800  22.864  0.00  0.00     0.126 C 
BRANCH  13  14
ATOM     14  C   UNL d   1     -44.750  11.137  23.188  0.00  0.00     0.119 A 
ATOM     15  O   UNL d   1     -43.938  11.036  23.394  0.00  0.00    -0.304 OA
ATOM     16  C   UNL d   1     -43.849  10.277  23.698  0.00  0.00     0.123 A 
ATOM     17  C   UNL d   1     -44.572   9.904  23.689  0.00  0.00     0.029 A 
ATOM     18  C   UNL d   1     -45.143  10.435  23.371  0.00  0.00     0.028 A 
ENDBRANCH  13  14
ENDBRANCH  12  13
ENDBRANCH  10  12
ENDBRANCH   8  10
ENDBRANCH   1   7
BRANCH   4  19
ATOM     19  O   UNL d   1     -49.907  14.466  22.112  0.00  0.00    -0.326 OA
ATOM     20  C   UNL d   1     -49.849  15.272  22.342  0.00  0.00     0.181 C 
ENDBRANCH   4  19
BRANCH   3  21
ATOM     21  O   UNL d   1     -49.789  12.062  23.697  0.00  0.00    -0.326 OA
ATOM     22  C   UNL d   1     -49.511  11.295  23.633  0.00  0.00     0.181 C 
ENDBRANCH   3  21
BRANCH   2  23
ATOM     23  O   UNL d   1     -50.684  13.217  22.869  0.00  0.00    -0.324 OA
ATOM     24  C   UNL d   1     -51.064  12.756  22.293  0.00  0.00     0.182 C 
ENDBRANCH   2  23
TORSDOF 8
ENDMDL
MODEL 3
REMARK VINA RESULT:      -5.4      1.369      2.214
REMARK  8 active torsions:
REMARK  status: ('A' for Active; 'I' for Inactive)
REMARK       I    between atoms: C_2  and  N_1 
REMARK    1  A    between atoms: C_3  and  N_1 
REMARK    2  A    between atoms: C_4  and  C_2 
REMARK    3  A    between atoms: N_12  and  C_3 
REMARK    4  A    between atoms: O_19  and  C_5 
REMARK    5  A    between atoms: O_20  and  C_6 
REMARK    6  A    between atoms: O_21  and  C_7 
REMARK    7  A    between atoms: C_10  and  C_18 
REMARK    8  A    between atoms: C_18  and  N_12 
ROOT
ATOM      1  C   UNL d   1     -48.554  13.266  23.088  0.00  0.00     0.062 A 
ATOM      2  C   UNL d   1     -49.803  14.358  23.090  0.00  0.00     0.138 A 
ATOM      3  C   UNL d   1     -49.945  13.563  23.291  0.00  0.00     0.118 A 
ATOM      4  C   UNL d   1     -49.032  14.587  22.892  0.00  0.00     0.118 A 
ATOM      5  C   UNL d   1     -48.415  14.049  22.890  0.00  0.00     0.031 A 
ATOM      6  C   UNL d   1     -49.315  13.019  23.288  0.00  0.00     0.031 A 
ENDROOT
BRANCH   1   7
ATOM      7  C   UNL d   1     -47.918  12.719  23.084  0.00  0.00     0.281 C 
ATOM      8  N   UNL d   1     -47.158  12.980  23.299  0.00  0.00    -0.179 NA
ATOM      9  O   UNL d   1     -48.034  11.940  22.875  0.00  0.00    -0.265 OA
BRANCH   8  10
ATOM     10  C   UNL d   1     -46.529  12.438  23.296  0.00  0.00     0.224 C 
ATOM     11  S   UNL d   1     -46.533  11.713  23.689  0.00  0.00    -0.037 SA
BRANCH  10  12
ATOM     12  N   UNL d   1     -45.876  12.662  22.867  0.00  0.00    -0.214 NA
BRANCH  12  13
ATOM     13  C   UNL d   1     -45.262  12.128  22.740  0.00  0.00     0.126 C 
BRANCH  13  14
ATOM     14  C   UNL d   1     -44.601  12.340  22.300  0.00  0.00     0.119 A 
ATOM     15  O   UNL d   1     -43.823  12.018  22.347  0.00  0.00    -0.304 OA
ATOM     16  C   UNL d   1     -43.356  12.411  21.796  0.00  0.00     0.123 A 
ATOM     17  C   UNL d   1     -43.813  12.963  21.410  0.00  0.00     0.029 A 
ATOM     18  C   UNL d   1     -44.595  12.925  21.720  0.00  0.00     0.028 A 
ENDBRANCH  13  14
ENDBRANCH  12  13
ENDBRANCH  10  12
ENDBRANCH   8  10
ENDBRANCH   1   7
BRANCH   4  19
ATOM     19  O   UNL d   1     -48.894  15.389  22.690  0.00  0.00    -0.326 OA
ATOM     20  C   UNL d   1     -48.357  15.563  22.068  0.00  0.00     0.181 C 
ENDBRANCH   4  19
BRANCH   3  21
ATOM     21  O   UNL d   1     -50.724  13.315  23.496  0.00  0.00    -0.326 OA
ATOM     22  C   UNL d   1     -51.015  12.589  23.254  0.00  0.00     0.181 C 
ENDBRANCH   3  21
BRANCH   2  23
ATOM     23  O   UNL d   1     -50.428  14.917  23.089  0.00  0.00    -0.324 OA
ATOM     24  C   UNL d   1     -50.507  15.476  23.698  0.00  0.00     0.182 C 
ENDBRANCH   2  23
TORSDOF 8
ENDMDL
MODEL 4
REMARK VINA RESULT:      -5.3      1.341      1.747
REMARK  8 active torsions:
REMARK  status: ('A' for Active; 'I' for Inactive)
REMARK       I    between atoms: C_2  and  N_1 
REMARK    1  A    between atoms: C_3  and  N_1 
REMARK    2  A    between atoms: C_4  and  C_2 
REMARK    3  A    between atoms: N_12  and  C_3 
REMARK    4  A    between atoms: O_19  and  C_5 
REMARK    5  A    between atoms: O_20  and  C_6 
REMARK    6  A    between atoms: O_21  and  C_7 
REMARK    7  A    between atoms: C_10  and  C_18 
REMARK    8  A    between atoms: C_18  and  N_12 
ROOT
ATOM      1  C   UNL d   1     -48.479  13.196  22.902  0.00  0.00     0.062 A 
ATOM      2  C   UNL d   1     -49.730  14.284  22.977  0.00  0.00     0.138 A 
ATOM      3  C   UNL d   1     -48.975  14.534  22.730  0.00  0.00     0.118 A 
ATOM      4  C   UNL d   1     -49.838  13.489  23.181  0.00  0.00     0.118 A 
ATOM      5  C   UNL d   1     -49.222  12.952  23.145  0.00  0.00     0.031 A 
ATOM      6  C   UNL d   1     -48.350  13.985  22.695  0.00  0.00     0.031 A 
ENDROOT
BRANCH   1   7
ATOM      7  C   UNL d   1     -47.850  12.642  22.867  0.00  0.00     0.281 C 
ATOM      8  N   UNL d   1     -47.152  12.793  23.293  0.00  0.00    -0.179 NA
ATOM      9  O   UNL d   1     -47.915  11.961  22.423  0.00  0.00    -0.265 OA
BRANCH   8  10
ATOM     10  C   UNL d   1     -46.530  12.244  23.257  0.00  0.00     0.224 C 
ATOM     11  S   UNL d   1     -46.504  11.538  23.683  0.00  0.00    -0.037 SA
BRANCH  10  12
ATOM     12  N   UNL d   1     -45.917  12.441  22.760  0.00  0.00    -0.214 NA
BRANCH  12  13
ATOM     13  C   UNL d   1     -45.148  12.209  22.942  0.00  0.00     0.126 C 
BRANCH  13  14
ATOM     14  C   UNL d   1     -44.531  12.345  22.418  0.00  0.00     0.119 A 
ATOM     15  O   UNL d   1     -43.824  11.896  22.323  0.00  0.00    -0.304 OA
ATOM     16  C   UNL d   1     -43.379  12.252  21.729  0.00  0.00     0.123 A 
ATOM     17  C   UNL d   1     -43.781  12.902  21.454  0.00  0.00     0.029 A 
ATOM     18  C   UNL d   1     -44.505  12.969  21.879  0.00  0.00     0.028 A 
ENDBRANCH  13  14
ENDBRANCH  12  13
ENDBRANCH  10  12
ENDBRANCH   8  10
ENDBRANCH   1   7
BRANCH   4  19
ATOM     19  O   UNL d   1     -50.600  13.242  23.429  0.00  0.00    -0.326 OA
ATOM     20  C   UNL d   1     -50.948  12.572  23.060  0.00  0.00     0.181 C 
ENDBRANCH   4  19
BRANCH   3  21
ATOM     21  O   UNL d   1     -48.848  15.340  22.519  0.00  0.00    -0.326 OA
ATOM     22  C   UNL d   1     -48.394  15.542  21.870  0.00  0.00     0.181 C 
ENDBRANCH   3  21
BRANCH   2  23
ATOM     23  O   UNL d   1     -50.367  14.826  23.018  0.00  0.00    -0.324 OA
ATOM     24  C   UNL d   1     -50.501  15.283  23.698  0.00  0.00     0.182 C 
ENDBRANCH   2  23
TORSDOF 8
ENDMDL
MODEL 5
REMARK VINA RESULT:      -5.2      8.641      9.712
REMARK  8 active torsions:
REMARK  status: ('A' for Active; 'I' for Inactive)
REMARK       I    between atoms: C_2  and  N_1 
REMARK    1  A    between atoms: C_3  and  N_1 
REMARK    2  A    between atoms: C_4  and  C_2 
REMARK    3  A    between atoms: N_12  and  C_3 
REMARK    4  A    between atoms: O_19  and  C_5 
REMARK    5  A    between atoms: O_20  and  C_6 
REMARK    6  A    between atoms: O_21  and  C_7 
REMARK    7  A    between atoms: C_10  and  C_18 
REMARK    8  A    between atoms: C_18  and  N_12 
ROOT
ATOM      1  C   UNL d   1     -39.592  14.949  18.604  0.00  0.00     0.062 A 
ATOM      2  C   UNL d   1     -39.279  14.542  17.026  0.00  0.00     0.138 A 
ATOM      3  C   UNL d   1     -39.926  15.035  17.209  0.00  0.00     0.118 A 
ATOM      4  C   UNL d   1     -38.803  14.265  17.644  0.00  0.00     0.118 A 
ATOM      5  C   UNL d   1     -38.956  14.465  18.422  0.00  0.00     0.031 A 
ATOM      6  C   UNL d   1     -40.078  15.236  18.002  0.00  0.00     0.031 A 
ENDROOT
BRANCH   1   7
ATOM      7  C   UNL d   1     -39.744  15.151  19.403  0.00  0.00     0.281 C 
ATOM      8  N   UNL d   1     -39.959  14.551  19.939  0.00  0.00    -0.179 NA
ATOM      9  O   UNL d   1     -39.685  15.922  19.662  0.00  0.00    -0.265 OA
BRANCH   8  10
ATOM     10  C   UNL d   1     -40.109  14.751  20.731  0.00  0.00     0.224 C 
ATOM     11  S   UNL d   1     -40.809  15.094  21.002  0.00  0.00    -0.037 SA
BRANCH  10  12
ATOM     12  N   UNL d   1     -39.508  14.587  21.253  0.00  0.00    -0.214 NA
BRANCH  12  13
ATOM     13  C   UNL d   1     -39.630  14.049  21.866  0.00  0.00     0.126 C 
BRANCH  13  14
ATOM     14  C   UNL d   1     -39.027  13.864  22.391  0.00  0.00     0.119 A 
ATOM     15  O   UNL d   1     -38.742  14.327  23.036  0.00  0.00    -0.304 OA
ATOM     16  C   UNL d   1     -38.134  13.907  23.397  0.00  0.00     0.123 A 
ATOM     17  C   UNL d   1     -38.031  13.203  23.002  0.00  0.00     0.029 A 
ATOM     18  C   UNL d   1     -38.587  13.168  22.370  0.00  0.00     0.028 A 
ENDBRANCH  13  14
ENDBRANCH  12  13
ENDBRANCH  10  12
ENDBRANCH   8  10
ENDBRANCH   1   7
BRANCH   4  19
ATOM     19  O   UNL d   1     -38.154  13.769  17.454  0.00  0.00    -0.326 OA
ATOM     20  C   UNL d   1     -37.942  13.157  17.989  0.00  0.00     0.181 C 
ENDBRANCH   4  19
BRANCH   3  21
ATOM     21  O   UNL d   1     -40.420  15.325  16.591  0.00  0.00    -0.326 OA
ATOM     22  C   UNL d   1     -41.165  15.625  16.749  0.00  0.00     0.181 C 
ENDBRANCH   3  21
BRANCH   2  23
ATOM     23  O   UNL d   1     -39.115  14.332  16.231  0.00  0.00    -0.324 OA
ATOM     24  C   UNL d   1     -38.558  14.752  15.782  0.00  0.00     0.182 C 
ENDBRANCH   2  23
TORSDOF 8
ENDMDL
MODEL 6
REMARK VINA RESULT:      -4.3      6.801      8.913
REMARK  8 active torsions:
REMARK  status: ('A' for Active; 'I' for Inactive)
REMARK       I    between atoms: C_2  and  N_1 
REMARK    1  A    between atoms: C_3  and  N_1 
REMARK    2  A    between atoms: C_4  and  C_2 
REMARK    3  A    between atoms: N_12  and  C_3 
REMARK    4  A    between atoms: O_19  and  C_5 
REMARK    5  A    between atoms: O_20  and  C_6 
REMARK    6  A    between atoms: O_21  and  C_7 
REMARK    7  A    between atoms: C_10  and  C_18 
REMARK    8  A    between atoms: C_18  and  N_12 
ROOT
ATOM      1  C   UNL d   1     -40.074  14.665  18.669  0.00  0.00     0.062 A 
ATOM      2  C   UNL d   1     -39.578  14.484  17.097  0.00  0.00     0.138 A 
ATOM      3  C   UNL d   1     -40.188  15.019  17.282  0.00  0.00     0.118 A 
ATOM      4  C   UNL d   1     -39.230  14.050  17.710  0.00  0.00     0.118 A 
ATOM      5  C   UNL d   1     -39.474  14.138  18.486  0.00  0.00     0.031 A 
ATOM      6  C   UNL d   1     -40.434  15.106  18.072  0.00  0.00     0.031 A 
ENDROOT
BRANCH   1   7
ATOM      7  C   UNL d   1     -40.321  14.751  19.466  0.00  0.00     0.281 C 
ATOM      8  N   UNL d   1     -40.774  14.148  19.818  0.00  0.00    -0.179 NA
ATOM      9  O   UNL d   1     -40.123  15.414  19.899  0.00  0.00    -0.265 OA
BRANCH   8  10
ATOM     10  C   UNL d   1     -41.017  14.234  20.607  0.00  0.00     0.224 C 
ATOM     11  S   UNL d   1     -40.553  14.556  21.208  0.00  0.00    -0.037 SA
BRANCH  10  12
ATOM     12  N   UNL d   1     -41.771  13.975  20.771  0.00  0.00    -0.214 NA
BRANCH  12  13
ATOM     13  C   UNL d   1     -41.885  13.330  21.271  0.00  0.00     0.126 C 
BRANCH  13  14
ATOM     14  C   UNL d   1     -42.637  13.034  21.411  0.00  0.00     0.119 A 
ATOM     15  O   UNL d   1     -42.848  12.330  21.826  0.00  0.00    -0.304 OA
ATOM     16  C   UNL d   1     -43.668  12.271  21.819  0.00  0.00     0.123 A 
ATOM     17  C   UNL d   1     -43.974  12.909  21.419  0.00  0.00     0.029 A 
ATOM     18  C   UNL d   1     -43.336  13.393  21.159  0.00  0.00     0.028 A 
ENDBRANCH  13  14
ENDBRANCH  12  13
ENDBRANCH  10  12
ENDBRANCH   8  10
ENDBRANCH   1   7
BRANCH   4  19
ATOM     19  O   UNL d   1     -38.616  13.512  17.518  0.00  0.00    -0.326 OA
ATOM     20  C   UNL d   1     -38.341  12.984  18.111  0.00  0.00     0.181 C 
ENDBRANCH   4  19
BRANCH   3  21
ATOM     21  O   UNL d   1     -40.553  15.468  16.668  0.00  0.00    -0.326 OA
ATOM     22  C   UNL d   1     -41.293  15.802  16.769  0.00  0.00     0.181 C 
ENDBRANCH   3  21
BRANCH   2  23
ATOM     23  O   UNL d   1     -39.321  14.387  16.304  0.00  0.00    -0.324 OA
ATOM     24  C   UNL d   1     -38.679  14.818  16.005  0.00  0.00     0.182 C 
ENDBRANCH   2  23
TORSDOF 8
ENDMDL
MODEL 7
REMARK VINA RESULT:      -3.2      4.976      7.515
REMARK  8 active torsions:
REMARK  status: ('A' for Active; 'I' for Inactive)
REMARK       I    between atoms: C_2  and  N_1 
REMARK    1  A    between atoms: C_3  and  N_1 
REMARK    2  A    between atoms: C_4  and  C_2 
REMARK    3  A    between atoms: N_12  and  C_3 
REMARK    4  A    between atoms: O_19  and  C_5 
REMARK    5  A    between atoms: O_20  and  C_6 
REMARK    6  A    between atoms: O_21  and  C_7 
REMARK    7  A    between atoms: C_10  and  C_18 
REMARK    8  A    between atoms: C_18  and  N_12 
ROOT
ATOM      1  C   UNL d   1     -41.417  14.181  20.744  0.00  0.00     0.062 A 
ATOM      2  C   UNL d   1     -40.432  15.327  20.058  0.00  0.00     0.138 A 
ATOM      3  C   UNL d   1     -40.779  14.737  19.583  0.00  0.00     0.118 A 
ATOM      4  C   UNL d   1     -40.590  15.326  20.871  0.00  0.00     0.118 A 
ATOM      5  C   UNL d   1     -41.075  14.762  21.210  0.00  0.00     0.031 A 
ATOM      6  C   UNL d   1     -41.272  14.165  19.932  0.00  0.00     0.031 A 
ENDROOT
BRANCH   1   7
ATOM      7  C   UNL d   1     -41.914  13.605  21.097  0.00  0.00     0.281 C 
ATOM      8  N   UNL d   1     -42.738  13.721  21.090  0.00  0.00    -0.179 NA
ATOM      9  O   UNL d   1     -41.603  12.936  21.444  0.00  0.00    -0.265 OA
BRANCH   8  10
ATOM     10  C   UNL d   1     -43.230  13.150  21.440  0.00  0.00     0.224 C 
ATOM     11  S   UNL d   1     -43.088  12.338  21.424  0.00  0.00    -0.037 SA
BRANCH  10  12
ATOM     12  N   UNL d   1     -43.889  13.440  21.817  0.00  0.00    -0.214 NA
BRANCH  12  13
ATOM     13  C   UNL d   1     -44.607  13.041  21.756  0.00  0.00     0.126 C 
BRANCH  13  14
ATOM     14  C   UNL d   1     -45.269  13.300  22.167  0.00  0.00     0.119 A 
ATOM     15  O   UNL d   1     -45.510  14.094  22.314  0.00  0.00    -0.304 OA
ATOM     16  C   UNL d   1     -46.208  14.069  22.748  0.00  0.00     0.123 A 
ATOM     17  C   UNL d   1     -46.409  13.291  22.876  0.00  0.00     0.029 A 
ATOM     18  C   UNL d   1     -45.827  12.802  22.516  0.00  0.00     0.028 A 
ENDBRANCH  13  14
ENDBRANCH  12  13
ENDBRANCH  10  12
ENDBRANCH   8  10
ENDBRANCH   1   7
BRANCH   4  19
ATOM     19  O   UNL d   1     -40.239  15.922  21.345  0.00  0.00    -0.326 OA
ATOM     20  C   UNL d   1     -39.936  15.712  22.101  0.00  0.00     0.181 C 
ENDBRANCH   4  19
BRANCH   3  21
ATOM     21  O   UNL d   1     -40.628  14.725  18.754  0.00  0.00    -0.326 OA
ATOM     22  C   UNL d   1     -40.666  14.028  18.326  0.00  0.00     0.181 C 
ENDBRANCH   3  21
BRANCH   2  23
ATOM     23  O   UNL d   1     -39.934  15.910  19.720  0.00  0.00    -0.324 OA
ATOM     24  C   UNL d   1     -39.124  15.769  19.606  0.00  0.00     0.182 C 
ENDBRANCH   2  23
TORSDOF 8
ENDMDL
