MODEL 1
REMARK VINA RESULT:       3.2      0.000      0.000
REMARK  8 active torsions:
REMARK  status: ('A' for Active; 'I' for Inactive)
REMARK    1  A    between atoms: N_9  and  C_1 
REMARK    2  A    between atoms: C_12  and  C_2 
REMARK    3  A    between atoms: C_28  and  N_6 
REMARK    4  A    between atoms: C_10  and  C_12 
REMARK    5  A    between atoms: C_16  and  C_14 
REMARK    6  A    between atoms: C_20  and  C_16 
REMARK    7  A    between atoms: O_31  and  C_20 
REMARK    8  A    between atoms: C_34  and  C_28 
ROOT
ATOM      1  C   UNL d   1      58.872  -1.558  29.341  0.00  0.00     0.154 A 
ATOM      2  C   UNL d   1      58.512  -1.097  29.935  0.00  0.00     0.092 A 
ATOM      3  N   UNL d   1      59.622  -1.334  29.045  0.00  0.00    -0.210 NA
ATOM      4  N   UNL d   1      59.643  -0.204  29.929  0.00  0.00    -0.258 N 
ATOM      5  C   UNL d   1      60.010  -0.659  29.335  0.00  0.00     0.152 A 
ATOM      6  C   UNL d   1      58.897  -0.413  30.234  0.00  0.00     0.269 A 
ATOM      7  C   UNL d   1      60.743  -0.441  29.044  0.00  0.00     0.035 A 
ATOM      8  C   UNL d   1      60.030   0.471  30.220  0.00  0.00     0.084 A 
ATOM      9  O   UNL d   1      58.540   0.043  30.822  0.00  0.00    -0.266 OA
ATOM     10  C   UNL d   1      60.761   0.679  29.922  0.00  0.00     0.019 A 
ATOM     11  C   UNL d   1      61.118   0.223  29.335  0.00  0.00     0.005 A 
ATOM     12  C   UNL d   1      61.100  -0.897  28.457  0.00  0.00     0.003 C 
ENDROOT
BRANCH   1  13
ATOM     13  N   UNL d   1      58.493  -2.230  29.047  0.00  0.00    -0.284 N 
ATOM     14  C   UNL d   1      58.888  -2.954  29.055  0.00  0.00     0.129 A 
ATOM     15  C   UNL d   1      58.507  -3.622  28.761  0.00  0.00     0.296 A 
ATOM     16  O   UNL d   1      58.896  -4.350  28.765  0.00  0.00    -0.264 OA
ATOM     17  N   UNL d   1      57.739  -3.571  28.462  0.00  0.00    -0.204 NA
ATOM     18  C   UNL d   1      57.350  -2.844  28.458  0.00  0.00     0.121 A 
ATOM     19  C   UNL d   1      57.727  -2.168  28.752  0.00  0.00     0.102 A 
BRANCH  14  20
ATOM     20  C   UNL d   1      59.648  -3.005  29.350  0.00  0.00     0.091 C 
BRANCH  20  21
ATOM     21  C   UNL d   1      59.971  -3.740  29.542  0.00  0.00     0.298 C 
ATOM     22  O   UNL d   1      59.594  -4.223  30.102  0.00  0.00    -0.259 OA
BRANCH  21  23
ATOM     23  O   UNL d   1      60.664  -4.003  29.187  0.00  0.00    -0.296 OA
ATOM     24  C   UNL d   1      61.045  -4.680  29.466  0.00  0.00     0.185 C 
ENDBRANCH  21  23
ENDBRANCH  20  21
ENDBRANCH  14  20
ENDBRANCH   1  13
BRANCH   2  25
ATOM     25  C   UNL d   1      57.773  -1.311  30.232  0.00  0.00     0.019 C 
BRANCH  25  26
ATOM     26  C   UNL d   1      57.480  -0.947  30.912  0.00  0.00     0.088 A 
ATOM     27  C   UNL d   1      57.017  -1.310  31.487  0.00  0.00     0.272 A 
ATOM     28  N   UNL d   1      56.850  -0.742  32.068  0.00  0.00    -0.259 N 
ATOM     29  O   UNL d   1      56.761  -2.098  31.491  0.00  0.00    -0.266 OA
ATOM     30  C   UNL d   1      57.212  -0.035  31.845  0.00  0.00     0.153 A 
ATOM     31  S   UNL d   1      57.601  -0.168  31.128  0.00  0.00    -0.053 SA
ATOM     32  S   UNL d   1      57.187   0.668  32.262  0.00  0.00    -0.052 SA
BRANCH  28  33
ATOM     33  C   UNL d   1      56.398  -0.865  32.751  0.00  0.00     0.084 C 
BRANCH  33  34
ATOM     34  C   UNL d   1      55.580  -0.721  32.732  0.00  0.00     0.019 C 
ATOM     35  C   UNL d   1      55.160  -0.666  33.444  0.00  0.00     0.002 C 
ENDBRANCH  33  34
ENDBRANCH  28  33
ENDBRANCH  25  26
ENDBRANCH   2  25
TORSDOF 8
ENDMDL
