MODEL 1
REMARK VINA RESULT:      63.7      0.000      0.000
REMARK  5 active torsions:
REMARK  status: ('A' for Active; 'I' for Inactive)
REMARK    1  A    between atoms: N_9  and  C_2 
REMARK    2  A    between atoms: N_12  and  C_6 
REMARK    3  A    between atoms: C_13  and  N_11 
REMARK    4  A    between atoms: C_18  and  N_12 
REMARK    5  A    between atoms: O_28  and  C_23 
ROOT
ATOM      1  N   UNL d   1      13.673  13.741  -3.916  0.00  0.00    -0.041 NA
ATOM      2  C   UNL d   1      13.850  13.756  -3.157  0.00  0.00     0.738 A 
ATOM      3  C   UNL d   1      13.385  13.091  -4.235  0.00  0.00     0.187 A 
ATOM      4  N   UNL d   1      13.739  13.117  -2.715  0.00  0.00    -0.041 NA
ATOM      5  C   UNL d   1      13.272  12.450  -3.796  0.00  0.00     0.094 A 
ATOM      6  C   UNL d   1      13.450  12.461  -3.029  0.00  0.00     0.185 A 
ATOM      7  N   UNL d   1      12.915  12.418  -5.324  0.00  0.00    -0.162 NA
ATOM      8  N   UNL d   1      13.208  13.080  -5.001  0.00  0.00    -0.208 N 
ATOM      9  C   UNL d   1      12.804  11.779  -4.882  0.00  0.00     0.127 A 
ATOM     10  C   UNL d   1      13.318  13.716  -5.441  0.00  0.00     0.123 C 
ENDROOT
BRANCH   2  11
ATOM     11  N   UNL d   1      14.155  14.443  -2.816  0.00  0.00    -0.134 N 
ATOM     12  C   UNL d   1      14.532  14.409  -2.083  0.00  0.00     0.117 A 
ATOM     13  C   UNL d   1      14.835  15.102  -1.747  0.00  0.00     0.100 A 
ATOM     14  N   UNL d   1      14.761  15.826  -2.143  0.00  0.00    -0.301 N 
ATOM     15  C   UNL d   1      14.385  15.856  -2.875  0.00  0.00     0.100 A 
ATOM     16  C   UNL d   1      14.081  15.167  -3.212  0.00  0.00     0.117 A 
BRANCH  14  17
ATOM     17  C   UNL d   1      15.066  16.517  -1.803  0.00  0.00     0.064 A 
ATOM     18  C   UNL d   1      14.942  17.245  -2.185  0.00  0.00     0.020 A 
ATOM     19  C   UNL d   1      15.246  17.936  -1.845  0.00  0.00     0.031 A 
ATOM     20  C   UNL d   1      15.673  17.896  -1.127  0.00  0.00     0.140 A 
ATOM     21  C   UNL d   1      15.785  17.153  -0.763  0.00  0.00     0.031 A 
ATOM     22  F   UNL d   1      15.977  18.583  -0.788  0.00  0.00    -0.204 F 
ATOM     23  C   UNL d   1      15.481  16.470  -1.103  0.00  0.00     0.020 A 
ENDBRANCH  14  17
ENDBRANCH   2  11
BRANCH   6  24
ATOM     24  N   UNL d   1      13.337  11.800  -2.563  0.00  0.00    -0.226 NA
BRANCH  24  25
ATOM     25  C   UNL d   1      13.579  11.800  -1.782  0.00  0.00     0.085 A 
ATOM     26  C   UNL d   1      14.384  11.792  -1.586  0.00  0.00     0.043 A 
ATOM     27  C   UNL d   1      14.628  11.792  -0.803  0.00  0.00     0.096 A 
ATOM     28  C   UNL d   1      14.060  11.801  -0.200  0.00  0.00     0.024 A 
ATOM     29  C   UNL d   1      13.265  11.809  -0.387  0.00  0.00     0.004 A 
ATOM     30  C   UNL d   1      13.022  11.809  -1.180  0.00  0.00     0.019 A 
BRANCH  27  31
ATOM     31  O   UNL d   1      15.427  11.783  -0.612  0.00  0.00    -0.328 OA
ATOM     32  C   UNL d   1      15.894  12.222  -0.092  0.00  0.00     0.181 C 
ENDBRANCH  27  31
ENDBRANCH  24  25
ENDBRANCH   6  24
TORSDOF 5
ENDMDL
