MODEL 1
REMARK VINA RESULT:      42.4      0.000      0.000
REMARK  7 active torsions:
REMARK  status: ('A' for Active; 'I' for Inactive)
REMARK    1  A    between atoms: C_4  and  C_1 
REMARK    2  A    between atoms: N_5  and  C_3 
REMARK    3  A    between atoms: C_9  and  C_4 
REMARK       I    between atoms: C_7  and  N_5 
REMARK    4  A    between atoms: C_10  and  C_7 
REMARK       I    between atoms: N_19  and  C_9 
REMARK    5  A    between atoms: C_21  and  N_19 
REMARK    6  A    between atoms: C_24  and  C_21 
REMARK    7  A    between atoms: C_23  and  C_24 
ROOT
ATOM      1  C   UNL d   1      45.660 -16.708  43.713  0.00  0.00     0.144 C 
ATOM      2  C   UNL d   1      45.932 -15.998  43.398  0.00  0.00     0.107 C 
ATOM      3  N   UNL d   1      46.206 -15.295  43.081  0.00  0.00    -0.191 NA
ENDROOT
BRANCH   1   4
ATOM      4  C   UNL d   1      45.879 -17.433  43.370  0.00  0.00     0.097 A 
ATOM      5  N   UNL d   1      45.911 -17.658  42.576  0.00  0.00    -0.226 NA
ATOM      6  C   UNL d   1      46.165 -18.443  42.540  0.00  0.00     0.166 A 
ATOM      7  C   UNL d   1      46.291 -18.706  43.310  0.00  0.00     0.037 A 
ATOM      8  C   UNL d   1      46.116 -18.086  43.831  0.00  0.00     0.021 A 
ATOM      9  C   UNL d   1      46.543 -19.430  43.612  0.00  0.00     0.003 A 
ATOM     10  C   UNL d   1      46.192 -18.192  44.640  0.00  0.00     0.002 A 
ATOM     11  C   UNL d   1      46.444 -18.915  44.943  0.00  0.00     0.000 A 
ATOM     12  C   UNL d   1      46.619 -19.535  44.422  0.00  0.00     0.000 A 
BRANCH   6  13
ATOM     13  N   UNL d   1      46.284 -18.912  41.884  0.00  0.00    -0.189 NA
ATOM     14  C   UNL d   1      46.166 -18.727  41.080  0.00  0.00     0.286 C 
ATOM     15  O   UNL d   1      45.892 -17.975  40.888  0.00  0.00    -0.265 OA
BRANCH  14  16
ATOM     16  C   UNL d   1      46.315 -19.273  40.482  0.00  0.00     0.087 A 
ATOM     17  S   UNL d   1      46.162 -19.078  39.695  0.00  0.00    -0.082 SA
ATOM     18  C   UNL d   1      46.366 -19.731  39.231  0.00  0.00     0.036 A 
ATOM     19  C   UNL d   1      46.644 -20.327  39.733  0.00  0.00     0.008 A 
ATOM     20  C   UNL d   1      46.613 -20.043  40.504  0.00  0.00     0.012 A 
ENDBRANCH  14  16
ENDBRANCH   6  13
ENDBRANCH   1   4
BRANCH   1  21
ATOM     21  C   UNL d   1      45.164 -16.702  44.376  0.00  0.00     0.290 C 
ATOM     22  O   UNL d   1      44.831 -17.403  44.648  0.00  0.00    -0.264 OA
ATOM     23  N   UNL d   1      45.003 -15.998  44.763  0.00  0.00    -0.206 NA
BRANCH  23  24
ATOM     24  C   UNL d   1      45.336 -15.297  44.490  0.00  0.00     0.102 C 
BRANCH  24  25
ATOM     25  C   UNL d   1      45.654 -14.626  44.848  0.00  0.00     0.021 C 
BRANCH  25  26
ATOM     26  C   UNL d   1      45.528 -13.881  44.521  0.00  0.00     0.002 A 
ATOM     27  C   UNL d   1      46.020 -13.250  44.725  0.00  0.00     0.000 A 
ATOM     28  C   UNL d   1      45.889 -12.506  44.393  0.00  0.00     0.000 A 
ATOM     29  C   UNL d   1      45.270 -12.383  43.858  0.00  0.00     0.000 A 
ATOM     30  C   UNL d   1      44.777 -13.028  43.658  0.00  0.00     0.000 A 
ATOM     31  C   UNL d   1      44.904 -13.768  43.985  0.00  0.00     0.000 A 
ENDBRANCH  25  26
ENDBRANCH  24  25
ENDBRANCH  23  24
ENDBRANCH   1  21
TORSDOF 7
ENDMDL
