MODEL 1
REMARK VINA RESULT:      -6.9      0.000      0.000
REMARK  4 active torsions:
REMARK  status: ('A' for Active; 'I' for Inactive)
REMARK    1  A    between atoms: C_7  and  N_2 
REMARK    2  A    between atoms: C_15  and  C_7 
REMARK    3  A    between atoms: C_8  and  O_14 
REMARK    4  A    between atoms: O_14  and  C_15 
ROOT
ATOM      1  C   UNL d   1     -49.683  12.171  22.670  0.00  0.00     0.296 A 
ATOM      2  N   UNL d   1     -49.358  12.891  22.898  0.00  0.00    -0.266 N 
ATOM      3  S   UNL d   1     -50.382  12.334  22.237  0.00  0.00    -0.025 SA
ATOM      4  C   UNL d   1     -49.846  13.498  22.612  0.00  0.00     0.074 A 
ATOM      5  C   UNL d   1     -50.474  13.156  22.207  0.00  0.00     0.050 A 
ATOM      6  O   UNL d   1     -49.383  11.425  22.834  0.00  0.00    -0.259 OA
ATOM      7  C   UNL d   1     -49.788  14.320  22.675  0.00  0.00     0.018 A 
ATOM      8  C   UNL d   1     -51.058  13.630  21.857  0.00  0.00     0.008 A 
ATOM      9  C   UNL d   1     -50.369  14.796  22.327  0.00  0.00     0.002 A 
ATOM     10  C   UNL d   1     -50.996  14.454  21.922  0.00  0.00     0.001 A 
ENDROOT
BRANCH   2  11
ATOM     11  C   UNL d   1     -48.666  12.994  23.335  0.00  0.00     0.110 C 
BRANCH  11  12
ATOM     12  C   UNL d   1     -47.931  12.920  22.973  0.00  0.00     0.142 C 
BRANCH  12  13
ATOM     13  O   UNL d   1     -47.233  13.081  23.388  0.00  0.00    -0.304 OA
BRANCH  13  14
ATOM     14  C   UNL d   1     -46.503  13.043  23.007  0.00  0.00     0.100 A 
ATOM     15  C   UNL d   1     -46.065  12.343  23.024  0.00  0.00     0.025 A 
ATOM     16  C   UNL d   1     -45.339  12.306  22.644  0.00  0.00     0.002 A 
ATOM     17  C   UNL d   1     -45.051  12.969  22.247  0.00  0.00     0.000 A 
ATOM     18  C   UNL d   1     -45.493  13.669  22.231  0.00  0.00     0.002 A 
ATOM     19  C   UNL d   1     -44.316  12.929  21.863  0.00  0.00     0.000 C 
ATOM     20  C   UNL d   1     -46.219  13.697  22.615  0.00  0.00     0.025 A 
ENDBRANCH  13  14
ENDBRANCH  12  13
ENDBRANCH  11  12
ENDBRANCH   2  11
TORSDOF 4
ENDMDL
MODEL 2
REMARK VINA RESULT:      -6.0      8.838      9.841
REMARK  4 active torsions:
REMARK  status: ('A' for Active; 'I' for Inactive)
REMARK    1  A    between atoms: C_7  and  N_2 
REMARK    2  A    between atoms: C_15  and  C_7 
REMARK    3  A    between atoms: C_8  and  O_14 
REMARK    4  A    between atoms: O_14  and  C_15 
ROOT
ATOM      1  C   UNL d   1     -40.550  15.282  17.652  0.00  0.00     0.296 A 
ATOM      2  N   UNL d   1     -40.285  14.641  18.093  0.00  0.00    -0.266 N 
ATOM      3  S   UNL d   1     -40.119  15.291  16.933  0.00  0.00    -0.025 SA
ATOM      4  C   UNL d   1     -39.696  14.253  17.657  0.00  0.00     0.074 A 
ATOM      5  C   UNL d   1     -39.594  14.651  16.947  0.00  0.00     0.050 A 
ATOM      6  O   UNL d   1     -41.131  15.820  17.870  0.00  0.00    -0.259 OA
ATOM      7  C   UNL d   1     -39.242  13.583  17.830  0.00  0.00     0.018 A 
ATOM      8  C   UNL d   1     -39.036  14.389  16.392  0.00  0.00     0.008 A 
ATOM      9  C   UNL d   1     -38.685  13.318  17.278  0.00  0.00     0.002 A 
ATOM     10  C   UNL d   1     -38.583  13.717  16.568  0.00  0.00     0.001 A 
ENDROOT
BRANCH   2  11
ATOM     11  C   UNL d   1     -40.558  14.421  18.840  0.00  0.00     0.110 C 
BRANCH  11  12
ATOM     12  C   UNL d   1     -40.292  14.815  19.512  0.00  0.00     0.142 C 
BRANCH  12  13
ATOM     13  O   UNL d   1     -40.515  14.564  20.269  0.00  0.00    -0.304 OA
BRANCH  13  14
ATOM     14  C   UNL d   1     -40.120  14.848  20.935  0.00  0.00     0.100 A 
ATOM     15  C   UNL d   1     -40.195  15.641  21.151  0.00  0.00     0.025 A 
ATOM     16  C   UNL d   1     -39.802  15.922  21.813  0.00  0.00     0.002 A 
ATOM     17  C   UNL d   1     -39.333  15.411  22.260  0.00  0.00     0.000 A 
ATOM     18  C   UNL d   1     -39.260  14.616  22.039  0.00  0.00     0.002 A 
ATOM     19  C   UNL d   1     -38.936  15.698  22.929  0.00  0.00     0.000 C 
ATOM     20  C   UNL d   1     -39.657  14.342  21.374  0.00  0.00     0.025 A 
ENDBRANCH  13  14
ENDBRANCH  12  13
ENDBRANCH  11  12
ENDBRANCH   2  11
TORSDOF 4
ENDMDL
MODEL 3
REMARK VINA RESULT:      -5.0      9.174      9.892
REMARK  4 active torsions:
REMARK  status: ('A' for Active; 'I' for Inactive)
REMARK    1  A    between atoms: C_7  and  N_2 
REMARK    2  A    between atoms: C_15  and  C_7 
REMARK    3  A    between atoms: C_8  and  O_14 
REMARK    4  A    between atoms: O_14  and  C_15 
ROOT
ATOM      1  C   UNL d   1     -38.785  14.867  17.878  0.00  0.00     0.296 A 
ATOM      2  N   UNL d   1     -39.283  15.320  18.349  0.00  0.00    -0.266 N 
ATOM      3  S   UNL d   1     -39.181  14.724  17.153  0.00  0.00    -0.025 SA
ATOM      4  C   UNL d   1     -39.983  15.459  17.927  0.00  0.00     0.074 A 
ATOM      5  C   UNL d   1     -39.921  15.094  17.195  0.00  0.00     0.050 A 
ATOM      6  O   UNL d   1     -38.033  14.601  18.074  0.00  0.00    -0.259 OA
ATOM      7  C   UNL d   1     -40.669  15.876  18.129  0.00  0.00     0.018 A 
ATOM      8  C   UNL d   1     -40.543  15.138  16.647  0.00  0.00     0.008 A 
ATOM      9  C   UNL d   1     -41.290  15.922  17.585  0.00  0.00     0.002 A 
ATOM     10  C   UNL d   1     -41.228  15.557  16.853  0.00  0.00     0.001 A 
ENDROOT
BRANCH   2  11
ATOM     11  C   UNL d   1     -39.117  15.590  19.111  0.00  0.00     0.110 C 
BRANCH  11  12
ATOM     12  C   UNL d   1     -39.126  15.069  19.748  0.00  0.00     0.142 C 
BRANCH  12  13
ATOM     13  O   UNL d   1     -39.164  15.347  20.526  0.00  0.00    -0.304 OA
BRANCH  13  14
ATOM     14  C   UNL d   1     -39.048  14.832  21.160  0.00  0.00     0.100 A 
ATOM     15  C   UNL d   1     -39.617  14.261  21.336  0.00  0.00     0.025 A 
ATOM     16  C   UNL d   1     -39.501  13.749  21.966  0.00  0.00     0.002 A 
ATOM     17  C   UNL d   1     -38.814  13.808  22.420  0.00  0.00     0.000 A 
ATOM     18  C   UNL d   1     -38.245  14.382  22.240  0.00  0.00     0.002 A 
ATOM     19  C   UNL d   1     -38.699  13.289  23.056  0.00  0.00     0.000 C 
ATOM     20  C   UNL d   1     -38.370  14.891  21.607  0.00  0.00     0.025 A 
ENDBRANCH  13  14
ENDBRANCH  12  13
ENDBRANCH  11  12
ENDBRANCH   2  11
TORSDOF 4
ENDMDL
MODEL 4
REMARK VINA RESULT:      -4.7      8.694     10.503
REMARK  4 active torsions:
REMARK  status: ('A' for Active; 'I' for Inactive)
REMARK    1  A    between atoms: C_7  and  N_2 
REMARK    2  A    between atoms: C_15  and  C_7 
REMARK    3  A    between atoms: C_8  and  O_14 
REMARK    4  A    between atoms: O_14  and  C_15 
ROOT
ATOM      1  C   UNL d   1     -40.295  15.322  19.621  0.00  0.00     0.296 A 
ATOM      2  N   UNL d   1     -39.492  15.151  19.670  0.00  0.00    -0.266 N 
ATOM      3  S   UNL d   1     -40.667  14.985  20.292  0.00  0.00    -0.025 SA
ATOM      4  C   UNL d   1     -39.363  14.713  20.362  0.00  0.00     0.074 A 
ATOM      5  C   UNL d   1     -40.083  14.611  20.743  0.00  0.00     0.050 A 
ATOM      6  O   UNL d   1     -40.670  15.744  19.025  0.00  0.00    -0.259 OA
ATOM      7  C   UNL d   1     -38.670  14.397  20.686  0.00  0.00     0.018 A 
ATOM      8  C   UNL d   1     -40.127  14.191  21.457  0.00  0.00     0.008 A 
ATOM      9  C   UNL d   1     -38.711  13.977  21.398  0.00  0.00     0.002 A 
ATOM     10  C   UNL d   1     -39.431  13.876  21.779  0.00  0.00     0.001 A 
ENDROOT
BRANCH   2  11
ATOM     11  C   UNL d   1     -38.915  15.376  19.126  0.00  0.00     0.110 C 
BRANCH  11  12
ATOM     12  C   UNL d   1     -38.852  14.989  18.402  0.00  0.00     0.142 C 
BRANCH  12  13
ATOM     13  O   UNL d   1     -38.215  15.134  17.894  0.00  0.00    -0.304 OA
BRANCH  13  14
ATOM     14  C   UNL d   1     -38.167  14.751  17.165  0.00  0.00     0.100 A 
ATOM     15  C   UNL d   1     -37.987  13.946  17.135  0.00  0.00     0.025 A 
ATOM     16  C   UNL d   1     -37.940  13.567  16.409  0.00  0.00     0.002 A 
ATOM     17  C   UNL d   1     -38.072  13.991  15.714  0.00  0.00     0.000 A 
ATOM     18  C   UNL d   1     -38.253  14.799  15.750  0.00  0.00     0.002 A 
ATOM     19  C   UNL d   1     -38.024  13.604  14.982  0.00  0.00     0.000 C 
ATOM     20  C   UNL d   1     -38.298  15.172  16.481  0.00  0.00     0.025 A 
ENDBRANCH  13  14
ENDBRANCH  12  13
ENDBRANCH  11  12
ENDBRANCH   2  11
TORSDOF 4
ENDMDL
MODEL 5
REMARK VINA RESULT:      -4.6      9.483     10.279
REMARK  4 active torsions:
REMARK  status: ('A' for Active; 'I' for Inactive)
REMARK    1  A    between atoms: C_7  and  N_2 
REMARK    2  A    between atoms: C_15  and  C_7 
REMARK    3  A    between atoms: C_8  and  O_14 
REMARK    4  A    between atoms: O_14  and  C_15 
ROOT
ATOM      1  C   UNL d   1     -38.318  13.792  20.375  0.00  0.00     0.296 A 
ATOM      2  N   UNL d   1     -38.481  14.597  20.412  0.00  0.00    -0.266 N 
ATOM      3  S   UNL d   1     -38.400  13.480  21.148  0.00  0.00    -0.025 SA
ATOM      4  C   UNL d   1     -38.663  14.788  21.198  0.00  0.00     0.074 A 
ATOM      5  C   UNL d   1     -38.614  14.103  21.649  0.00  0.00     0.050 A 
ATOM      6  O   UNL d   1     -38.112  13.365  19.704  0.00  0.00    -0.259 OA
ATOM      7  C   UNL d   1     -38.868  15.507  21.552  0.00  0.00     0.018 A 
ATOM      8  C   UNL d   1     -38.768  14.123  22.464  0.00  0.00     0.008 A 
ATOM      9  C   UNL d   1     -39.022  15.530  22.364  0.00  0.00     0.002 A 
ATOM     10  C   UNL d   1     -38.973  14.846  22.815  0.00  0.00     0.001 A 
ENDROOT
BRANCH   2  11
ATOM     11  C   UNL d   1     -38.466  15.124  19.778  0.00  0.00     0.110 C 
BRANCH  11  12
ATOM     12  C   UNL d   1     -39.082  15.136  19.232  0.00  0.00     0.142 C 
BRANCH  12  13
ATOM     13  O   UNL d   1     -39.113  15.709  18.636  0.00  0.00    -0.304 OA
BRANCH  13  14
ATOM     14  C   UNL d   1     -39.736  15.716  18.096  0.00  0.00     0.100 A 
ATOM     15  C   UNL d   1     -40.496  15.915  18.348  0.00  0.00     0.025 A 
ATOM     16  C   UNL d   1     -41.115  15.922  17.810  0.00  0.00     0.002 A 
ATOM     17  C   UNL d   1     -40.975  15.728  17.020  0.00  0.00     0.000 A 
ATOM     18  C   UNL d   1     -40.210  15.529  16.772  0.00  0.00     0.002 A 
ATOM     19  C   UNL d   1     -41.603  15.735  16.479  0.00  0.00     0.000 C 
ATOM     20  C   UNL d   1     -39.595  15.525  17.317  0.00  0.00     0.025 A 
ENDBRANCH  13  14
ENDBRANCH  12  13
ENDBRANCH  11  12
ENDBRANCH   2  11
TORSDOF 4
ENDMDL
MODEL 6
REMARK VINA RESULT:      -4.5      8.791     11.204
REMARK  4 active torsions:
REMARK  status: ('A' for Active; 'I' for Inactive)
REMARK    1  A    between atoms: C_7  and  N_2 
REMARK    2  A    between atoms: C_15  and  C_7 
REMARK    3  A    between atoms: C_8  and  O_14 
REMARK    4  A    between atoms: O_14  and  C_15 
ROOT
ATOM      1  C   UNL d   1     -37.943  13.071  17.579  0.00  0.00     0.296 A 
ATOM      2  N   UNL d   1     -37.944  13.888  17.492  0.00  0.00    -0.266 N 
ATOM      3  S   UNL d   1     -37.940  12.734  16.812  0.00  0.00    -0.025 SA
ATOM      4  C   UNL d   1     -37.943  14.062  16.681  0.00  0.00     0.074 A 
ATOM      5  C   UNL d   1     -37.941  13.354  16.264  0.00  0.00     0.050 A 
ATOM      6  O   UNL d   1     -37.943  12.655  18.287  0.00  0.00    -0.259 OA
ATOM      7  C   UNL d   1     -37.944  14.784  16.277  0.00  0.00     0.018 A 
ATOM      8  C   UNL d   1     -37.940  13.353  15.435  0.00  0.00     0.008 A 
ATOM      9  C   UNL d   1     -37.943  14.786  15.450  0.00  0.00     0.002 A 
ATOM     10  C   UNL d   1     -37.941  14.079  15.033  0.00  0.00     0.001 A 
ENDROOT
BRANCH   2  11
ATOM     11  C   UNL d   1     -37.947  14.441  18.104  0.00  0.00     0.110 C 
BRANCH  11  12
ATOM     12  C   UNL d   1     -38.645  14.620  18.500  0.00  0.00     0.142 C 
BRANCH  12  13
ATOM     13  O   UNL d   1     -38.752  15.354  18.868  0.00  0.00    -0.304 OA
BRANCH  13  14
ATOM     14  C   UNL d   1     -39.384  15.474  19.383  0.00  0.00     0.100 A 
ATOM     15  C   UNL d   1     -39.289  15.334  20.191  0.00  0.00     0.025 A 
ATOM     16  C   UNL d   1     -39.918  15.454  20.703  0.00  0.00     0.002 A 
ATOM     17  C   UNL d   1     -40.644  15.714  20.407  0.00  0.00     0.000 A 
ATOM     18  C   UNL d   1     -40.735  15.853  19.596  0.00  0.00     0.002 A 
ATOM     19  C   UNL d   1     -41.279  15.834  20.927  0.00  0.00     0.000 C 
ATOM     20  C   UNL d   1     -40.099  15.730  19.090  0.00  0.00     0.025 A 
ENDBRANCH  13  14
ENDBRANCH  12  13
ENDBRANCH  11  12
ENDBRANCH   2  11
TORSDOF 4
ENDMDL
