MODEL 1
REMARK VINA RESULT:      -0.8      0.000      0.000
REMARK  4 active torsions:
REMARK  status: ('A' for Active; 'I' for Inactive)
REMARK    1  A    between atoms: C_7  and  C_1 
REMARK    2  A    between atoms: C_6  and  N_2 
REMARK    3  A    between atoms: C_8  and  C_6 
REMARK    4  A    between atoms: C_9  and  C_7 
ROOT
ATOM      1  C   UNL d   1      57.622   0.316  32.434  0.00  0.00     0.148 A 
ATOM      2  N   UNL d   1      57.993   0.253  31.738  0.00  0.00    -0.289 N 
ATOM      3  N   UNL d   1      58.114   0.474  33.031  0.00  0.00    -0.227 NA
ATOM      4  C   UNL d   1      58.831   0.385  31.889  0.00  0.00     0.083 A 
ATOM      5  C   UNL d   1      58.904   0.519  32.672  0.00  0.00     0.099 A 
ATOM      6  C   UNL d   1      59.501   0.398  31.430  0.00  0.00     0.019 A 
ATOM      7  C   UNL d   1      59.651   0.675  33.050  0.00  0.00     0.021 A 
ATOM      8  C   UNL d   1      60.243   0.541  31.731  0.00  0.00     0.002 A 
ATOM      9  C   UNL d   1      60.315   0.675  32.514  0.00  0.00     0.002 A 
ENDROOT
BRANCH   2  10
ATOM     10  C   UNL d   1      57.550   0.094  31.100  0.00  0.00     0.082 C 
BRANCH  10  11
ATOM     11  C   UNL d   1      57.838  -0.305  30.466  0.00  0.00     0.018 A 
ATOM     12  C   UNL d   1      57.992   0.113  29.772  0.00  0.00     0.002 A 
ATOM     13  C   UNL d   1      58.293  -0.267  29.088  0.00  0.00     0.000 A 
ATOM     14  C   UNL d   1      58.430  -1.093  29.142  0.00  0.00     0.000 A 
ATOM     15  C   UNL d   1      58.275  -1.511  29.836  0.00  0.00     0.000 A 
ATOM     16  C   UNL d   1      58.732  -1.477  28.456  0.00  0.00     0.000 C 
ATOM     17  C   UNL d   1      57.984  -1.103  30.475  0.00  0.00     0.002 A 
ENDBRANCH  10  11
ENDBRANCH   2  10
BRANCH   1  18
ATOM     18  C   UNL d   1      56.903   0.171  32.105  0.00  0.00     0.037 C 
BRANCH  18  19
ATOM     19  C   UNL d   1      56.261   0.009  32.598  0.00  0.00     0.003 A 
ATOM     20  C   UNL d   1      56.121  -0.764  32.855  0.00  0.00     0.000 A 
ATOM     21  C   UNL d   1      55.479  -0.926  33.348  0.00  0.00     0.000 A 
ATOM     22  C   UNL d   1      54.977  -0.316  33.586  0.00  0.00     0.000 A 
ATOM     23  C   UNL d   1      55.102   0.475  33.337  0.00  0.00     0.000 A 
ATOM     24  C   UNL d   1      55.759   0.619  32.836  0.00  0.00     0.000 A 
ENDBRANCH  18  19
ENDBRANCH   1  18
TORSDOF 4
ENDMDL
MODEL 2
REMARK VINA RESULT:      -0.1      2.076      4.487
REMARK  4 active torsions:
REMARK  status: ('A' for Active; 'I' for Inactive)
REMARK    1  A    between atoms: C_7  and  C_1 
REMARK    2  A    between atoms: C_6  and  N_2 
REMARK    3  A    between atoms: C_8  and  C_6 
REMARK    4  A    between atoms: C_9  and  C_7 
ROOT
ATOM      1  C   UNL d   1      59.557  -1.915  28.930  0.00  0.00     0.148 A 
ATOM      2  N   UNL d   1      59.176  -1.256  29.147  0.00  0.00    -0.289 N 
ATOM      3  N   UNL d   1      60.310  -1.784  28.731  0.00  0.00    -0.227 NA
ATOM      4  C   UNL d   1      59.741  -0.610  29.086  0.00  0.00     0.083 A 
ATOM      5  C   UNL d   1      60.428  -0.929  28.835  0.00  0.00     0.099 A 
ATOM      6  C   UNL d   1      59.714   0.191  29.223  0.00  0.00     0.019 A 
ATOM      7  C   UNL d   1      61.133  -0.470  28.703  0.00  0.00     0.021 A 
ATOM      8  C   UNL d   1      60.353   0.682  29.116  0.00  0.00     0.002 A 
ATOM      9  C   UNL d   1      61.039   0.363  28.864  0.00  0.00     0.002 A 
ENDROOT
BRANCH   2  10
ATOM     10  C   UNL d   1      58.415  -1.327  29.358  0.00  0.00     0.082 C 
BRANCH  10  11
ATOM     11  C   UNL d   1      58.081  -0.862  29.921  0.00  0.00     0.018 A 
ATOM     12  C   UNL d   1      58.246  -1.019  30.714  0.00  0.00     0.002 A 
ATOM     13  C   UNL d   1      57.917  -0.558  31.331  0.00  0.00     0.000 A 
ATOM     14  C   UNL d   1      57.412   0.072  31.105  0.00  0.00     0.000 A 
ATOM     15  C   UNL d   1      57.246   0.230  30.313  0.00  0.00     0.000 A 
ATOM     16  C   UNL d   1      57.080   0.538  31.724  0.00  0.00     0.000 C 
ATOM     17  C   UNL d   1      57.586  -0.243  29.747  0.00  0.00     0.002 A 
ENDBRANCH  10  11
ENDBRANCH   2  10
BRANCH   1  18
ATOM     18  C   UNL d   1      58.906  -2.373  29.046  0.00  0.00     0.037 C 
BRANCH  18  19
ATOM     19  C   UNL d   1      58.940  -3.175  28.850  0.00  0.00     0.003 A 
ATOM     20  C   UNL d   1      58.247  -3.581  28.652  0.00  0.00     0.000 A 
ATOM     21  C   UNL d   1      58.281  -4.382  28.456  0.00  0.00     0.000 A 
ATOM     22  C   UNL d   1      59.005  -4.778  28.456  0.00  0.00     0.000 A 
ATOM     23  C   UNL d   1      59.718  -4.384  28.653  0.00  0.00     0.000 A 
ATOM     24  C   UNL d   1      59.664  -3.570  28.850  0.00  0.00     0.000 A 
ENDBRANCH  18  19
ENDBRANCH   1  18
TORSDOF 4
ENDMDL
MODEL 3
REMARK VINA RESULT:       0.7      1.551      2.892
REMARK  4 active torsions:
REMARK  status: ('A' for Active; 'I' for Inactive)
REMARK    1  A    between atoms: C_7  and  C_1 
REMARK    2  A    between atoms: C_6  and  N_2 
REMARK    3  A    between atoms: C_8  and  C_6 
REMARK    4  A    between atoms: C_9  and  C_7 
ROOT
ATOM      1  C   UNL d   1      57.674  -1.185  30.642  0.00  0.00     0.148 A 
ATOM      2  N   UNL d   1      58.135  -0.986  30.030  0.00  0.00    -0.289 N 
ATOM      3  N   UNL d   1      57.497  -1.954  30.657  0.00  0.00    -0.227 NA
ATOM      4  C   UNL d   1      58.283  -1.708  29.584  0.00  0.00     0.083 A 
ATOM      5  C   UNL d   1      57.896  -2.294  29.964  0.00  0.00     0.099 A 
ATOM      6  C   UNL d   1      58.701  -1.891  28.913  0.00  0.00     0.019 A 
ATOM      7  C   UNL d   1      57.902  -3.104  29.697  0.00  0.00     0.021 A 
ATOM      8  C   UNL d   1      58.745  -2.644  28.609  0.00  0.00     0.002 A 
ATOM      9  C   UNL d   1      58.359  -3.230  28.988  0.00  0.00     0.002 A 
ENDROOT
BRANCH   2  10
ATOM     10  C   UNL d   1      58.346  -0.225  29.964  0.00  0.00     0.082 C 
BRANCH  10  11
ATOM     11  C   UNL d   1      59.015   0.003  29.582  0.00  0.00     0.018 A 
ATOM     12  C   UNL d   1      59.745  -0.159  29.932  0.00  0.00     0.002 A 
ATOM     13  C   UNL d   1      60.466   0.063  29.566  0.00  0.00     0.000 A 
ATOM     14  C   UNL d   1      60.410   0.458  28.827  0.00  0.00     0.000 A 
ATOM     15  C   UNL d   1      59.681   0.619  28.478  0.00  0.00     0.000 A 
ATOM     16  C   UNL d   1      61.133   0.681  28.458  0.00  0.00     0.000 C 
ATOM     17  C   UNL d   1      59.007   0.387  28.867  0.00  0.00     0.002 A 
ENDBRANCH  10  11
ENDBRANCH   2  10
BRANCH   1  18
ATOM     18  C   UNL d   1      57.651  -0.429  30.917  0.00  0.00     0.037 C 
BRANCH  18  19
ATOM     19  C   UNL d   1      57.135  -0.242  31.534  0.00  0.00     0.003 A 
ATOM     20  C   UNL d   1      57.030  -0.771  32.160  0.00  0.00     0.000 A 
ATOM     21  C   UNL d   1      56.514  -0.584  32.777  0.00  0.00     0.000 A 
ATOM     22  C   UNL d   1      56.102   0.131  32.768  0.00  0.00     0.000 A 
ATOM     23  C   UNL d   1      56.194   0.680  32.142  0.00  0.00     0.000 A 
ATOM     24  C   UNL d   1      56.723   0.472  31.524  0.00  0.00     0.000 A 
ENDBRANCH  18  19
ENDBRANCH   1  18
TORSDOF 4
ENDMDL
