MODEL 1
REMARK VINA RESULT:      -5.7      0.000      0.000
REMARK  7 active torsions:
REMARK  status: ('A' for Active; 'I' for Inactive)
REMARK    1  A    between atoms: C_12  and  C_3 
REMARK    2  A    between atoms: N_9  and  C_5 
REMARK    3  A    between atoms: C_17  and  N_9 
REMARK    4  A    between atoms: N_14  and  C_12 
REMARK    5  A    between atoms: C_18  and  N_14 
REMARK    6  A    between atoms: C_16  and  C_18 
REMARK    7  A    between atoms: C_19  and  C_17 
ROOT
ATOM      1  N   UNL d   1     -45.434  13.359  22.336  0.00  0.00    -0.258 N 
ATOM      2  C   UNL d   1     -45.978  13.947  22.564  0.00  0.00     0.270 A 
ATOM      3  C   UNL d   1     -46.720  13.744  22.861  0.00  0.00     0.111 A 
ATOM      4  N   UNL d   1     -46.382  12.345  22.703  0.00  0.00    -0.209 NA
ATOM      5  C   UNL d   1     -46.922  12.941  22.930  0.00  0.00     0.170 A 
ATOM      6  C   UNL d   1     -45.633  12.570  22.404  0.00  0.00     0.152 A 
ATOM      7  C   UNL d   1     -44.705  13.580  22.045  0.00  0.00     0.084 A 
ATOM      8  C   UNL d   1     -45.109  11.979  22.184  0.00  0.00     0.038 A 
ATOM      9  C   UNL d   1     -44.170  13.010  21.821  0.00  0.00     0.018 A 
ATOM     10  C   UNL d   1     -44.373  12.207  21.890  0.00  0.00     0.005 A 
ATOM     11  O   UNL d   1     -45.778  14.737  22.496  0.00  0.00    -0.266 OA
ATOM     12  C   UNL d   1     -43.420  13.240  21.521  0.00  0.00     0.002 C 
ENDROOT
BRANCH   3  13
ATOM     13  C   UNL d   1     -47.240  14.339  23.079  0.00  0.00     0.107 C 
BRANCH  13  14
ATOM     14  N   UNL d   1     -47.814  14.607  22.556  0.00  0.00    -0.242 NA
BRANCH  14  15
ATOM     15  C   UNL d   1     -48.215  15.312  22.709  0.00  0.00     0.101 C 
BRANCH  15  16
ATOM     16  C   UNL d   1     -49.033  15.341  22.702  0.00  0.00     0.038 A 
ATOM     17  C   UNL d   1     -49.446  15.274  21.983  0.00  0.00     0.101 A 
ATOM     18  N   UNL d   1     -50.262  15.303  21.977  0.00  0.00    -0.242 NA
ATOM     19  C   UNL d   1     -50.680  15.400  22.690  0.00  0.00     0.099 A 
ATOM     20  C   UNL d   1     -50.286  15.466  23.395  0.00  0.00     0.021 A 
ATOM     21  C   UNL d   1     -49.455  15.436  23.402  0.00  0.00     0.005 A 
ENDBRANCH  15  16
ENDBRANCH  14  15
ENDBRANCH  13  14
ENDBRANCH   3  13
BRANCH   5  22
ATOM     22  N   UNL d   1     -47.655  12.691  23.222  0.00  0.00    -0.225 NA
BRANCH  22  23
ATOM     23  C   UNL d   1     -47.965  11.942  23.036  0.00  0.00     0.101 C 
BRANCH  23  24
ATOM     24  C   UNL d   1     -48.781  11.834  22.988  0.00  0.00     0.019 A 
ATOM     25  C   UNL d   1     -49.145  11.761  22.269  0.00  0.00     0.002 A 
ATOM     26  C   UNL d   1     -49.970  11.653  22.235  0.00  0.00     0.000 A 
ATOM     27  C   UNL d   1     -50.426  11.617  22.917  0.00  0.00     0.000 A 
ATOM     28  C   UNL d   1     -50.047  11.692  23.654  0.00  0.00     0.000 A 
ATOM     29  C   UNL d   1     -49.223  11.801  23.698  0.00  0.00     0.002 A 
ENDBRANCH  23  24
ENDBRANCH  22  23
ENDBRANCH   5  22
TORSDOF 7
ENDMDL
