MODEL 1
REMARK VINA RESULT:       6.0      0.000      0.000
REMARK  8 active torsions:
REMARK  status: ('A' for Active; 'I' for Inactive)
REMARK    1  A    between atoms: C_21  and  N_5 
REMARK    2  A    between atoms: S_10  and  C_6 
REMARK    3  A    between atoms: C_17  and  C_7 
REMARK    4  A    between atoms: C_23  and  S_10 
REMARK    5  A    between atoms: C_13  and  C_23 
REMARK       I    between atoms: N_19  and  C_13 
REMARK    6  A    between atoms: C_28  and  N_19 
REMARK    7  A    between atoms: C_24  and  C_21 
REMARK    8  A    between atoms: C_27  and  C_28 
ROOT
ATOM      1  C   UNL d   1     -41.607-122.322 -54.257  0.00  0.00     0.081 A 
ATOM      2  C   UNL d   1     -41.367-123.054 -54.045  0.00  0.00     0.117 A 
ATOM      3  N   UNL d   1     -41.227-123.281 -53.234  0.00  0.00    -0.215 NA
ATOM      4  C   UNL d   1     -41.725-121.751 -53.634  0.00  0.00     0.268 A 
ATOM      5  N   UNL d   1     -41.598-121.945 -52.848  0.00  0.00    -0.253 N 
ATOM      6  C   UNL d   1     -41.336-122.752 -52.647  0.00  0.00     0.182 A 
ATOM      7  C   UNL d   1     -41.689-122.282 -55.065  0.00  0.00     0.013 A 
ATOM      8  S   UNL d   1     -41.286-123.522 -54.740  0.00  0.00    -0.067 SA
ATOM      9  C   UNL d   1     -41.492-123.023 -55.375  0.00  0.00     0.037 A 
ATOM     10  O   UNL d   1     -41.977-120.968 -53.807  0.00  0.00    -0.267 OA
ENDROOT
BRANCH   6  11
ATOM     11  S   UNL d   1     -41.199-122.975 -51.852  0.00  0.00    -0.044 SA
BRANCH  11  12
ATOM     12  C   UNL d   1     -41.474-123.661 -51.551  0.00  0.00     0.101 C 
BRANCH  12  13
ATOM     13  C   UNL d   1     -42.179-123.725 -51.210  0.00  0.00     0.286 C 
ATOM     14  N   UNL d   1     -42.314-123.732 -50.413  0.00  0.00    -0.206 NA
ATOM     15  O   UNL d   1     -42.830-123.788 -51.685  0.00  0.00    -0.265 OA
BRANCH  14  16
ATOM     16  C   UNL d   1     -41.610-123.664 -49.967  0.00  0.00     0.102 C 
BRANCH  16  17
ATOM     17  C   UNL d   1     -41.708-123.491 -49.131  0.00  0.00     0.021 A 
ATOM     18  C   UNL d   1     -42.390-123.747 -48.697  0.00  0.00     0.028 A 
ATOM     19  C   UNL d   1     -42.465-123.578 -47.924  0.00  0.00     0.119 A 
ATOM     20  O   UNL d   1     -43.070-123.766 -47.395  0.00  0.00    -0.300 OA
ATOM     21  C   UNL d   1     -41.888-123.151 -47.525  0.00  0.00     0.119 A 
ATOM     22  C   UNL d   1     -42.833-123.440 -46.679  0.00  0.00     0.304 A 
ATOM     23  O   UNL d   1     -42.110-123.064 -46.757  0.00  0.00    -0.300 OA
ATOM     24  C   UNL d   1     -41.196-122.884 -47.940  0.00  0.00     0.026 A 
ATOM     25  C   UNL d   1     -41.130-123.062 -48.724  0.00  0.00     0.004 A 
ENDBRANCH  16  17
ENDBRANCH  14  16
ENDBRANCH  12  13
ENDBRANCH  11  12
ENDBRANCH   6  11
BRANCH   5  26
ATOM     26  C   UNL d   1     -41.739-121.317 -52.295  0.00  0.00     0.085 C 
BRANCH  26  27
ATOM     27  C   UNL d   1     -41.285-120.590 -52.320  0.00  0.00     0.019 C 
ATOM     28  C   UNL d   1     -41.328-120.084 -51.667  0.00  0.00     0.002 C 
ENDBRANCH  26  27
ENDBRANCH   5  26
BRANCH   7  29
ATOM     29  C   UNL d   1     -41.865-121.895 -55.737  0.00  0.00     0.001 A 
ATOM     30  C   UNL d   1     -42.591-121.907 -56.128  0.00  0.00     0.000 A 
ATOM     31  C   UNL d   1     -42.766-121.520 -56.800  0.00  0.00     0.000 A 
ATOM     32  C   UNL d   1     -42.170-121.060 -57.146  0.00  0.00     0.000 A 
ATOM     33  C   UNL d   1     -41.432-121.026 -56.782  0.00  0.00     0.000 A 
ATOM     34  C   UNL d   1     -41.278-121.438 -56.084  0.00  0.00     0.000 A 
ENDBRANCH   7  29
TORSDOF 8
ENDMDL
