MODEL 1
REMARK VINA RESULT:      -3.1      0.000      0.000
REMARK  3 active torsions:
REMARK  status: ('A' for Active; 'I' for Inactive)
REMARK    1  A    between atoms: C_9  and  N_1 
REMARK       I    between atoms: C_8  and  N_2 
REMARK    2  A    between atoms: C_3  and  C_9 
REMARK    3  A    between atoms: C_13  and  C_8 
ROOT
ATOM      1  N   UNL d   1     -42.102-122.405 -50.834  0.00  0.00    -0.194 N 
ATOM      2  C   UNL d   1     -41.465-122.385 -52.010  0.00  0.00     0.055 A 
ATOM      3  N   UNL d   1     -41.865-123.188 -51.020  0.00  0.00    -0.163 NA
ATOM      4  C   UNL d   1     -41.852-121.924 -51.447  0.00  0.00     0.089 A 
ATOM      5  C   UNL d   1     -42.509-122.178 -50.157  0.00  0.00     0.286 C 
ATOM      6  C   UNL d   1     -41.473-123.164 -51.748  0.00  0.00     0.104 A 
ATOM      7  O   UNL d   1     -42.704-121.375 -50.055  0.00  0.00    -0.265 OA
ATOM      8  C   UNL d   1     -41.972-121.106 -51.485  0.00  0.00     0.021 C 
ATOM      9  C   UNL d   1     -41.148-123.817 -52.139  0.00  0.00     0.023 C 
ENDROOT
BRANCH   2  10
ATOM     10  C   UNL d   1     -41.128-122.106 -52.719  0.00  0.00     0.089 C 
BRANCH  10  11
ATOM     11  N   UNL d   1     -41.539-122.180 -53.433  0.00  0.00    -0.240 N 
ATOM     12  C   UNL d   1     -42.010-121.606 -53.776  0.00  0.00     0.267 A 
ATOM     13  C   UNL d   1     -42.308-121.922 -54.481  0.00  0.00     0.061 A 
ATOM     14  O   UNL d   1     -42.160-120.853 -53.472  0.00  0.00    -0.267 OA
ATOM     15  C   UNL d   1     -42.807-121.600 -55.050  0.00  0.00     0.005 A 
ATOM     16  C   UNL d   1     -42.021-122.682 -54.570  0.00  0.00     0.061 A 
ATOM     17  C   UNL d   1     -43.019-122.043 -55.711  0.00  0.00     0.000 A 
ATOM     18  C   UNL d   1     -42.731-122.811 -55.802  0.00  0.00     0.000 A 
ATOM     19  C   UNL d   1     -42.231-123.133 -55.232  0.00  0.00     0.005 A 
ATOM     20  C   UNL d   1     -41.540-122.853 -53.920  0.00  0.00     0.267 A 
ATOM     21  O   UNL d   1     -41.136-123.562 -53.784  0.00  0.00    -0.267 OA
ENDBRANCH  10  11
ENDBRANCH   2  10
BRANCH   5  22
ATOM     22  C   UNL d   1     -42.718-122.742 -49.594  0.00  0.00     0.087 A 
ATOM     23  S   UNL d   1     -42.281-122.936 -48.921  0.00  0.00    -0.082 SA
ATOM     24  C   UNL d   1     -42.694-123.524 -48.516  0.00  0.00     0.036 A 
ATOM     25  C   UNL d   1     -43.377-123.692 -48.930  0.00  0.00     0.008 A 
ATOM     26  C   UNL d   1     -43.394-123.206 -49.603  0.00  0.00     0.012 A 
ENDBRANCH   5  22
TORSDOF 3
ENDMDL
MODEL 2
REMARK VINA RESULT:      -0.3      0.723      1.572
REMARK  3 active torsions:
REMARK  status: ('A' for Active; 'I' for Inactive)
REMARK    1  A    between atoms: C_9  and  N_1 
REMARK       I    between atoms: C_8  and  N_2 
REMARK    2  A    between atoms: C_3  and  C_9 
REMARK    3  A    between atoms: C_13  and  C_8 
ROOT
ATOM      1  N   UNL d   1     -41.877-122.500 -50.982  0.00  0.00    -0.194 N 
ATOM      2  C   UNL d   1     -41.475-121.927 -52.121  0.00  0.00     0.055 A 
ATOM      3  N   UNL d   1     -42.138-121.704 -50.982  0.00  0.00    -0.163 NA
ATOM      4  C   UNL d   1     -41.473-122.624 -51.682  0.00  0.00     0.089 A 
ATOM      5  C   UNL d   1     -42.009-123.044 -50.380  0.00  0.00     0.286 C 
ATOM      6  C   UNL d   1     -41.885-121.359 -51.691  0.00  0.00     0.104 A 
ATOM      7  O   UNL d   1     -41.712-123.817 -50.463  0.00  0.00    -0.265 OA
ATOM      8  C   UNL d   1     -41.123-123.340 -51.905  0.00  0.00     0.021 C 
ATOM      9  C   UNL d   1     -42.024-120.575 -51.919  0.00  0.00     0.023 C 
ENDROOT
BRANCH   2  10
ATOM     10  C   UNL d   1     -41.123-121.821 -52.869  0.00  0.00     0.089 C 
BRANCH  10  11
ATOM     11  N   UNL d   1     -41.534-122.029 -53.555  0.00  0.00    -0.240 N 
ATOM     12  C   UNL d   1     -41.584-122.781 -53.874  0.00  0.00     0.267 A 
ATOM     13  C   UNL d   1     -42.049-122.728 -54.557  0.00  0.00     0.061 A 
ATOM     14  O   UNL d   1     -41.236-123.464 -53.568  0.00  0.00    -0.267 OA
ATOM     15  C   UNL d   1     -42.285-123.302 -55.097  0.00  0.00     0.005 A 
ATOM     16  C   UNL d   1     -42.282-121.951 -54.657  0.00  0.00     0.061 A 
ATOM     17  C   UNL d   1     -42.756-123.094 -55.740  0.00  0.00     0.000 A 
ATOM     18  C   UNL d   1     -42.992-122.309 -55.842  0.00  0.00     0.000 A 
ATOM     19  C   UNL d   1     -42.755-121.735 -55.301  0.00  0.00     0.005 A 
ATOM     20  C   UNL d   1     -41.965-121.507 -54.036  0.00  0.00     0.267 A 
ATOM     21  O   UNL d   1     -42.061-120.693 -53.919  0.00  0.00    -0.267 OA
ENDBRANCH  10  11
ENDBRANCH   2  10
BRANCH   5  22
ATOM     22  C   UNL d   1     -42.431-122.821 -49.708  0.00  0.00     0.087 A 
ATOM     23  S   UNL d   1     -42.187-122.932 -48.927  0.00  0.00    -0.082 SA
ATOM     24  C   UNL d   1     -42.775-122.627 -48.435  0.00  0.00     0.036 A 
ATOM     25  C   UNL d   1     -43.375-122.333 -48.903  0.00  0.00     0.008 A 
ATOM     26  C   UNL d   1     -43.163-122.452 -49.697  0.00  0.00     0.012 A 
ENDBRANCH   5  22
TORSDOF 3
ENDMDL
