MODEL 1
REMARK VINA RESULT:      29.7      0.000      0.000
REMARK  2 active torsions:
REMARK  status: ('A' for Active; 'I' for Inactive)
REMARK    1  A    between atoms: C_9  and  C_4 
REMARK    2  A    between atoms: N_6  and  C_8 
ROOT
ATOM      1  N   UNL d   1     -50.848  24.705  33.363  0.00  0.00    -0.211 NA
ATOM      2  C   UNL d   1     -51.234  23.976  33.361  0.00  0.00     0.140 A 
ATOM      3  C   UNL d   1     -52.054  23.954  33.344  0.00  0.00     0.051 A 
ATOM      4  C   UNL d   1     -51.280  25.406  33.349  0.00  0.00     0.183 A 
ATOM      5  C   UNL d   1     -52.497  24.653  33.329  0.00  0.00     0.104 A 
ATOM      6  O   UNL d   1     -52.105  25.389  33.332  0.00  0.00    -0.289 OA
ATOM      7  S   UNL d   1     -50.800  23.278  33.375  0.00  0.00    -0.057 SA
ATOM      8  C   UNL d   1     -52.443  23.227  33.341  0.00  0.00     0.004 A 
ATOM      9  C   UNL d   1     -53.316  24.631  33.312  0.00  0.00     0.025 A 
ATOM     10  C   UNL d   1     -53.270  23.195  33.324  0.00  0.00     0.000 A 
ATOM     11  C   UNL d   1     -53.701  23.897  33.310  0.00  0.00     0.002 A 
ENDROOT
BRANCH   4  12
ATOM     12  C   UNL d   1     -50.884  26.133  33.352  0.00  0.00     0.041 A 
ATOM     13  C   UNL d   1     -51.328  26.833  33.346  0.00  0.00     0.005 A 
ATOM     14  C   UNL d   1     -50.934  27.557  33.348  0.00  0.00     0.024 A 
ATOM     15  C   UNL d   1     -50.107  27.588  33.357  0.00  0.00     0.127 A 
ATOM     16  C   UNL d   1     -49.672  26.879  33.364  0.00  0.00     0.024 A 
ATOM     17  C   UNL d   1     -50.064  26.155  33.361  0.00  0.00     0.005 A 
BRANCH  15  18
ATOM     18  N   UNL d   1     -49.721  28.317  33.360  0.00  0.00    -0.114 N 
ATOM     19  O   UNL d   1     -50.151  29.017  33.306  0.00  0.00    -0.532 OA
ATOM     20  O   UNL d   1     -48.896  28.350  33.418  0.00  0.00    -0.532 OA
ENDBRANCH  15  18
ENDBRANCH   4  12
TORSDOF 2
ENDMDL
