MODEL 1
REMARK VINA RESULT:      23.9      0.000      0.000
REMARK  4 active torsions:
REMARK  status: ('A' for Active; 'I' for Inactive)
REMARK    1  A    between atoms: N_2  and  S_1 
REMARK    2  A    between atoms: C_4  and  S_1 
REMARK    3  A    between atoms: C_15  and  C_3 
REMARK    4  A    between atoms: O_16  and  C_12 
ROOT
ATOM      1  S   UNL d   1      13.722  13.071  -2.865  0.00  0.00     0.273 S 
ATOM      2  O   UNL d   1      13.176  12.457  -2.936  0.00  0.00    -0.200 OA
ATOM      3  O   UNL d   1      14.268  13.685  -2.793  0.00  0.00    -0.200 OA
ENDROOT
BRANCH   1   4
ATOM      4  N   UNL d   1      13.454  13.393  -3.579  0.00  0.00    -0.213 N 
ATOM      5  C   UNL d   1      13.322  12.974  -4.278  0.00  0.00     0.157 A 
ATOM      6  N   UNL d   1      13.057  13.514  -4.849  0.00  0.00    -0.226 NA
ATOM      7  C   UNL d   1      13.027  14.261  -4.501  0.00  0.00     0.101 A 
ATOM      8  C   UNL d   1      13.272  14.187  -3.713  0.00  0.00     0.112 A 
ATOM      9  C   UNL d   1      12.793  14.960  -4.870  0.00  0.00     0.022 C 
BRANCH   5  10
ATOM     10  C   UNL d   1      13.433  12.169  -4.387  0.00  0.00     0.038 C 
ATOM     11  C   UNL d   1      13.116  11.798  -5.050  0.00  0.00     0.003 C 
ENDBRANCH   5  10
ENDBRANCH   1   4
BRANCH   1  12
ATOM     12  C   UNL d   1      13.989  12.750  -2.153  0.00  0.00     0.106 A 
ATOM     13  C   UNL d   1      14.645  13.078  -1.773  0.00  0.00     0.037 A 
ATOM     14  C   UNL d   1      14.912  12.758  -1.062  0.00  0.00     0.095 A 
ATOM     15  C   UNL d   1      14.524  12.109  -0.730  0.00  0.00     0.022 A 
ATOM     16  C   UNL d   1      13.870  11.781  -1.111  0.00  0.00     0.003 A 
ATOM     17  C   UNL d   1      14.792  11.788  -0.018  0.00  0.00     0.002 C 
ATOM     18  C   UNL d   1      13.603  12.102  -1.821  0.00  0.00     0.012 A 
ATOM     19  C   UNL d   1      12.955  11.780  -2.202  0.00  0.00     0.001 C 
BRANCH  14  20
ATOM     20  O   UNL d   1      15.570  13.089  -0.681  0.00  0.00    -0.328 OA
ATOM     21  C   UNL d   1      15.461  13.645  -0.081  0.00  0.00     0.181 C 
ENDBRANCH  14  20
ENDBRANCH   1  12
TORSDOF 4
ENDMDL
MODEL 2
REMARK VINA RESULT:      26.6      0.749      1.854
REMARK  4 active torsions:
REMARK  status: ('A' for Active; 'I' for Inactive)
REMARK    1  A    between atoms: N_2  and  S_1 
REMARK    2  A    between atoms: C_4  and  S_1 
REMARK    3  A    between atoms: C_15  and  C_3 
REMARK    4  A    between atoms: O_16  and  C_12 
ROOT
ATOM      1  S   UNL d   1      13.787  12.796  -3.042  0.00  0.00     0.273 S 
ATOM      2  O   UNL d   1      14.177  13.489  -3.263  0.00  0.00    -0.200 OA
ATOM      3  O   UNL d   1      13.397  12.103  -2.820  0.00  0.00    -0.200 OA
ENDROOT
BRANCH   1   4
ATOM      4  N   UNL d   1      13.457  12.740  -3.799  0.00  0.00    -0.213 N 
ATOM      5  C   UNL d   1      13.008  13.322  -4.175  0.00  0.00     0.157 A 
ATOM      6  N   UNL d   1      12.793  13.032  -4.921  0.00  0.00    -0.226 NA
ATOM      7  C   UNL d   1      13.110  12.274  -5.003  0.00  0.00     0.101 A 
ATOM      8  C   UNL d   1      13.522  12.092  -4.307  0.00  0.00     0.112 A 
ATOM      9  C   UNL d   1      13.031  11.782  -5.660  0.00  0.00     0.022 C 
BRANCH   5  10
ATOM     10  C   UNL d   1      12.811  14.055  -3.865  0.00  0.00     0.038 C 
ATOM     11  C   UNL d   1      13.021  14.740  -4.270  0.00  0.00     0.003 C 
ENDBRANCH   5  10
ENDBRANCH   1   4
BRANCH   1  12
ATOM     12  C   UNL d   1      14.115  12.852  -2.287  0.00  0.00     0.106 A 
ATOM     13  C   UNL d   1      13.928  12.290  -1.712  0.00  0.00     0.037 A 
ATOM     14  C   UNL d   1      14.255  12.346  -0.958  0.00  0.00     0.095 A 
ATOM     15  C   UNL d   1      14.772  12.965  -0.777  0.00  0.00     0.022 A 
ATOM     16  C   UNL d   1      14.959  13.526  -1.352  0.00  0.00     0.003 A 
ATOM     17  C   UNL d   1      15.100  13.021  -0.023  0.00  0.00     0.002 C 
ATOM     18  C   UNL d   1      14.631  13.470  -2.106  0.00  0.00     0.012 A 
ATOM     19  C   UNL d   1      14.814  14.024  -2.678  0.00  0.00     0.001 C 
BRANCH  14  20
ATOM     20  O   UNL d   1      14.066  11.780  -0.382  0.00  0.00    -0.328 OA
ATOM     21  C   UNL d   1      13.317  11.780  -0.037  0.00  0.00     0.181 C 
ENDBRANCH  14  20
ENDBRANCH   1  12
TORSDOF 4
ENDMDL
