MODEL 1
REMARK VINA RESULT:      72.9      0.000      0.000
REMARK  2 active torsions:
REMARK  status: ('A' for Active; 'I' for Inactive)
REMARK    1  A    between atoms: C_9  and  N_1 
REMARK    2  A    between atoms: C_2  and  C_10 
ROOT
ATOM      1  C   UNL d   1     -48.464  29.076  34.868  0.00  0.00     0.070 A 
ATOM      2  C   UNL d   1     -49.442  27.822  34.360  0.00  0.00     0.024 A 
ATOM      3  C   UNL d   1     -48.736  29.055  34.095  0.00  0.00     0.018 A 
ATOM      4  C   UNL d   1     -48.662  28.492  35.403  0.00  0.00     0.018 A 
ATOM      5  C   UNL d   1     -49.232  28.418  33.837  0.00  0.00     0.004 A 
ATOM      6  C   UNL d   1     -49.156  27.858  35.147  0.00  0.00     0.004 A 
ENDROOT
BRANCH   2   7
ATOM      7  C   UNL d   1     -49.846  27.304  34.150  0.00  0.00     0.111 A 
ATOM      8  N   UNL d   1     -49.541  26.464  33.962  0.00  0.00    -0.239 NA
ATOM      9  C   UNL d   1     -50.245  26.037  33.730  0.00  0.00     0.088 A 
ATOM     10  C   UNL d   1     -50.291  25.297  33.514  0.00  0.00     0.020 A 
ATOM     11  C   UNL d   1     -50.902  26.535  33.767  0.00  0.00     0.049 A 
ATOM     12  C   UNL d   1     -51.061  24.991  33.307  0.00  0.00     0.002 A 
ATOM     13  C   UNL d   1     -51.701  25.475  33.342  0.00  0.00     0.001 A 
ATOM     14  C   UNL d   1     -51.648  26.260  33.571  0.00  0.00     0.008 A 
ATOM     15  S   UNL d   1     -50.592  27.352  34.046  0.00  0.00    -0.066 SA
ENDBRANCH   2   7
BRANCH   1  16
ATOM     16  N   UNL d   1     -47.975  29.703  35.122  0.00  0.00    -0.242 N 
ATOM     17  C   UNL d   1     -47.332  29.560  35.616  0.00  0.00     0.267 A 
ATOM     18  C   UNL d   1     -46.968  30.286  35.762  0.00  0.00     0.066 A 
ATOM     19  O   UNL d   1     -47.059  28.808  35.940  0.00  0.00    -0.267 OA
ATOM     20  C   UNL d   1     -47.403  30.878  35.345  0.00  0.00     0.066 A 
ATOM     21  C   UNL d   1     -48.032  30.491  34.949  0.00  0.00     0.267 A 
ATOM     22  O   UNL d   1     -48.594  30.862  34.476  0.00  0.00    -0.267 OA
ENDBRANCH   1  16
TORSDOF 2
ENDMDL
