MODEL 1
REMARK VINA RESULT:      39.3      0.000      0.000
REMARK  6 active torsions:
REMARK  status: ('A' for Active; 'I' for Inactive)
REMARK    1  A    between atoms: S_10  and  C_4 
REMARK    2  A    between atoms: C_16  and  S_10 
REMARK    3  A    between atoms: C_11  and  C_14 
REMARK    4  A    between atoms: O_20  and  C_13 
REMARK    5  A    between atoms: C_14  and  C_16 
REMARK    6  A    between atoms: O_21  and  C_15 
ROOT
ATOM      1  C   UNL d   1      14.384  14.781  -3.199  0.00  0.00     0.079 C 
ENDROOT
BRANCH   1   2
ATOM      2  C   UNL d   1      13.663  14.665  -3.591  0.00  0.00     0.202 C 
ATOM      3  O   UNL d   1      13.082  15.267  -3.571  0.00  0.00    -0.286 OA
BRANCH   2   4
ATOM      4  C   UNL d   1      13.509  13.961  -4.002  0.00  0.00     0.042 A 
ATOM      5  C   UNL d   1      13.492  13.231  -3.606  0.00  0.00     0.029 A 
ATOM      6  C   UNL d   1      13.336  12.529  -4.027  0.00  0.00     0.116 A 
ATOM      7  C   UNL d   1      13.199  12.568  -4.841  0.00  0.00     0.116 A 
ATOM      8  C   UNL d   1      13.215  13.283  -5.236  0.00  0.00     0.026 A 
ATOM      9  C   UNL d   1      13.371  13.986  -4.815  0.00  0.00     0.005 A 
BRANCH   6  10
ATOM     10  O   UNL d   1      13.318  11.801  -3.634  0.00  0.00    -0.326 OA
ATOM     11  C   UNL d   1      13.220  11.783  -2.806  0.00  0.00     0.181 C 
ENDBRANCH   6  10
BRANCH   7  12
ATOM     12  O   UNL d   1      13.042  11.867  -5.269  0.00  0.00    -0.326 OA
ATOM     13  C   UNL d   1      13.152  11.857  -6.095  0.00  0.00     0.181 C 
ENDBRANCH   7  12
ENDBRANCH   2   4
ENDBRANCH   1   2
BRANCH   1  14
ATOM     14  S   UNL d   1      14.427  14.702  -2.382  0.00  0.00    -0.063 SA
BRANCH  14  15
ATOM     15  C   UNL d   1      14.741  14.743  -1.609  0.00  0.00     0.132 A 
ATOM     16  N   UNL d   1      14.879  14.084  -1.217  0.00  0.00    -0.050 N 
ATOM     17  C   UNL d   1      15.175  14.129  -0.487  0.00  0.00     0.753 A 
ATOM     18  N   UNL d   1      14.868  12.730  -1.142  0.00  0.00    -0.130 NA
ATOM     19  N   UNL d   1      15.320  13.477  -0.080  0.00  0.00    -0.038 NA
ATOM     20  N   UNL d   1      15.324  14.825  -0.171  0.00  0.00    -0.059 NA
ATOM     21  C   UNL d   1      15.163  12.776  -0.416  0.00  0.00     0.201 A 
ATOM     22  C   UNL d   1      15.305  12.109  -0.017  0.00  0.00     0.044 C 
ATOM     23  C   UNL d   1      15.183  15.483  -0.569  0.00  0.00     0.102 A 
ATOM     24  C   UNL d   1      14.888  15.438  -1.296  0.00  0.00     0.046 A 
ATOM     25  C   UNL d   1      15.336  16.183  -0.241  0.00  0.00     0.021 C 
ENDBRANCH  14  15
ENDBRANCH   1  14
TORSDOF 6
ENDMDL
