MODEL 1
REMARK VINA RESULT:      -9.2      0.000      0.000
REMARK  3 active torsions:
REMARK  status: ('A' for Active; 'I' for Inactive)
REMARK    1  A    between atoms: C_2  and  N_1 
REMARK    2  A    between atoms: N_6  and  C_5 
REMARK    3  A    between atoms: C_12  and  N_6 
ROOT
ATOM      1  C   UNL d   1      53.018  30.340  53.423  0.00  0.00     0.128 A 
ATOM      2  C   UNL d   1      52.504  30.888  53.082  0.00  0.00     0.046 A 
ATOM      3  C   UNL d   1      52.712  31.687  53.056  0.00  0.00     0.122 A 
ATOM      4  C   UNL d   1      53.431  31.936  53.372  0.00  0.00     0.101 A 
ATOM      5  C   UNL d   1      53.738  30.589  53.738  0.00  0.00     0.025 A 
ATOM      6  C   UNL d   1      53.941  31.386  53.711  0.00  0.00     0.022 A 
ATOM      7  N   UNL d   1      52.198  32.235  52.715  0.00  0.00    -0.146 N 
ENDROOT
BRANCH   4   8
ATOM      8  N   UNL d   1      53.634  32.733  53.345  0.00  0.00    -0.244 NA
BRANCH   8   9
ATOM      9  C   UNL d   1      54.070  33.065  53.961  0.00  0.00     0.081 A 
ATOM     10  C   UNL d   1      54.886  33.166  53.883  0.00  0.00     0.019 A 
ATOM     11  C   UNL d   1      55.321  33.498  54.499  0.00  0.00     0.002 A 
ATOM     12  C   UNL d   1      54.941  33.730  55.194  0.00  0.00     0.000 A 
ATOM     13  C   UNL d   1      54.126  33.629  55.272  0.00  0.00     0.002 A 
ATOM     14  C   UNL d   1      53.691  33.297  54.656  0.00  0.00     0.019 A 
ENDBRANCH   8   9
ENDBRANCH   4   8
BRANCH   1  15
ATOM     15  N   UNL d   1      52.811  29.542  53.448  0.00  0.00    -0.114 N 
ATOM     16  O   UNL d   1      52.921  29.109  54.142  0.00  0.00    -0.532 OA
ATOM     17  O   UNL d   1      52.494  29.176  52.779  0.00  0.00    -0.532 OA
ENDBRANCH   1  15
TORSDOF 3
ENDMDL
MODEL 2
REMARK VINA RESULT:      -9.2      2.302      2.879
REMARK  3 active torsions:
REMARK  status: ('A' for Active; 'I' for Inactive)
REMARK    1  A    between atoms: C_2  and  N_1 
REMARK    2  A    between atoms: N_6  and  C_5 
REMARK    3  A    between atoms: C_12  and  N_6 
ROOT
ATOM      1  C   UNL d   1      51.729  33.745  52.726  0.00  0.00     0.128 A 
ATOM      2  C   UNL d   1      51.793  32.924  52.677  0.00  0.00     0.046 A 
ATOM      3  C   UNL d   1      52.473  32.546  52.953  0.00  0.00     0.122 A 
ATOM      4  C   UNL d   1      53.088  32.989  53.277  0.00  0.00     0.101 A 
ATOM      5  C   UNL d   1      52.344  34.188  53.050  0.00  0.00     0.025 A 
ATOM      6  C   UNL d   1      53.020  33.808  53.324  0.00  0.00     0.022 A 
ATOM      7  N   UNL d   1      52.537  31.725  52.904  0.00  0.00    -0.146 N 
ENDROOT
BRANCH   4   8
ATOM      8  N   UNL d   1      53.764  32.609  53.551  0.00  0.00    -0.244 NA
BRANCH   8   9
ATOM      9  C   UNL d   1      54.184  32.929  54.184  0.00  0.00     0.081 A 
ATOM     10  C   UNL d   1      53.947  32.771  54.959  0.00  0.00     0.019 A 
ATOM     11  C   UNL d   1      54.367  33.090  55.592  0.00  0.00     0.002 A 
ATOM     12  C   UNL d   1      55.026  33.568  55.452  0.00  0.00     0.000 A 
ATOM     13  C   UNL d   1      55.262  33.726  54.678  0.00  0.00     0.002 A 
ATOM     14  C   UNL d   1      54.842  33.407  54.045  0.00  0.00     0.019 A 
ENDBRANCH   8   9
ENDBRANCH   4   8
BRANCH   1  15
ATOM     15  N   UNL d   1      51.049  34.122  52.450  0.00  0.00    -0.114 N 
ATOM     16  O   UNL d   1      50.433  34.295  52.972  0.00  0.00    -0.532 OA
ATOM     17  O   UNL d   1      50.984  34.325  51.653  0.00  0.00    -0.532 OA
ENDBRANCH   1  15
TORSDOF 3
ENDMDL
MODEL 3
REMARK VINA RESULT:      -9.1      2.549      3.625
REMARK  3 active torsions:
REMARK  status: ('A' for Active; 'I' for Inactive)
REMARK    1  A    between atoms: C_2  and  N_1 
REMARK    2  A    between atoms: N_6  and  C_5 
REMARK    3  A    between atoms: C_12  and  N_6 
ROOT
ATOM      1  C   UNL d   1      54.315  33.392  54.714  0.00  0.00     0.128 A 
ATOM      2  C   UNL d   1      54.284  32.630  54.400  0.00  0.00     0.046 A 
ATOM      3  C   UNL d   1      53.728  32.447  53.817  0.00  0.00     0.122 A 
ATOM      4  C   UNL d   1      53.205  33.024  53.551  0.00  0.00     0.101 A 
ATOM      5  C   UNL d   1      53.791  33.970  54.448  0.00  0.00     0.025 A 
ATOM      6  C   UNL d   1      53.239  33.783  53.867  0.00  0.00     0.022 A 
ATOM      7  N   UNL d   1      53.698  31.685  53.502  0.00  0.00    -0.146 N 
ENDROOT
BRANCH   4   8
ATOM      8  N   UNL d   1      52.653  32.838  52.970  0.00  0.00    -0.244 NA
BRANCH   8   9
ATOM      9  C   UNL d   1      51.969  33.294  52.894  0.00  0.00     0.081 A 
ATOM     10  C   UNL d   1      51.947  33.918  52.354  0.00  0.00     0.019 A 
ATOM     11  C   UNL d   1      51.265  34.373  52.278  0.00  0.00     0.002 A 
ATOM     12  C   UNL d   1      50.603  34.206  52.742  0.00  0.00     0.000 A 
ATOM     13  C   UNL d   1      50.625  33.583  53.281  0.00  0.00     0.002 A 
ATOM     14  C   UNL d   1      51.308  33.127  53.357  0.00  0.00     0.019 A 
ENDBRANCH   8   9
ENDBRANCH   4   8
BRANCH   1  15
ATOM     15  N   UNL d   1      54.870  33.575  55.296  0.00  0.00    -0.114 N 
ATOM     16  O   UNL d   1      55.523  34.045  55.109  0.00  0.00    -0.532 OA
ATOM     17  O   UNL d   1      54.774  33.289  56.064  0.00  0.00    -0.532 OA
ENDBRANCH   1  15
TORSDOF 3
ENDMDL
MODEL 4
REMARK VINA RESULT:      -8.6      1.763      2.505
REMARK  3 active torsions:
REMARK  status: ('A' for Active; 'I' for Inactive)
REMARK    1  A    between atoms: C_2  and  N_1 
REMARK    2  A    between atoms: N_6  and  C_5 
REMARK    3  A    between atoms: C_12  and  N_6 
ROOT
ATOM      1  C   UNL d   1      53.266  30.922  53.472  0.00  0.00     0.128 A 
ATOM      2  C   UNL d   1      53.653  31.425  53.999  0.00  0.00     0.046 A 
ATOM      3  C   UNL d   1      53.516  32.239  53.968  0.00  0.00     0.122 A 
ATOM      4  C   UNL d   1      52.992  32.547  53.411  0.00  0.00     0.101 A 
ATOM      5  C   UNL d   1      52.742  31.231  52.916  0.00  0.00     0.025 A 
ATOM      6  C   UNL d   1      52.608  32.041  52.888  0.00  0.00     0.022 A 
ATOM      7  N   UNL d   1      53.903  32.742  54.494  0.00  0.00    -0.146 N 
ENDROOT
BRANCH   4   8
ATOM      8  N   UNL d   1      52.858  33.358  53.383  0.00  0.00    -0.244 NA
BRANCH   8   9
ATOM      9  C   UNL d   1      52.137  33.644  53.103  0.00  0.00     0.081 A 
ATOM     10  C   UNL d   1      52.086  33.960  52.342  0.00  0.00     0.019 A 
ATOM     11  C   UNL d   1      51.365  34.246  52.061  0.00  0.00     0.002 A 
ATOM     12  C   UNL d   1      50.694  34.216  52.542  0.00  0.00     0.000 A 
ATOM     13  C   UNL d   1      50.746  33.900  53.302  0.00  0.00     0.002 A 
ATOM     14  C   UNL d   1      51.466  33.615  53.582  0.00  0.00     0.019 A 
ENDBRANCH   8   9
ENDBRANCH   4   8
BRANCH   1  15
ATOM     15  N   UNL d   1      53.403  30.109  53.504  0.00  0.00    -0.114 N 
ATOM     16  O   UNL d   1      54.153  29.811  53.329  0.00  0.00    -0.532 OA
ATOM     17  O   UNL d   1      52.792  29.594  53.709  0.00  0.00    -0.532 OA
ENDBRANCH   1  15
TORSDOF 3
ENDMDL
MODEL 5
REMARK VINA RESULT:      -8.6      2.280      3.639
REMARK  3 active torsions:
REMARK  status: ('A' for Active; 'I' for Inactive)
REMARK    1  A    between atoms: C_2  and  N_1 
REMARK    2  A    between atoms: N_6  and  C_5 
REMARK    3  A    between atoms: C_12  and  N_6 
ROOT
ATOM      1  C   UNL d   1      53.644  33.769  54.466  0.00  0.00     0.128 A 
ATOM      2  C   UNL d   1      53.066  33.926  53.899  0.00  0.00     0.046 A 
ATOM      3  C   UNL d   1      52.861  33.347  53.347  0.00  0.00     0.122 A 
ATOM      4  C   UNL d   1      53.235  32.613  53.363  0.00  0.00     0.101 A 
ATOM      5  C   UNL d   1      54.018  33.035  54.482  0.00  0.00     0.025 A 
ATOM      6  C   UNL d   1      53.811  32.460  53.931  0.00  0.00     0.022 A 
ATOM      7  N   UNL d   1      52.283  33.504  52.781  0.00  0.00    -0.146 N 
ENDROOT
BRANCH   4   8
ATOM      8  N   UNL d   1      53.028  32.038  52.812  0.00  0.00    -0.244 NA
BRANCH   8   9
ATOM      9  C   UNL d   1      52.990  31.246  53.041  0.00  0.00     0.081 A 
ATOM     10  C   UNL d   1      52.264  30.910  53.246  0.00  0.00     0.019 A 
ATOM     11  C   UNL d   1      52.226  30.119  53.474  0.00  0.00     0.002 A 
ATOM     12  C   UNL d   1      52.914  29.663  53.499  0.00  0.00     0.000 A 
ATOM     13  C   UNL d   1      53.639  29.999  53.294  0.00  0.00     0.002 A 
ATOM     14  C   UNL d   1      53.677  30.790  53.066  0.00  0.00     0.019 A 
ENDBRANCH   8   9
ENDBRANCH   4   8
BRANCH   1  15
ATOM     15  N   UNL d   1      53.848  34.348  55.017  0.00  0.00    -0.114 N 
ATOM     16  O   UNL d   1      54.636  34.436  55.249  0.00  0.00    -0.532 OA
ATOM     17  O   UNL d   1      53.267  34.838  55.335  0.00  0.00    -0.532 OA
ENDBRANCH   1  15
TORSDOF 3
ENDMDL
