MODEL 1
REMARK VINA RESULT:      -4.2      0.000      0.000
REMARK  3 active torsions:
REMARK  status: ('A' for Active; 'I' for Inactive)
REMARK    1  A    between atoms: C_11  and  N_2 
REMARK    2  A    between atoms: C_9  and  N_3 
REMARK    3  A    between atoms: C_10  and  C_12 
ROOT
ATOM      1  C   UNL d   1     -41.693-123.001 -51.612  0.00  0.00     0.339 A 
ATOM      2  N   UNL d   1     -41.668-122.552 -50.923  0.00  0.00    -0.258 N 
ATOM      3  N   UNL d   1     -41.555-122.503 -52.260  0.00  0.00    -0.258 N 
ATOM      4  S   UNL d   1     -41.262-120.505 -51.495  0.00  0.00     0.214 S 
ATOM      5  C   UNL d   1     -41.511-121.759 -51.140  0.00  0.00     0.097 A 
ATOM      6  C   UNL d   1     -41.443-121.738 -51.968  0.00  0.00     0.097 A 
ATOM      7  C   UNL d   1     -41.399-120.998 -50.855  0.00  0.00     0.118 A 
ATOM      8  C   UNL d   1     -41.288-120.953 -52.180  0.00  0.00     0.118 A 
ATOM      9  O   UNL d   1     -41.834-123.817 -51.656  0.00  0.00    -0.245 OA
ATOM     10  O   UNL d   1     -41.123-120.005 -52.148  0.00  0.00    -0.217 OA
ATOM     11  O   UNL d   1     -41.225-120.006 -50.835  0.00  0.00    -0.217 OA
ENDROOT
BRANCH   3  12
ATOM     12  C   UNL d   1     -41.533-122.727 -53.056  0.00  0.00     0.068 A 
ATOM     13  C   UNL d   1     -41.887-122.254 -53.630  0.00  0.00     0.021 A 
ATOM     14  C   UNL d   1     -41.868-122.472 -54.421  0.00  0.00     0.073 A 
ATOM     15  C   UNL d   1     -41.489-123.171 -54.641  0.00  0.00     0.004 A 
ATOM     16  C   UNL d   1     -41.131-123.652 -54.072  0.00  0.00     0.001 A 
ATOM     17  C   UNL d   1     -41.155-123.426 -53.277  0.00  0.00     0.018 A 
BRANCH  14  18
ATOM     18  C   UNL d   1     -42.224-121.996 -54.996  0.00  0.00     0.419 C 
ATOM     19  F   UNL d   1     -42.553-121.565 -55.520  0.00  0.00    -0.166 F 
ATOM     20  F   UNL d   1     -43.048-121.991 -55.265  0.00  0.00    -0.166 F 
ATOM     21  F   UNL d   1     -41.879-121.377 -55.486  0.00  0.00    -0.166 F 
ENDBRANCH  14  18
ENDBRANCH   3  12
BRANCH   2  22
ATOM     22  C   UNL d   1     -41.776-122.828 -50.150  0.00  0.00     0.068 A 
ATOM     23  C   UNL d   1     -42.534-122.854 -49.826  0.00  0.00     0.016 A 
ATOM     24  C   UNL d   1     -43.185-122.608 -50.266  0.00  0.00     0.002 C 
ATOM     25  C   UNL d   1     -42.631-123.132 -49.051  0.00  0.00     0.001 A 
ATOM     26  C   UNL d   1     -41.980-123.377 -48.611  0.00  0.00     0.000 A 
ATOM     27  C   UNL d   1     -41.226-123.348 -48.941  0.00  0.00     0.002 A 
ATOM     28  C   UNL d   1     -41.126-123.073 -49.710  0.00  0.00     0.018 A 
ENDBRANCH   2  22
TORSDOF 3
ENDMDL
