MODEL 1
REMARK VINA RESULT:      69.9      0.000      0.000
REMARK  6 active torsions:
REMARK  status: ('A' for Active; 'I' for Inactive)
REMARK    1  A    between atoms: C_7  and  C_1 
REMARK    2  A    between atoms: C_9  and  N_2 
REMARK    3  A    between atoms: C_18  and  C_7 
REMARK    4  A    between atoms: C_8  and  C_9 
REMARK       I    between atoms: N_14  and  C_8 
REMARK    5  A    between atoms: C_16  and  N_14 
REMARK    6  A    between atoms: C_29  and  C_23 
ROOT
ATOM      1  C   UNL d   1      45.245 -15.693  37.045  0.00  0.00     0.095 A 
ATOM      2  N   UNL d   1      44.428 -16.704  37.681  0.00  0.00    -0.300 N 
ATOM      3  C   UNL d   1      44.564 -15.311  36.779  0.00  0.00     0.202 A 
ATOM      4  C   UNL d   1      45.183 -16.395  37.500  0.00  0.00     0.087 A 
ATOM      5  C   UNL d   1      43.809 -15.621  36.961  0.00  0.00     0.055 A 
ATOM      6  C   UNL d   1      43.747 -16.323  37.416  0.00  0.00     0.067 A 
ATOM      7  C   UNL d   1      43.004 -16.633  37.598  0.00  0.00     0.018 A 
ATOM      8  C   UNL d   1      43.127 -15.239  36.694  0.00  0.00     0.005 A 
ATOM      9  O   UNL d   1      44.625 -14.618  36.330  0.00  0.00    -0.286 OA
ATOM     10  C   UNL d   1      42.386 -15.550  36.877  0.00  0.00     0.000 A 
ATOM     11  C   UNL d   1      42.324 -16.252  37.332  0.00  0.00     0.002 A 
ENDROOT
BRANCH   2  12
ATOM     12  C   UNL d   1      44.367 -17.397  38.130  0.00  0.00     0.144 C 
BRANCH  12  13
ATOM     13  C   UNL d   1      44.881 -17.526  38.762  0.00  0.00     0.297 C 
ATOM     14  N   UNL d   1      44.589 -17.814  39.480  0.00  0.00    -0.207 NA
ATOM     15  O   UNL d   1      45.686 -17.366  38.677  0.00  0.00    -0.264 OA
BRANCH  14  16
ATOM     16  C   UNL d   1      45.103 -17.943  40.112  0.00  0.00     0.086 A 
ATOM     17  C   UNL d   1      44.814 -18.252  40.820  0.00  0.00     0.031 A 
ATOM     18  C   UNL d   1      45.316 -18.384  41.454  0.00  0.00     0.059 A 
ATOM     19 CL   UNL d   1      45.022 -18.694  42.163  0.00  0.00    -0.082 Cl
ATOM     20  C   UNL d   1      46.131 -18.201  41.377  0.00  0.00     0.011 A 
ATOM     21  C   UNL d   1      46.420 -17.892  40.669  0.00  0.00     0.002 A 
ATOM     22  C   UNL d   1      46.641 -18.331  42.010  0.00  0.00     0.001 C 
ATOM     23  C   UNL d   1      45.906 -17.763  40.037  0.00  0.00     0.019 A 
ENDBRANCH  14  16
ENDBRANCH  12  13
ENDBRANCH   2  12
BRANCH   1  24
ATOM     24  C   UNL d   1      45.999 -15.393  36.870  0.00  0.00     0.200 C 
ATOM     25  O   UNL d   1      46.544 -15.881  36.457  0.00  0.00    -0.286 OA
BRANCH  24  26
ATOM     26  C   UNL d   1      46.215 -14.630  37.094  0.00  0.00     0.039 A 
ATOM     27  C   UNL d   1      46.313 -14.457  37.897  0.00  0.00     0.003 A 
ATOM     28  C   UNL d   1      46.530 -13.694  38.121  0.00  0.00     0.000 A 
ATOM     29  C   UNL d   1      46.646 -13.114  37.546  0.00  0.00     0.000 A 
ATOM     30  C   UNL d   1      46.546 -13.297  36.746  0.00  0.00     0.000 A 
ATOM     31  C   UNL d   1      46.329 -14.061  36.522  0.00  0.00     0.003 A 
ENDBRANCH  24  26
ENDBRANCH   1  24
BRANCH  10  32
ATOM     32  C   UNL d   1      41.703 -15.167  36.611  0.00  0.00     0.000 C 
ATOM     33  C   UNL d   1      40.957 -15.452  36.832  0.00  0.00     0.000 C 
ENDBRANCH  10  32
TORSDOF 6
ENDMDL
