MODEL 1
REMARK VINA RESULT:      -3.0      0.000      0.000
REMARK  4 active torsions:
REMARK  status: ('A' for Active; 'I' for Inactive)
REMARK    1  A    between atoms: C_2  and  S_1 
REMARK    2  A    between atoms: C_5  and  S_1 
REMARK    3  A    between atoms: C_7  and  C_5 
REMARK       I    between atoms: N_11  and  C_7 
REMARK    4  A    between atoms: C_14  and  N_11 
ROOT
ATOM      1  S   UNL d   1      32.895  20.446 -22.186  0.00  0.00     0.217 S 
ATOM      2  O   UNL d   1      32.675  20.968 -22.794  0.00  0.00    -0.217 OA
ATOM      3  O   UNL d   1      33.116  19.922 -21.576  0.00  0.00    -0.217 OA
ENDROOT
BRANCH   1   4
ATOM      4  C   UNL d   1      32.556  20.950 -21.626  0.00  0.00     0.109 A 
ATOM      5  C   UNL d   1      32.042  20.727 -21.020  0.00  0.00     0.110 A 
ATOM      6  N   UNL d   1      31.841  21.400 -20.595  0.00  0.00    -0.243 NA
ATOM      7  C   UNL d   1      32.231  22.043 -20.939  0.00  0.00     0.082 A 
ATOM      8  C   UNL d   1      32.670  21.759 -21.573  0.00  0.00     0.030 A 
ATOM      9  C   UNL d   1      32.240  22.847 -20.752  0.00  0.00     0.019 A 
ATOM     10  C   UNL d   1      33.123  22.279 -22.028  0.00  0.00     0.002 A 
ATOM     11  C   UNL d   1      33.133  23.082 -21.842  0.00  0.00     0.000 A 
ATOM     12  C   UNL d   1      32.693  23.362 -21.208  0.00  0.00     0.002 A 
ENDBRANCH   1   4
BRANCH   1  13
ATOM     13  C   UNL d   1      33.241  19.929 -22.749  0.00  0.00     0.161 C 
BRANCH  13  14
ATOM     14  C   UNL d   1      32.959  19.153 -22.813  0.00  0.00     0.291 C 
ATOM     15  N   UNL d   1      32.774  18.855 -23.561  0.00  0.00    -0.207 NA
ATOM     16  O   UNL d   1      32.864  18.685 -22.149  0.00  0.00    -0.264 OA
BRANCH  15  17
ATOM     17  C   UNL d   1      32.492  18.080 -23.630  0.00  0.00     0.085 A 
ATOM     18  C   UNL d   1      31.691  17.934 -23.763  0.00  0.00     0.019 A 
ATOM     19  C   UNL d   1      31.414  17.157 -23.832  0.00  0.00     0.002 A 
ATOM     20  C   UNL d   1      31.939  16.518 -23.766  0.00  0.00     0.000 A 
ATOM     21  C   UNL d   1      32.741  16.669 -23.632  0.00  0.00     0.002 A 
ATOM     22  C   UNL d   1      33.014  17.446 -23.565  0.00  0.00     0.019 A 
ENDBRANCH  15  17
ENDBRANCH  13  14
ENDBRANCH   1  13
TORSDOF 4
ENDMDL
MODEL 2
REMARK VINA RESULT:      -2.1      2.495      3.649
REMARK  4 active torsions:
REMARK  status: ('A' for Active; 'I' for Inactive)
REMARK    1  A    between atoms: C_2  and  S_1 
REMARK    2  A    between atoms: C_5  and  S_1 
REMARK    3  A    between atoms: C_7  and  C_5 
REMARK       I    between atoms: N_11  and  C_7 
REMARK    4  A    between atoms: C_14  and  N_11 
ROOT
ATOM      1  S   UNL d   1      32.415  17.823 -24.577  0.00  0.00     0.217 S 
ATOM      2  O   UNL d   1      31.643  18.023 -24.344  0.00  0.00    -0.217 OA
ATOM      3  O   UNL d   1      33.190  17.624 -24.810  0.00  0.00    -0.217 OA
ENDROOT
BRANCH   1   4
ATOM      4  C   UNL d   1      32.658  18.603 -24.450  0.00  0.00     0.109 A 
ATOM      5  C   UNL d   1      32.780  19.174 -25.032  0.00  0.00     0.110 A 
ATOM      6  N   UNL d   1      33.017  19.869 -24.663  0.00  0.00    -0.243 NA
ATOM      7  C   UNL d   1      33.043  19.727 -23.849  0.00  0.00     0.082 A 
ATOM      8  C   UNL d   1      32.821  18.946 -23.724  0.00  0.00     0.030 A 
ATOM      9  C   UNL d   1      33.241  20.212 -23.210  0.00  0.00     0.019 A 
ATOM     10  C   UNL d   1      32.794  18.641 -22.956  0.00  0.00     0.002 A 
ATOM     11  C   UNL d   1      32.991  19.125 -22.318  0.00  0.00     0.000 A 
ATOM     12  C   UNL d   1      33.213  19.904 -22.447  0.00  0.00     0.002 A 
ENDBRANCH   1   4
BRANCH   1  13
ATOM     13  C   UNL d   1      32.175  17.030 -24.708  0.00  0.00     0.161 C 
BRANCH  13  14
ATOM     14  C   UNL d   1      31.369  16.842 -24.682  0.00  0.00     0.291 C 
ATOM     15  N   UNL d   1      31.124  16.187 -24.244  0.00  0.00    -0.207 NA
ATOM     16  O   UNL d   1      30.819  17.295 -25.084  0.00  0.00    -0.264 OA
BRANCH  15  17
ATOM     17  C   UNL d   1      30.320  15.995 -24.215  0.00  0.00     0.085 A 
ATOM     18  C   UNL d   1      29.944  15.659 -24.869  0.00  0.00     0.019 A 
ATOM     19  C   UNL d   1      29.140  15.469 -24.836  0.00  0.00     0.002 A 
ATOM     20  C   UNL d   1      28.703  15.614 -24.145  0.00  0.00     0.000 A 
ATOM     21  C   UNL d   1      29.084  15.950 -23.492  0.00  0.00     0.002 A 
ATOM     22  C   UNL d   1      29.887  16.139 -23.529  0.00  0.00     0.019 A 
ENDBRANCH  15  17
ENDBRANCH  13  14
ENDBRANCH   1  13
TORSDOF 4
ENDMDL
MODEL 3
REMARK VINA RESULT:      -1.8      2.581      5.327
REMARK  4 active torsions:
REMARK  status: ('A' for Active; 'I' for Inactive)
REMARK    1  A    between atoms: C_2  and  S_1 
REMARK    2  A    between atoms: C_5  and  S_1 
REMARK    3  A    between atoms: C_7  and  C_5 
REMARK       I    between atoms: N_11  and  C_7 
REMARK    4  A    between atoms: C_14  and  N_11 
ROOT
ATOM      1  S   UNL d   1      30.926  17.073 -24.715  0.00  0.00     0.217 S 
ATOM      2  O   UNL d   1      31.175  16.283 -24.657  0.00  0.00    -0.217 OA
ATOM      3  O   UNL d   1      30.676  17.866 -24.773  0.00  0.00    -0.217 OA
ENDROOT
BRANCH   1   4
ATOM      4  C   UNL d   1      30.143  16.839 -24.593  0.00  0.00     0.109 A 
ATOM      5  C   UNL d   1      29.497  17.042 -25.063  0.00  0.00     0.110 A 
ATOM      6  N   UNL d   1      28.827  16.692 -24.743  0.00  0.00    -0.243 NA
ATOM      7  C   UNL d   1      29.059  16.269 -24.071  0.00  0.00     0.082 A 
ATOM      8  C   UNL d   1      29.870  16.364 -23.984  0.00  0.00     0.030 A 
ATOM      9  C   UNL d   1      28.631  15.813 -23.532  0.00  0.00     0.019 A 
ATOM     10  C   UNL d   1      30.264  16.001 -23.355  0.00  0.00     0.002 A 
ATOM     11  C   UNL d   1      29.838  15.545 -22.816  0.00  0.00     0.000 A 
ATOM     12  C   UNL d   1      29.027  15.453 -22.906  0.00  0.00     0.002 A 
ENDBRANCH   1   4
BRANCH   1  13
ATOM     13  C   UNL d   1      31.719  17.318 -24.839  0.00  0.00     0.161 C 
BRANCH  13  14
ATOM     14  C   UNL d   1      31.964  18.055 -24.552  0.00  0.00     0.291 C 
ATOM     15  N   UNL d   1      32.454  18.084 -23.888  0.00  0.00    -0.207 NA
ATOM     16  O   UNL d   1      31.727  18.748 -24.918  0.00  0.00    -0.264 OA
BRANCH  15  17
ATOM     17  C   UNL d   1      32.702  18.819 -23.598  0.00  0.00     0.085 A 
ATOM     18  C   UNL d   1      32.992  19.397 -24.110  0.00  0.00     0.019 A 
ATOM     19  C   UNL d   1      33.239  20.130 -23.816  0.00  0.00     0.002 A 
ATOM     20  C   UNL d   1      33.196  20.290 -23.003  0.00  0.00     0.000 A 
ATOM     21  C   UNL d   1      32.903  19.707 -22.493  0.00  0.00     0.002 A 
ATOM     22  C   UNL d   1      32.659  18.977 -22.792  0.00  0.00     0.019 A 
ENDBRANCH  15  17
ENDBRANCH  13  14
ENDBRANCH   1  13
TORSDOF 4
ENDMDL
MODEL 4
REMARK VINA RESULT:      -1.5      2.088      5.013
REMARK  4 active torsions:
REMARK  status: ('A' for Active; 'I' for Inactive)
REMARK    1  A    between atoms: C_2  and  S_1 
REMARK    2  A    between atoms: C_5  and  S_1 
REMARK    3  A    between atoms: C_7  and  C_5 
REMARK       I    between atoms: N_11  and  C_7 
REMARK    4  A    between atoms: C_14  and  N_11 
ROOT
ATOM      1  S   UNL d   1      31.893  16.925 -24.154  0.00  0.00     0.217 S 
ATOM      2  O   UNL d   1      31.996  16.681 -23.367  0.00  0.00    -0.217 OA
ATOM      3  O   UNL d   1      31.788  17.169 -24.944  0.00  0.00    -0.217 OA
ENDROOT
BRANCH   1   4
ATOM      4  C   UNL d   1      31.184  16.502 -24.195  0.00  0.00     0.109 A 
ATOM      5  C   UNL d   1      31.100  15.686 -24.113  0.00  0.00     0.110 A 
ATOM      6  N   UNL d   1      30.304  15.501 -24.191  0.00  0.00    -0.243 NA
ATOM      7  C   UNL d   1      29.892  16.206 -24.323  0.00  0.00     0.082 A 
ATOM      8  C   UNL d   1      30.440  16.819 -24.324  0.00  0.00     0.030 A 
ATOM      9  C   UNL d   1      29.090  16.363 -24.442  0.00  0.00     0.019 A 
ATOM     10  C   UNL d   1      30.189  17.597 -24.445  0.00  0.00     0.002 A 
ATOM     11  C   UNL d   1      29.389  17.754 -24.563  0.00  0.00     0.000 A 
ATOM     12  C   UNL d   1      28.845  17.140 -24.561  0.00  0.00     0.002 A 
ENDBRANCH   1   4
BRANCH   1  13
ATOM     13  C   UNL d   1      32.612  17.356 -24.120  0.00  0.00     0.161 C 
BRANCH  13  14
ATOM     14  C   UNL d   1      32.700  17.949 -23.549  0.00  0.00     0.291 C 
ATOM     15  N   UNL d   1      32.968  18.694 -23.783  0.00  0.00    -0.207 NA
ATOM     16  O   UNL d   1      32.527  17.804 -22.762  0.00  0.00    -0.264 OA
BRANCH  15  17
ATOM     17  C   UNL d   1      33.059  19.290 -23.216  0.00  0.00     0.085 A 
ATOM     18  C   UNL d   1      33.083  19.106 -22.412  0.00  0.00     0.019 A 
ATOM     19  C   UNL d   1      33.174  19.705 -21.849  0.00  0.00     0.002 A 
ATOM     20  C   UNL d   1      33.240  20.497 -22.088  0.00  0.00     0.000 A 
ATOM     21  C   UNL d   1      33.215  20.678 -22.895  0.00  0.00     0.002 A 
ATOM     22  C   UNL d   1      33.125  20.076 -23.453  0.00  0.00     0.019 A 
ENDBRANCH  15  17
ENDBRANCH  13  14
ENDBRANCH   1  13
TORSDOF 4
ENDMDL
MODEL 5
REMARK VINA RESULT:      -1.2      2.887      4.128
REMARK  4 active torsions:
REMARK  status: ('A' for Active; 'I' for Inactive)
REMARK    1  A    between atoms: C_2  and  S_1 
REMARK    2  A    between atoms: C_5  and  S_1 
REMARK    3  A    between atoms: C_7  and  C_5 
REMARK       I    between atoms: N_11  and  C_7 
REMARK    4  A    between atoms: C_14  and  N_11 
ROOT
ATOM      1  S   UNL d   1      31.712  17.260 -24.322  0.00  0.00     0.217 S 
ATOM      2  O   UNL d   1      32.165  16.662 -23.965  0.00  0.00    -0.217 OA
ATOM      3  O   UNL d   1      31.258  17.861 -24.680  0.00  0.00    -0.217 OA
ENDROOT
BRANCH   1   4
ATOM      4  C   UNL d   1      32.116  17.832 -23.883  0.00  0.00     0.109 A 
ATOM      5  C   UNL d   1      32.241  17.819 -23.068  0.00  0.00     0.110 A 
ATOM      6  N   UNL d   1      32.665  18.492 -22.864  0.00  0.00    -0.243 NA
ATOM      7  C   UNL d   1      32.803  18.925 -23.555  0.00  0.00     0.082 A 
ATOM      8  C   UNL d   1      32.462  18.513 -24.179  0.00  0.00     0.030 A 
ATOM      9  C   UNL d   1      33.195  19.638 -23.691  0.00  0.00     0.019 A 
ATOM     10  C   UNL d   1      32.510  18.812 -24.948  0.00  0.00     0.002 A 
ATOM     11  C   UNL d   1      32.902  19.525 -25.084  0.00  0.00     0.000 A 
ATOM     12  C   UNL d   1      33.241  19.934 -24.458  0.00  0.00     0.002 A 
ENDBRANCH   1   4
BRANCH   1  13
ATOM     13  C   UNL d   1      31.299  16.685 -24.771  0.00  0.00     0.161 C 
BRANCH  13  14
ATOM     14  C   UNL d   1      30.657  16.288 -24.428  0.00  0.00     0.291 C 
ATOM     15  N   UNL d   1      29.950  16.697 -24.310  0.00  0.00    -0.207 NA
ATOM     16  O   UNL d   1      30.719  15.503 -24.207  0.00  0.00    -0.264 OA
BRANCH  15  17
ATOM     17  C   UNL d   1      29.306  16.305 -23.968  0.00  0.00     0.085 A 
ATOM     18  C   UNL d   1      28.802  15.843 -24.428  0.00  0.00     0.019 A 
ATOM     19  C   UNL d   1      28.160  15.453 -24.081  0.00  0.00     0.002 A 
ATOM     20  C   UNL d   1      28.018  15.523 -23.267  0.00  0.00     0.000 A 
ATOM     21  C   UNL d   1      28.526  15.988 -22.809  0.00  0.00     0.002 A 
ATOM     22  C   UNL d   1      29.166  16.375 -23.159  0.00  0.00     0.019 A 
ENDBRANCH  15  17
ENDBRANCH  13  14
ENDBRANCH   1  13
TORSDOF 4
ENDMDL
