MODEL 1
REMARK VINA RESULT:      -3.2      0.000      0.000
REMARK  4 active torsions:
REMARK  status: ('A' for Active; 'I' for Inactive)
REMARK    1  A    between atoms: N_3  and  S_1 
REMARK    2  A    between atoms: C_4  and  S_1 
REMARK    3  A    between atoms: C_13  and  N_3 
REMARK    4  A    between atoms: C_16  and  N_3 
ROOT
ATOM      1  S   UNL d   1      31.597  16.855 -24.171  0.00  0.00     0.271 S 
ATOM      2  O   UNL d   1      32.008  16.524 -23.538  0.00  0.00    -0.200 OA
ATOM      3  O   UNL d   1      31.991  17.327 -24.716  0.00  0.00    -0.200 OA
ENDROOT
BRANCH   1   4
ATOM      4  N   UNL d   1      32.403  17.001 -24.091  0.00  0.00    -0.231 N 
BRANCH   4   5
ATOM      5  C   UNL d   1      32.666  17.730 -23.778  0.00  0.00     0.075 A 
ATOM      6  C   UNL d   1      32.702  18.392 -24.262  0.00  0.00     0.018 A 
ATOM      7  C   UNL d   1      32.962  19.110 -23.953  0.00  0.00     0.002 A 
ATOM      8  C   UNL d   1      33.186  19.167 -23.161  0.00  0.00     0.000 A 
ATOM      9  C   UNL d   1      33.151  18.507 -22.678  0.00  0.00     0.002 A 
ATOM     10  C   UNL d   1      32.890  17.783 -22.984  0.00  0.00     0.018 A 
ENDBRANCH   4   5
BRANCH   4  11
ATOM     11  C   UNL d   1      32.948  16.432 -24.319  0.00  0.00     0.092 C 
ATOM     12  C   UNL d   1      33.241  16.418 -25.089  0.00  0.00     0.021 C 
ENDBRANCH   4  11
ENDBRANCH   1   4
BRANCH   1  13
ATOM     13  C   UNL d   1      30.792  16.715 -24.258  0.00  0.00     0.106 A 
ATOM     14  C   UNL d   1      30.386  16.288 -23.684  0.00  0.00     0.034 A 
ATOM     15  C   UNL d   1      29.574  16.144 -23.768  0.00  0.00     0.105 A 
ATOM     16  N   UNL d   1      29.027  15.743 -23.294  0.00  0.00    -0.189 NA
ATOM     17  C   UNL d   1      29.170  16.433 -24.436  0.00  0.00     0.104 A 
ATOM     18  C   UNL d   1      28.283  15.781 -23.667  0.00  0.00     0.369 A 
ATOM     19  O   UNL d   1      27.581  15.453 -23.385  0.00  0.00    -0.242 OA
ATOM     20  N   UNL d   1      28.377  16.207 -24.370  0.00  0.00    -0.189 NA
ATOM     21  C   UNL d   1      29.583  16.863 -25.013  0.00  0.00     0.021 A 
ATOM     22  C   UNL d   1      30.392  17.000 -24.919  0.00  0.00     0.015 A 
ENDBRANCH   1  13
TORSDOF 4
ENDMDL
MODEL 2
REMARK VINA RESULT:      -2.7      1.907      4.233
REMARK  4 active torsions:
REMARK  status: ('A' for Active; 'I' for Inactive)
REMARK    1  A    between atoms: N_3  and  S_1 
REMARK    2  A    between atoms: C_4  and  S_1 
REMARK    3  A    between atoms: C_13  and  N_3 
REMARK    4  A    between atoms: C_16  and  N_3 
ROOT
ATOM      1  S   UNL d   1      32.601  17.998 -23.811  0.00  0.00     0.271 S 
ATOM      2  O   UNL d   1      32.707  17.846 -24.614  0.00  0.00    -0.200 OA
ATOM      3  O   UNL d   1      32.325  17.406 -23.312  0.00  0.00    -0.200 OA
ENDROOT
BRANCH   1   4
ATOM      4  N   UNL d   1      32.428  17.251 -24.106  0.00  0.00    -0.231 N 
BRANCH   4   5
ATOM      5  C   UNL d   1      31.633  17.021 -24.221  0.00  0.00     0.075 A 
ATOM      6  C   UNL d   1      31.231  16.631 -23.622  0.00  0.00     0.018 A 
ATOM      7  C   UNL d   1      30.447  16.405 -23.735  0.00  0.00     0.002 A 
ATOM      8  C   UNL d   1      30.064  16.568 -24.448  0.00  0.00     0.000 A 
ATOM      9  C   UNL d   1      30.465  16.956 -25.047  0.00  0.00     0.002 A 
ATOM     10  C   UNL d   1      31.253  17.186 -24.938  0.00  0.00     0.018 A 
ENDBRANCH   4   5
BRANCH   4  11
ATOM     11  C   UNL d   1      33.035  16.730 -24.289  0.00  0.00     0.092 C 
ATOM     12  C   UNL d   1      33.163  16.059 -23.827  0.00  0.00     0.021 C 
ENDBRANCH   4  11
ENDBRANCH   1   4
BRANCH   1  13
ATOM     13  C   UNL d   1      32.772  18.743 -23.507  0.00  0.00     0.106 A 
ATOM     14  C   UNL d   1      32.679  18.889 -22.704  0.00  0.00     0.034 A 
ATOM     15  C   UNL d   1      32.850  19.639 -22.394  0.00  0.00     0.105 A 
ATOM     16  N   UNL d   1      32.812  19.947 -21.627  0.00  0.00    -0.189 NA
ATOM     17  C   UNL d   1      33.117  20.244 -22.899  0.00  0.00     0.104 A 
ATOM     18  C   UNL d   1      33.055  20.744 -21.655  0.00  0.00     0.369 A 
ATOM     19  O   UNL d   1      33.100  21.260 -21.013  0.00  0.00    -0.242 OA
ATOM     20  N   UNL d   1      33.241  20.921 -22.441  0.00  0.00    -0.189 NA
ATOM     21  C   UNL d   1      33.209  20.093 -23.710  0.00  0.00     0.021 A 
ATOM     22  C   UNL d   1      33.036  19.342 -24.008  0.00  0.00     0.015 A 
ENDBRANCH   1  13
TORSDOF 4
ENDMDL
MODEL 3
REMARK VINA RESULT:      -2.5      1.451      3.983
REMARK  4 active torsions:
REMARK  status: ('A' for Active; 'I' for Inactive)
REMARK    1  A    between atoms: N_3  and  S_1 
REMARK    2  A    between atoms: C_4  and  S_1 
REMARK    3  A    between atoms: C_13  and  N_3 
REMARK    4  A    between atoms: C_16  and  N_3 
ROOT
ATOM      1  S   UNL d   1      31.908  17.154 -24.276  0.00  0.00     0.271 S 
ATOM      2  O   UNL d   1      31.737  17.043 -25.074  0.00  0.00    -0.200 OA
ATOM      3  O   UNL d   1      31.735  16.564 -23.731  0.00  0.00    -0.200 OA
ENDROOT
BRANCH   1   4
ATOM      4  N   UNL d   1      31.563  16.449 -24.521  0.00  0.00    -0.231 N 
BRANCH   4   5
ATOM      5  C   UNL d   1      30.748  16.317 -24.393  0.00  0.00     0.075 A 
ATOM      6  C   UNL d   1      30.491  16.019 -23.674  0.00  0.00     0.018 A 
ATOM      7  C   UNL d   1      29.687  15.889 -23.548  0.00  0.00     0.002 A 
ATOM      8  C   UNL d   1      29.140  16.056 -24.142  0.00  0.00     0.000 A 
ATOM      9  C   UNL d   1      29.396  16.353 -24.861  0.00  0.00     0.002 A 
ATOM     10  C   UNL d   1      30.202  16.486 -24.992  0.00  0.00     0.018 A 
ENDBRANCH   4   5
BRANCH   4  11
ATOM     11  C   UNL d   1      32.018  15.875 -24.890  0.00  0.00     0.092 C 
ATOM     12  C   UNL d   1      32.595  15.464 -24.468  0.00  0.00     0.021 C 
ENDBRANCH   4  11
ENDBRANCH   1   4
BRANCH   1  13
ATOM     13  C   UNL d   1      32.253  17.857 -24.023  0.00  0.00     0.106 A 
ATOM     14  C   UNL d   1      32.231  18.060 -23.227  0.00  0.00     0.034 A 
ATOM     15  C   UNL d   1      32.577  18.768 -22.968  0.00  0.00     0.105 A 
ATOM     16  N   UNL d   1      32.642  19.115 -22.221  0.00  0.00    -0.189 NA
ATOM     17  C   UNL d   1      32.949  19.271 -23.517  0.00  0.00     0.104 A 
ATOM     18  C   UNL d   1      33.054  19.836 -22.303  0.00  0.00     0.369 A 
ATOM     19  O   UNL d   1      33.241  20.360 -21.696  0.00  0.00    -0.242 OA
ATOM     20  N   UNL d   1      33.240  19.926 -23.105  0.00  0.00    -0.189 NA
ATOM     21  C   UNL d   1      32.970  19.062 -24.320  0.00  0.00     0.021 A 
ATOM     22  C   UNL d   1      32.621  18.355 -24.567  0.00  0.00     0.015 A 
ENDBRANCH   1  13
TORSDOF 4
ENDMDL
MODEL 4
REMARK VINA RESULT:      -2.3      2.546      4.583
REMARK  4 active torsions:
REMARK  status: ('A' for Active; 'I' for Inactive)
REMARK    1  A    between atoms: N_3  and  S_1 
REMARK    2  A    between atoms: C_4  and  S_1 
REMARK    3  A    between atoms: C_13  and  N_3 
REMARK    4  A    between atoms: C_16  and  N_3 
ROOT
ATOM      1  S   UNL d   1      32.784  18.831 -23.181  0.00  0.00     0.271 S 
ATOM      2  O   UNL d   1      33.197  18.117 -23.174  0.00  0.00    -0.200 OA
ATOM      3  O   UNL d   1      32.331  19.039 -23.834  0.00  0.00    -0.200 OA
ENDROOT
BRANCH   1   4
ATOM      4  N   UNL d   1      32.738  18.331 -23.832  0.00  0.00    -0.231 N 
BRANCH   4   5
ATOM      5  C   UNL d   1      32.177  17.711 -23.843  0.00  0.00     0.075 A 
ATOM      6  C   UNL d   1      32.397  16.959 -23.603  0.00  0.00     0.018 A 
ATOM      7  C   UNL d   1      31.844  16.348 -23.614  0.00  0.00     0.002 A 
ATOM      8  C   UNL d   1      31.071  16.489 -23.866  0.00  0.00     0.000 A 
ATOM      9  C   UNL d   1      30.851  17.240 -24.106  0.00  0.00     0.002 A 
ATOM     10  C   UNL d   1      31.403  17.858 -24.096  0.00  0.00     0.018 A 
ENDBRANCH   4   5
BRANCH   4  11
ATOM     11  C   UNL d   1      33.241  18.439 -24.470  0.00  0.00     0.092 C 
ATOM     12  C   UNL d   1      33.024  18.933 -25.094  0.00  0.00     0.021 C 
ENDBRANCH   4  11
ENDBRANCH   1   4
BRANCH   1  13
ATOM     13  C   UNL d   1      32.826  19.337 -22.533  0.00  0.00     0.106 A 
ATOM     14  C   UNL d   1      32.497  20.089 -22.580  0.00  0.00     0.034 A 
ATOM     15  C   UNL d   1      32.536  20.602 -21.930  0.00  0.00     0.105 A 
ATOM     16  N   UNL d   1      32.263  21.373 -21.811  0.00  0.00    -0.189 NA
ATOM     17  C   UNL d   1      32.910  20.353 -21.229  0.00  0.00     0.104 A 
ATOM     18  C   UNL d   1      32.467  21.605 -21.037  0.00  0.00     0.369 A 
ATOM     19  O   UNL d   1      32.301  22.334 -20.689  0.00  0.00    -0.242 OA
ATOM     20  N   UNL d   1      32.865  20.972 -20.683  0.00  0.00    -0.189 NA
ATOM     21  C   UNL d   1      33.241  19.593 -21.186  0.00  0.00     0.021 A 
ATOM     22  C   UNL d   1      33.196  19.090 -21.840  0.00  0.00     0.015 A 
ENDBRANCH   1  13
TORSDOF 4
ENDMDL
MODEL 5
REMARK VINA RESULT:      -1.5      2.209      4.551
REMARK  4 active torsions:
REMARK  status: ('A' for Active; 'I' for Inactive)
REMARK    1  A    between atoms: N_3  and  S_1 
REMARK    2  A    between atoms: C_4  and  S_1 
REMARK    3  A    between atoms: C_13  and  N_3 
REMARK    4  A    between atoms: C_16  and  N_3 
ROOT
ATOM      1  S   UNL d   1      32.562  18.504 -23.670  0.00  0.00     0.271 S 
ATOM      2  O   UNL d   1      32.692  17.771 -23.318  0.00  0.00    -0.200 OA
ATOM      3  O   UNL d   1      32.263  18.547 -24.435  0.00  0.00    -0.200 OA
ENDROOT
BRANCH   1   4
ATOM      4  N   UNL d   1      32.390  17.818 -24.090  0.00  0.00    -0.231 N 
BRANCH   4   5
ATOM      5  C   UNL d   1      31.599  17.638 -24.290  0.00  0.00     0.075 A 
ATOM      6  C   UNL d   1      31.204  17.041 -23.891  0.00  0.00     0.018 A 
ATOM      7  C   UNL d   1      30.424  16.863 -24.089  0.00  0.00     0.002 A 
ATOM      8  C   UNL d   1      30.039  17.284 -24.686  0.00  0.00     0.000 A 
ATOM      9  C   UNL d   1      30.433  17.880 -25.085  0.00  0.00     0.002 A 
ATOM     10  C   UNL d   1      31.217  18.062 -24.889  0.00  0.00     0.018 A 
ENDBRANCH   4   5
BRANCH   4  11
ATOM     11  C   UNL d   1      32.995  17.310 -24.312  0.00  0.00     0.092 C 
ATOM     12  C   UNL d   1      33.241  17.271 -25.097  0.00  0.00     0.021 C 
ENDBRANCH   4  11
ENDBRANCH   1   4
BRANCH   1  13
ATOM     13  C   UNL d   1      32.731  19.196 -23.258  0.00  0.00     0.106 A 
ATOM     14  C   UNL d   1      32.733  19.917 -23.651  0.00  0.00     0.034 A 
ATOM     15  C   UNL d   1      32.903  20.616 -23.239  0.00  0.00     0.105 A 
ATOM     16  N   UNL d   1      32.946  21.407 -23.477  0.00  0.00    -0.189 NA
ATOM     17  C   UNL d   1      33.072  20.585 -22.425  0.00  0.00     0.104 A 
ATOM     18  C   UNL d   1      33.142  21.869 -22.811  0.00  0.00     0.369 A 
ATOM     19  O   UNL d   1      33.241  22.687 -22.800  0.00  0.00    -0.242 OA
ATOM     20  N   UNL d   1      33.218  21.356 -22.166  0.00  0.00    -0.189 NA
ATOM     21  C   UNL d   1      33.069  19.854 -22.031  0.00  0.00     0.021 A 
ATOM     22  C   UNL d   1      32.899  19.165 -22.452  0.00  0.00     0.015 A 
ENDBRANCH   1  13
TORSDOF 4
ENDMDL
MODEL 6
REMARK VINA RESULT:      -1.4      1.099      1.590
REMARK  4 active torsions:
REMARK  status: ('A' for Active; 'I' for Inactive)
REMARK    1  A    between atoms: N_3  and  S_1 
REMARK    2  A    between atoms: C_4  and  S_1 
REMARK    3  A    between atoms: C_13  and  N_3 
REMARK    4  A    between atoms: C_16  and  N_3 
ROOT
ATOM      1  S   UNL d   1      32.186  17.975 -24.042  0.00  0.00     0.271 S 
ATOM      2  O   UNL d   1      32.921  17.766 -23.735  0.00  0.00    -0.200 OA
ATOM      3  O   UNL d   1      32.017  18.761 -24.209  0.00  0.00    -0.200 OA
ENDROOT
BRANCH   1   4
ATOM      4  N   UNL d   1      32.747  18.560 -23.905  0.00  0.00    -0.231 N 
BRANCH   4   5
ATOM      5  C   UNL d   1      32.816  18.903 -23.146  0.00  0.00     0.075 A 
ATOM      6  C   UNL d   1      32.525  19.658 -23.013  0.00  0.00     0.018 A 
ATOM      7  C   UNL d   1      32.593  19.997 -22.265  0.00  0.00     0.002 A 
ATOM      8  C   UNL d   1      32.951  19.580 -21.649  0.00  0.00     0.000 A 
ATOM      9  C   UNL d   1      33.241  18.825 -21.781  0.00  0.00     0.002 A 
ATOM     10  C   UNL d   1      33.175  18.481 -22.532  0.00  0.00     0.018 A 
ENDBRANCH   4   5
BRANCH   4  11
ATOM     11  C   UNL d   1      33.240  18.807 -24.512  0.00  0.00     0.092 C 
ATOM     12  C   UNL d   1      32.959  19.316 -25.097  0.00  0.00     0.021 C 
ENDBRANCH   4  11
ENDBRANCH   1   4
BRANCH   1  13
ATOM     13  C   UNL d   1      31.619  17.395 -24.182  0.00  0.00     0.106 A 
ATOM     14  C   UNL d   1      30.829  17.546 -24.010  0.00  0.00     0.034 A 
ATOM     15  C   UNL d   1      30.255  16.964 -24.150  0.00  0.00     0.105 A 
ATOM     16  N   UNL d   1      29.436  16.952 -24.037  0.00  0.00    -0.189 NA
ATOM     17  C   UNL d   1      30.480  16.228 -24.465  0.00  0.00     0.104 A 
ATOM     18  C   UNL d   1      29.150  16.207 -24.281  0.00  0.00     0.369 A 
ATOM     19  O   UNL d   1      28.365  15.959 -24.263  0.00  0.00    -0.242 OA
ATOM     20  N   UNL d   1      29.799  15.766 -24.544  0.00  0.00    -0.189 NA
ATOM     21  C   UNL d   1      31.278  16.080 -24.637  0.00  0.00     0.021 A 
ATOM     22  C   UNL d   1      31.842  16.666 -24.494  0.00  0.00     0.015 A 
ENDBRANCH   1  13
TORSDOF 4
ENDMDL
MODEL 7
REMARK VINA RESULT:      -0.6      1.496      4.092
REMARK  4 active torsions:
REMARK  status: ('A' for Active; 'I' for Inactive)
REMARK    1  A    between atoms: N_3  and  S_1 
REMARK    2  A    between atoms: C_4  and  S_1 
REMARK    3  A    between atoms: C_13  and  N_3 
REMARK    4  A    between atoms: C_16  and  N_3 
ROOT
ATOM      1  S   UNL d   1      30.647  17.038 -24.193  0.00  0.00     0.271 S 
ATOM      2  O   UNL d   1      30.211  17.288 -24.846  0.00  0.00    -0.200 OA
ATOM      3  O   UNL d   1      30.421  16.365 -23.780  0.00  0.00    -0.200 OA
ENDROOT
BRANCH   1   4
ATOM      4  N   UNL d   1      29.986  16.609 -24.425  0.00  0.00    -0.231 N 
BRANCH   4   5
ATOM      5  C   UNL d   1      29.273  16.675 -23.994  0.00  0.00     0.075 A 
ATOM      6  C   UNL d   1      28.737  17.267 -24.182  0.00  0.00     0.018 A 
ATOM      7  C   UNL d   1      28.034  17.332 -23.757  0.00  0.00     0.002 A 
ATOM      8  C   UNL d   1      27.867  16.806 -23.143  0.00  0.00     0.000 A 
ATOM      9  C   UNL d   1      28.402  16.215 -22.955  0.00  0.00     0.002 A 
ATOM     10  C   UNL d   1      29.109  16.145 -23.380  0.00  0.00     0.018 A 
ENDBRANCH   4   5
BRANCH   4  11
ATOM     11  C   UNL d   1      30.023  16.116 -25.080  0.00  0.00     0.092 C 
ATOM     12  C   UNL d   1      30.543  15.476 -25.092  0.00  0.00     0.021 C 
ENDBRANCH   4  11
ENDBRANCH   1   4
BRANCH   1  13
ATOM     13  C   UNL d   1      31.311  17.461 -23.955  0.00  0.00     0.106 A 
ATOM     14  C   UNL d   1      31.283  18.282 -23.921  0.00  0.00     0.034 A 
ATOM     15  C   UNL d   1      31.950  18.712 -23.681  0.00  0.00     0.105 A 
ATOM     16  N   UNL d   1      32.088  19.523 -23.593  0.00  0.00    -0.189 NA
ATOM     17  C   UNL d   1      32.648  18.310 -23.474  0.00  0.00     0.104 A 
ATOM     18  C   UNL d   1      32.873  19.626 -23.331  0.00  0.00     0.369 A 
ATOM     19  O   UNL d   1      33.240  20.347 -23.174  0.00  0.00    -0.242 OA
ATOM     20  N   UNL d   1      33.213  18.875 -23.260  0.00  0.00    -0.189 NA
ATOM     21  C   UNL d   1      32.673  17.482 -23.510  0.00  0.00     0.021 A 
ATOM     22  C   UNL d   1      32.003  17.063 -23.750  0.00  0.00     0.015 A 
ENDBRANCH   1  13
TORSDOF 4
ENDMDL
