MODEL 1
REMARK VINA RESULT:      -6.4      0.000      0.000
REMARK  6 active torsions:
REMARK  status: ('A' for Active; 'I' for Inactive)
REMARK    1  A    between atoms: C_2  and  S_1 
REMARK    2  A    between atoms: N_4  and  S_1 
REMARK    3  A    between atoms: C_12  and  N_4 
REMARK    4  A    between atoms: O_14  and  C_6 
REMARK    5  A    between atoms: C_13  and  C_12 
REMARK    6  A    between atoms: C_18  and  O_14 
ROOT
ATOM      1  C   UNL d   1     -48.671  12.584  23.076  0.00  0.00     0.107 A 
ATOM      2  C   UNL d   1     -48.939  13.356  23.204  0.00  0.00     0.038 A 
ATOM      3  C   UNL d   1     -49.198  11.953  23.121  0.00  0.00     0.012 A 
ATOM      4  C   UNL d   1     -49.741  13.494  23.379  0.00  0.00     0.101 A 
ATOM      5  C   UNL d   1     -50.000  12.091  23.296  0.00  0.00     0.003 A 
ATOM      6  C   UNL d   1     -50.269  12.858  23.424  0.00  0.00     0.023 A 
ATOM      7  C   UNL d   1     -48.930  11.177  22.993  0.00  0.00     0.001 C 
ATOM      8  C   UNL d   1     -51.064  12.995  23.598  0.00  0.00     0.002 C 
ENDROOT
BRANCH   1   9
ATOM      9  S   UNL d   1     -47.876  12.447  22.902  0.00  0.00     0.285 S 
ATOM     10  O   UNL d   1     -48.016  12.635  22.112  0.00  0.00    -0.198 OA
ATOM     11  O   UNL d   1     -47.735  12.257  23.698  0.00  0.00    -0.198 OA
BRANCH   9  12
ATOM     12  N   UNL d   1     -47.081  12.311  22.729  0.00  0.00    -0.155 NA
BRANCH  12  13
ATOM     13  C   UNL d   1     -46.518  12.895  22.888  0.00  0.00     0.131 C 
BRANCH  13  14
ATOM     14  C   UNL d   1     -45.744  12.805  22.618  0.00  0.00     0.101 A 
ATOM     15  N   UNL d   1     -45.287  12.170  22.877  0.00  0.00    -0.242 NA
ATOM     16  C   UNL d   1     -44.513  12.080  22.607  0.00  0.00     0.099 A 
ATOM     17  C   UNL d   1     -44.195  12.624  22.078  0.00  0.00     0.021 A 
ATOM     18  C   UNL d   1     -44.651  13.263  21.816  0.00  0.00     0.003 A 
ATOM     19  C   UNL d   1     -45.425  13.353  22.086  0.00  0.00     0.021 A 
ENDBRANCH  13  14
ENDBRANCH  12  13
ENDBRANCH   9  12
ENDBRANCH   1   9
BRANCH   4  20
ATOM     20  O   UNL d   1     -50.010  14.262  23.507  0.00  0.00    -0.305 OA
BRANCH  20  21
ATOM     21  C   UNL d   1     -49.640  14.893  23.130  0.00  0.00     0.123 C 
ATOM     22  C   UNL d   1     -49.775  15.663  23.391  0.00  0.00     0.029 C 
ENDBRANCH  20  21
ENDBRANCH   4  20
TORSDOF 6
ENDMDL
MODEL 2
REMARK VINA RESULT:      -4.8      9.345     10.137
REMARK  6 active torsions:
REMARK  status: ('A' for Active; 'I' for Inactive)
REMARK    1  A    between atoms: C_2  and  S_1 
REMARK    2  A    between atoms: N_4  and  S_1 
REMARK    3  A    between atoms: C_12  and  N_4 
REMARK    4  A    between atoms: O_14  and  C_6 
REMARK    5  A    between atoms: C_13  and  C_12 
REMARK    6  A    between atoms: C_18  and  O_14 
ROOT
ATOM      1  C   UNL d   1     -38.929  14.302  18.547  0.00  0.00     0.107 A 
ATOM      2  C   UNL d   1     -39.451  14.794  18.135  0.00  0.00     0.038 A 
ATOM      3  C   UNL d   1     -38.475  13.751  18.137  0.00  0.00     0.012 A 
ATOM      4  C   UNL d   1     -39.517  14.731  17.307  0.00  0.00     0.101 A 
ATOM      5  C   UNL d   1     -38.541  13.688  17.309  0.00  0.00     0.003 A 
ATOM      6  C   UNL d   1     -39.060  14.176  16.898  0.00  0.00     0.023 A 
ATOM      7  C   UNL d   1     -37.950  13.256  18.549  0.00  0.00     0.001 C 
ATOM      8  C   UNL d   1     -39.126  14.113  16.078  0.00  0.00     0.002 C 
ENDROOT
BRANCH   1   9
ATOM      9  S   UNL d   1     -38.864  14.365  19.367  0.00  0.00     0.285 S 
ATOM     10  O   UNL d   1     -39.490  13.837  19.457  0.00  0.00    -0.198 OA
ATOM     11  O   UNL d   1     -38.233  14.897  19.276  0.00  0.00    -0.198 OA
BRANCH   9  12
ATOM     12  N   UNL d   1     -38.798  14.428  20.187  0.00  0.00    -0.155 NA
BRANCH  12  13
ATOM     13  C   UNL d   1     -39.362  14.857  20.613  0.00  0.00     0.131 C 
BRANCH  13  14
ATOM     14  C   UNL d   1     -39.244  15.006  21.416  0.00  0.00     0.101 A 
ATOM     15  N   UNL d   1     -39.038  14.390  21.924  0.00  0.00    -0.242 NA
ATOM     16  C   UNL d   1     -38.921  14.539  22.727  0.00  0.00     0.099 A 
ATOM     17  C   UNL d   1     -39.009  15.303  23.022  0.00  0.00     0.021 A 
ATOM     18  C   UNL d   1     -39.215  15.922  22.515  0.00  0.00     0.003 A 
ATOM     19  C   UNL d   1     -39.333  15.773  21.712  0.00  0.00     0.021 A 
ENDBRANCH  13  14
ENDBRANCH  12  13
ENDBRANCH   9  12
ENDBRANCH   1   9
BRANCH   4  20
ATOM     20  O   UNL d   1     -40.037  15.220  16.896  0.00  0.00    -0.305 OA
BRANCH  20  21
ATOM     21  C   UNL d   1     -40.806  15.323  17.170  0.00  0.00     0.123 C 
ATOM     22  C   UNL d   1     -41.293  15.891  16.823  0.00  0.00     0.029 C 
ENDBRANCH  20  21
ENDBRANCH   4  20
TORSDOF 6
ENDMDL
MODEL 3
REMARK VINA RESULT:      -4.6      8.645      9.587
REMARK  6 active torsions:
REMARK  status: ('A' for Active; 'I' for Inactive)
REMARK    1  A    between atoms: C_2  and  S_1 
REMARK    2  A    between atoms: N_4  and  S_1 
REMARK    3  A    between atoms: C_12  and  N_4 
REMARK    4  A    between atoms: O_14  and  C_6 
REMARK    5  A    between atoms: C_13  and  C_12 
REMARK    6  A    between atoms: C_18  and  O_14 
ROOT
ATOM      1  C   UNL d   1     -40.012  14.745  19.404  0.00  0.00     0.107 A 
ATOM      2  C   UNL d   1     -39.709  14.169  18.894  0.00  0.00     0.038 A 
ATOM      3  C   UNL d   1     -40.495  15.342  19.108  0.00  0.00     0.012 A 
ATOM      4  C   UNL d   1     -39.892  14.194  18.082  0.00  0.00     0.101 A 
ATOM      5  C   UNL d   1     -40.679  15.368  18.296  0.00  0.00     0.003 A 
ATOM      6  C   UNL d   1     -40.378  14.795  17.787  0.00  0.00     0.023 A 
ATOM      7  C   UNL d   1     -40.801  15.922  19.619  0.00  0.00     0.001 C 
ATOM      8  C   UNL d   1     -40.559  14.820  16.982  0.00  0.00     0.002 C 
ENDROOT
BRANCH   1   9
ATOM      9  S   UNL d   1     -39.831  14.720  20.209  0.00  0.00     0.285 S 
ATOM     10  O   UNL d   1     -39.173  15.199  20.075  0.00  0.00    -0.198 OA
ATOM     11  O   UNL d   1     -40.492  14.238  20.343  0.00  0.00    -0.198 OA
BRANCH   9  12
ATOM     12  N   UNL d   1     -39.649  14.695  21.013  0.00  0.00    -0.155 NA
BRANCH  12  13
ATOM     13  C   UNL d   1     -38.987  14.272  21.273  0.00  0.00     0.131 C 
BRANCH  13  14
ATOM     14  C   UNL d   1     -38.855  14.172  22.081  0.00  0.00     0.101 A 
ATOM     15  N   UNL d   1     -38.788  14.829  22.573  0.00  0.00    -0.242 NA
ATOM     16  C   UNL d   1     -38.656  14.729  23.381  0.00  0.00     0.099 A 
ATOM     17  C   UNL d   1     -38.592  13.971  23.697  0.00  0.00     0.021 A 
ATOM     18  C   UNL d   1     -38.659  13.309  23.206  0.00  0.00     0.003 A 
ATOM     19  C   UNL d   1     -38.791  13.410  22.397  0.00  0.00     0.021 A 
ENDBRANCH  13  14
ENDBRANCH  12  13
ENDBRANCH   9  12
ENDBRANCH   1   9
BRANCH   4  20
ATOM     20  O   UNL d   1     -39.591  13.621  17.572  0.00  0.00    -0.305 OA
BRANCH  20  21
ATOM     21  C   UNL d   1     -38.846  13.300  17.712  0.00  0.00     0.123 C 
ATOM     22  C   UNL d   1     -38.577  12.671  17.252  0.00  0.00     0.029 C 
ENDBRANCH  20  21
ENDBRANCH   4  20
TORSDOF 6
ENDMDL
MODEL 4
REMARK VINA RESULT:      -3.9      9.186      9.858
REMARK  6 active torsions:
REMARK  status: ('A' for Active; 'I' for Inactive)
REMARK    1  A    between atoms: C_2  and  S_1 
REMARK    2  A    between atoms: N_4  and  S_1 
REMARK    3  A    between atoms: C_12  and  N_4 
REMARK    4  A    between atoms: O_14  and  C_6 
REMARK    5  A    between atoms: C_13  and  C_12 
REMARK    6  A    between atoms: C_18  and  O_14 
ROOT
ATOM      1  C   UNL d   1     -38.819  14.280  20.496  0.00  0.00     0.107 A 
ATOM      2  C   UNL d   1     -39.070  14.637  21.199  0.00  0.00     0.038 A 
ATOM      3  C   UNL d   1     -38.284  13.655  20.521  0.00  0.00     0.012 A 
ATOM      4  C   UNL d   1     -38.781  14.363  21.931  0.00  0.00     0.101 A 
ATOM      5  C   UNL d   1     -37.995  13.381  21.253  0.00  0.00     0.003 A 
ATOM      6  C   UNL d   1     -38.244  13.734  21.953  0.00  0.00     0.023 A 
ATOM      7  C   UNL d   1     -38.030  13.295  19.816  0.00  0.00     0.001 C 
ATOM      8  C   UNL d   1     -37.958  13.463  22.678  0.00  0.00     0.002 C 
ENDROOT
BRANCH   1   9
ATOM      9  S   UNL d   1     -39.104  14.551  19.771  0.00  0.00     0.285 S 
ATOM     10  O   UNL d   1     -39.859  14.286  19.970  0.00  0.00    -0.198 OA
ATOM     11  O   UNL d   1     -38.344  14.818  19.571  0.00  0.00    -0.198 OA
BRANCH   9  12
ATOM     12  N   UNL d   1     -39.390  14.823  19.046  0.00  0.00    -0.155 NA
BRANCH  12  13
ATOM     13  C   UNL d   1     -40.158  14.630  18.808  0.00  0.00     0.131 C 
BRANCH  13  14
ATOM     14  C   UNL d   1     -40.464  14.947  18.110  0.00  0.00     0.101 A 
ATOM     15  N   UNL d   1     -40.958  15.605  18.137  0.00  0.00    -0.242 NA
ATOM     16  C   UNL d   1     -41.263  15.922  17.439  0.00  0.00     0.099 A 
ATOM     17  C   UNL d   1     -41.075  15.580  16.714  0.00  0.00     0.021 A 
ATOM     18  C   UNL d   1     -40.579  14.918  16.685  0.00  0.00     0.003 A 
ATOM     19  C   UNL d   1     -40.273  14.602  17.383  0.00  0.00     0.021 A 
ENDBRANCH  13  14
ENDBRANCH  12  13
ENDBRANCH   9  12
ENDBRANCH   1   9
BRANCH   4  20
ATOM     20  O   UNL d   1     -39.031  14.717  22.632  0.00  0.00    -0.305 OA
BRANCH  20  21
ATOM     21  C   UNL d   1     -38.940  15.529  22.735  0.00  0.00     0.123 C 
ATOM     22  C   UNL d   1     -38.858  15.838  23.494  0.00  0.00     0.029 C 
ENDBRANCH  20  21
ENDBRANCH   4  20
TORSDOF 6
ENDMDL
MODEL 5
REMARK VINA RESULT:      -3.9      8.149     10.064
REMARK  6 active torsions:
REMARK  status: ('A' for Active; 'I' for Inactive)
REMARK    1  A    between atoms: C_2  and  S_1 
REMARK    2  A    between atoms: N_4  and  S_1 
REMARK    3  A    between atoms: C_12  and  N_4 
REMARK    4  A    between atoms: O_14  and  C_6 
REMARK    5  A    between atoms: C_13  and  C_12 
REMARK    6  A    between atoms: C_18  and  O_14 
ROOT
ATOM      1  C   UNL d   1     -38.911  14.258  19.887  0.00  0.00     0.107 A 
ATOM      2  C   UNL d   1     -39.531  14.750  20.127  0.00  0.00     0.038 A 
ATOM      3  C   UNL d   1     -38.562  13.743  20.425  0.00  0.00     0.012 A 
ATOM      4  C   UNL d   1     -39.802  14.723  20.915  0.00  0.00     0.101 A 
ATOM      5  C   UNL d   1     -38.833  13.715  21.213  0.00  0.00     0.003 A 
ATOM      6  C   UNL d   1     -39.450  14.204  21.455  0.00  0.00     0.023 A 
ATOM      7  C   UNL d   1     -37.939  13.248  20.185  0.00  0.00     0.001 C 
ATOM      8  C   UNL d   1     -39.718  14.176  22.234  0.00  0.00     0.002 C 
ENDROOT
BRANCH   1   9
ATOM      9  S   UNL d   1     -38.643  14.286  19.107  0.00  0.00     0.285 S 
ATOM     10  O   UNL d   1     -38.122  14.892  19.307  0.00  0.00    -0.198 OA
ATOM     11  O   UNL d   1     -39.167  13.675  18.905  0.00  0.00    -0.198 OA
BRANCH   9  12
ATOM     12  N   UNL d   1     -38.375  14.313  18.327  0.00  0.00    -0.155 NA
BRANCH  12  13
ATOM     13  C   UNL d   1     -38.916  14.398  17.708  0.00  0.00     0.131 C 
BRANCH  13  14
ATOM     14  C   UNL d   1     -38.645  14.512  16.937  0.00  0.00     0.101 A 
ATOM     15  N   UNL d   1     -38.555  15.275  16.639  0.00  0.00    -0.242 NA
ATOM     16  C   UNL d   1     -38.284  15.388  15.868  0.00  0.00     0.099 A 
ATOM     17  C   UNL d   1     -38.102  14.739  15.396  0.00  0.00     0.021 A 
ATOM     18  C   UNL d   1     -38.191  13.972  15.692  0.00  0.00     0.003 A 
ATOM     19  C   UNL d   1     -38.462  13.858  16.463  0.00  0.00     0.021 A 
ENDBRANCH  13  14
ENDBRANCH  12  13
ENDBRANCH   9  12
ENDBRANCH   1   9
BRANCH   4  20
ATOM     20  O   UNL d   1     -40.419  15.212  21.156  0.00  0.00    -0.305 OA
BRANCH  20  21
ATOM     21  C   UNL d   1     -41.058  15.343  20.654  0.00  0.00     0.123 C 
ATOM     22  C   UNL d   1     -41.614  15.922  20.841  0.00  0.00     0.029 C 
ENDBRANCH  20  21
ENDBRANCH   4  20
TORSDOF 6
ENDMDL
