MODEL 1
REMARK VINA RESULT:      -4.2      0.000      0.000
REMARK  6 active torsions:
REMARK  status: ('A' for Active; 'I' for Inactive)
REMARK    1  A    between atoms: C_12  and  N_1 
REMARK    2  A    between atoms: S_10  and  C_2 
REMARK    3  A    between atoms: C_5  and  N_7 
REMARK       I    between atoms: N_7  and  C_11 
REMARK    4  A    between atoms: C_16  and  S_10 
REMARK    5  A    between atoms: C_11  and  C_16 
REMARK    6  A    between atoms: C_17  and  C_12 
ROOT
ATOM      1  N   UNL d   1      59.312  -0.872  29.108  0.00  0.00    -0.303 N 
ATOM      2  C   UNL d   1      58.760  -0.206  30.124  0.00  0.00     0.049 A 
ATOM      3  C   UNL d   1      58.624  -0.769  29.522  0.00  0.00     0.087 A 
ATOM      4  C   UNL d   1      59.551   0.025  30.058  0.00  0.00     0.024 A 
ATOM      5  C   UNL d   1      59.892  -0.387  29.430  0.00  0.00     0.065 A 
ATOM      6  C   UNL d   1      59.998   0.558  30.493  0.00  0.00     0.002 A 
ATOM      7  C   UNL d   1      60.681  -0.266  29.237  0.00  0.00     0.018 A 
ATOM      8  C   UNL d   1      60.792   0.682  30.301  0.00  0.00     0.000 A 
ATOM      9  C   UNL d   1      61.133   0.270  29.673  0.00  0.00     0.002 A 
ENDROOT
BRANCH   2  10
ATOM     10  S   UNL d   1      58.217   0.069  30.677  0.00  0.00    -0.080 SA
BRANCH  10  11
ATOM     11  C   UNL d   1      57.604  -0.424  30.943  0.00  0.00     0.098 C 
BRANCH  11  12
ATOM     12  C   UNL d   1      57.078  -0.173  31.522  0.00  0.00     0.288 C 
ATOM     13  N   UNL d   1      56.751  -0.705  32.062  0.00  0.00    -0.182 NA
ATOM     14  O   UNL d   1      56.879   0.619  31.562  0.00  0.00    -0.265 OA
BRANCH  13  15
ATOM     15  C   UNL d   1      56.226  -0.442  32.639  0.00  0.00     0.197 A 
ATOM     16  N   UNL d   1      56.129   0.297  32.993  0.00  0.00    -0.219 NA
ATOM     17  C   UNL d   1      55.509   0.233  33.540  0.00  0.00     0.108 A 
ATOM     18  C   UNL d   1      55.233  -0.542  33.514  0.00  0.00     0.059 A 
ATOM     19  S   UNL d   1      55.677  -0.959  32.957  0.00  0.00    -0.046 SA
ENDBRANCH  13  15
ENDBRANCH  11  12
ENDBRANCH  10  11
ENDBRANCH   2  10
BRANCH   1  20
ATOM     20  C   UNL d   1      59.414  -1.391  28.456  0.00  0.00     0.080 C 
BRANCH  20  21
ATOM     21  C   UNL d   1      59.311  -2.200  28.549  0.00  0.00     0.018 A 
ATOM     22  C   UNL d   1      58.563  -2.541  28.475  0.00  0.00     0.002 A 
ATOM     23  C   UNL d   1      58.463  -3.353  28.569  0.00  0.00     0.000 A 
ATOM     24  C   UNL d   1      59.105  -3.831  28.737  0.00  0.00     0.000 A 
ATOM     25  C   UNL d   1      59.867  -3.494  28.815  0.00  0.00     0.000 A 
ATOM     26  C   UNL d   1      59.961  -2.677  28.719  0.00  0.00     0.002 A 
ENDBRANCH  20  21
ENDBRANCH   1  20
TORSDOF 6
ENDMDL
