MODEL 1
REMARK VINA RESULT:      68.4      0.000      0.000
REMARK  3 active torsions:
REMARK  status: ('A' for Active; 'I' for Inactive)
REMARK    1  A    between atoms: C_8  and  C_1 
REMARK    2  A    between atoms: C_3  and  N_14 
REMARK       I    between atoms: N_13  and  C_8 
REMARK    3  A    between atoms: N_14  and  N_13 
ROOT
ATOM      1  C   UNL d   1      60.680  49.249  51.279  0.00  0.00     0.320 C 
ATOM      2  N   UNL d   1      59.994  49.543  50.943  0.00  0.00    -0.102 NA
ATOM      3  O   UNL d   1      61.234  49.566  51.815  0.00  0.00    -0.261 OA
ENDROOT
BRANCH   1   4
ATOM      4  C   UNL d   1      60.869  48.485  51.044  0.00  0.00     0.162 A 
ATOM      5  C   UNL d   1      60.536  47.848  51.437  0.00  0.00     0.072 A 
ATOM      6  C   UNL d   1      60.721  47.078  51.206  0.00  0.00     0.200 A 
ATOM      7  O   UNL d   1      60.380  46.425  51.609  0.00  0.00    -0.286 OA
ATOM      8  C   UNL d   1      61.245  46.947  50.577  0.00  0.00     0.062 A 
ATOM      9  C   UNL d   1      61.576  47.587  50.187  0.00  0.00     0.103 A 
ATOM     10  C   UNL d   1      61.431  46.177  50.346  0.00  0.00     0.005 A 
ATOM     11  O   UNL d   1      61.387  48.351  50.422  0.00  0.00    -0.302 OA
ATOM     12  C   UNL d   1      62.094  47.465  49.565  0.00  0.00     0.025 A 
ATOM     13  C   UNL d   1      62.284  46.698  49.328  0.00  0.00     0.002 A 
ATOM     14  C   UNL d   1      61.948  46.055  49.725  0.00  0.00     0.000 A 
ENDBRANCH   1   4
BRANCH   2  15
ATOM     15  N   UNL d   1      59.567  49.075  50.421  0.00  0.00    -0.118 NA
BRANCH  15  16
ATOM     16  C   UNL d   1      58.754  49.215  50.302  0.00  0.00     0.215 A 
ATOM     17  N   UNL d   1      58.197  49.358  50.886  0.00  0.00    -0.219 NA
ATOM     18  C   UNL d   1      57.464  49.467  50.535  0.00  0.00     0.090 A 
ATOM     19  C   UNL d   1      56.718  49.625  50.838  0.00  0.00     0.018 A 
ATOM     20  C   UNL d   1      57.572  49.389  49.714  0.00  0.00     0.050 A 
ATOM     21  C   UNL d   1      56.074  49.706  50.327  0.00  0.00     0.002 A 
ATOM     22  C   UNL d   1      56.613  49.702  51.658  0.00  0.00     0.002 C 
ATOM     23  C   UNL d   1      56.183  49.628  49.515  0.00  0.00     0.001 A 
ATOM     24  C   UNL d   1      56.935  49.468  49.195  0.00  0.00     0.008 A 
ATOM     25  S   UNL d   1      58.368  49.234  49.576  0.00  0.00    -0.045 SA
ENDBRANCH  15  16
ENDBRANCH   2  15
TORSDOF 3
ENDMDL
