MODEL 1
REMARK VINA RESULT:      87.5      0.000      0.000
REMARK  3 active torsions:
REMARK  status: ('A' for Active; 'I' for Inactive)
REMARK    1  A    between atoms: N_3  and  S_1 
REMARK    2  A    between atoms: C_5  and  S_1 
REMARK       I    between atoms: C_2  and  N_4 
REMARK       I    between atoms: N_6  and  C_2 
REMARK    3  A    between atoms: C_13  and  N_6 
ROOT
ATOM      1  C   UNL d   1      40.838 -17.165  36.637  0.00  0.00     0.339 C 
ATOM      2  N   UNL d   1      43.033 -15.995  36.685  0.00  0.00    -0.226 N 
ATOM      3  N   UNL d   1      41.566 -16.777  36.653  0.00  0.00    -0.254 N 
ATOM      4  N   UNL d   1      40.160 -16.792  36.923  0.00  0.00    -0.257 N 
ATOM      5  C   UNL d   1      42.355 -15.613  36.975  0.00  0.00     0.111 A 
ATOM      6  C   UNL d   1      42.976 -16.762  36.383  0.00  0.00     0.111 A 
ATOM      7  O   UNL d   1      40.797 -17.935  36.331  0.00  0.00    -0.245 OA
ATOM      8  C   UNL d   1      41.623 -16.003  36.959  0.00  0.00     0.104 A 
ATOM      9  C   UNL d   1      42.248 -17.150  36.367  0.00  0.00     0.104 A 
ATOM     10  C   UNL d   1      40.207 -16.031  37.225  0.00  0.00     0.104 C 
ENDROOT
BRANCH   2  11
ATOM     11  S   UNL d   1      43.757 -15.609  36.701  0.00  0.00     0.271 S 
ATOM     12  O   UNL d   1      43.408 -14.957  36.335  0.00  0.00    -0.200 OA
ATOM     13  O   UNL d   1      44.091 -16.269  37.066  0.00  0.00    -0.200 OA
BRANCH  11  14
ATOM     14  C   UNL d   1      44.484 -15.222  36.717  0.00  0.00     0.104 A 
ATOM     15  C   UNL d   1      44.558 -14.516  37.126  0.00  0.00     0.013 A 
ATOM     16  C   UNL d   1      45.275 -14.134  37.141  0.00  0.00     0.001 A 
ATOM     17  C   UNL d   1      45.355 -13.423  37.550  0.00  0.00     0.000 C 
ATOM     18  C   UNL d   1      45.918 -14.446  36.755  0.00  0.00     0.000 A 
ATOM     19  C   UNL d   1      45.837 -15.156  36.346  0.00  0.00     0.001 A 
ATOM     20  C   UNL d   1      46.646 -14.058  36.771  0.00  0.00     0.000 C 
ATOM     21  C   UNL d   1      45.121 -15.538  36.330  0.00  0.00     0.013 A 
ENDBRANCH  11  14
ENDBRANCH   2  11
BRANCH   4  22
ATOM     22  C   UNL d   1      39.430 -17.193  36.902  0.00  0.00     0.068 A 
ATOM     23  C   UNL d   1      38.832 -16.955  36.384  0.00  0.00     0.018 A 
ATOM     24  C   UNL d   1      38.114 -17.362  36.375  0.00  0.00     0.002 A 
ATOM     25  C   UNL d   1      37.993 -18.003  36.878  0.00  0.00     0.000 A 
ATOM     26  C   UNL d   1      38.600 -18.239  37.399  0.00  0.00     0.002 A 
ATOM     27  C   UNL d   1      37.274 -18.408  36.866  0.00  0.00     0.000 C 
ATOM     28  C   UNL d   1      39.316 -17.829  37.405  0.00  0.00     0.018 A 
ENDBRANCH   4  22
TORSDOF 3
ENDMDL
