MODEL 1
REMARK VINA RESULT:      20.7      0.000      0.000
REMARK  4 active torsions:
REMARK  status: ('A' for Active; 'I' for Inactive)
REMARK    1  A    between atoms: N_2  and  C_1 
REMARK    2  A    between atoms: C_9  and  C_3 
REMARK    3  A    between atoms: O_15  and  C_9 
REMARK    4  A    between atoms: C_18  and  O_15 
ROOT
ATOM      1  C   UNL d   1      44.789 -13.456  44.178  0.00  0.00     0.105 A 
ATOM      2  C   UNL d   1      44.985 -14.232  44.379  0.00  0.00     0.086 A 
ATOM      3  S   UNL d   1      43.996 -13.355  44.365  0.00  0.00    -0.069 SA
ATOM      4  C   UNL d   1      44.317 -14.597  44.684  0.00  0.00     0.013 A 
ATOM      5  C   UNL d   1      43.705 -14.059  44.677  0.00  0.00     0.031 A 
ATOM      6  C   UNL d   1      44.261 -15.374  44.955  0.00  0.00     0.001 C 
ATOM      7  C   UNL d   1      42.933 -14.193  44.935  0.00  0.00     0.007 C 
ENDROOT
BRANCH   1   8
ATOM      8  N   UNL d   1      45.326 -12.919  43.853  0.00  0.00    -0.236 N 
ATOM      9  C   UNL d   1      46.008 -12.584  44.166  0.00  0.00     0.268 A 
ATOM     10  C   UNL d   1      46.326 -12.081  43.588  0.00  0.00     0.066 A 
ATOM     11  O   UNL d   1      46.326 -12.722  44.928  0.00  0.00    -0.267 OA
ATOM     12  C   UNL d   1      45.836 -12.118  42.933  0.00  0.00     0.066 A 
ATOM     13  C   UNL d   1      45.224 -12.629  43.094  0.00  0.00     0.268 A 
ATOM     14  O   UNL d   1      44.617 -12.819  42.588  0.00  0.00    -0.267 OA
ENDBRANCH   1   8
BRANCH   2  15
ATOM     15  C   UNL d   1      45.736 -14.584  44.286  0.00  0.00     0.302 C 
ATOM     16  O   UNL d   1      46.402 -14.239  44.651  0.00  0.00    -0.259 OA
BRANCH  15  17
ATOM     17  O   UNL d   1      45.811 -15.258  43.841  0.00  0.00    -0.271 OA
BRANCH  17  18
ATOM     18  C   UNL d   1      46.281 -15.887  44.122  0.00  0.00     0.126 C 
ATOM     19  C   UNL d   1      46.320 -16.596  43.698  0.00  0.00     0.029 C 
ENDBRANCH  17  18
ENDBRANCH  15  17
ENDBRANCH   2  15
TORSDOF 4
ENDMDL
MODEL 2
REMARK VINA RESULT:      22.4      1.072      2.366
REMARK  4 active torsions:
REMARK  status: ('A' for Active; 'I' for Inactive)
REMARK    1  A    between atoms: N_2  and  C_1 
REMARK    2  A    between atoms: C_9  and  C_3 
REMARK    3  A    between atoms: O_15  and  C_9 
REMARK    4  A    between atoms: C_18  and  O_15 
ROOT
ATOM      1  C   UNL d   1      45.646 -14.187  44.045  0.00  0.00     0.105 A 
ATOM      2  C   UNL d   1      45.042 -14.541  44.483  0.00  0.00     0.086 A 
ATOM      3  S   UNL d   1      46.182 -14.779  43.857  0.00  0.00    -0.069 SA
ATOM      4  C   UNL d   1      45.212 -15.340  44.559  0.00  0.00     0.013 A 
ATOM      5  C   UNL d   1      45.915 -15.490  44.174  0.00  0.00     0.031 A 
ATOM      6  C   UNL d   1      44.758 -15.904  44.955  0.00  0.00     0.001 C 
ATOM      7  C   UNL d   1      46.291 -16.222  44.113  0.00  0.00     0.007 C 
ENDROOT
BRANCH   1   8
ATOM      8  N   UNL d   1      45.662 -13.383  43.857  0.00  0.00    -0.236 N 
ATOM      9  C   UNL d   1      45.283 -12.963  43.260  0.00  0.00     0.268 A 
ATOM     10  C   UNL d   1      45.505 -12.167  43.338  0.00  0.00     0.066 A 
ATOM     11  O   UNL d   1      44.768 -13.276  42.680  0.00  0.00    -0.267 OA
ATOM     12  C   UNL d   1      46.013 -12.114  43.977  0.00  0.00     0.066 A 
ATOM     13  C   UNL d   1      46.110 -12.857  44.296  0.00  0.00     0.268 A 
ATOM     14  O   UNL d   1      46.572 -13.043  44.938  0.00  0.00    -0.267 OA
ENDBRANCH   1   8
BRANCH   2  15
ATOM     15  C   UNL d   1      44.374 -14.151  44.794  0.00  0.00     0.302 C 
ATOM     16  O   UNL d   1      44.410 -13.332  44.952  0.00  0.00    -0.259 OA
BRANCH  15  17
ATOM     17  O   UNL d   1      43.696 -14.571  44.939  0.00  0.00    -0.271 OA
BRANCH  17  18
ATOM     18  C   UNL d   1      42.954 -14.207  44.830  0.00  0.00     0.126 C 
ATOM     19  C   UNL d   1      42.259 -14.639  44.953  0.00  0.00     0.029 C 
ENDBRANCH  17  18
ENDBRANCH  15  17
ENDBRANCH   2  15
TORSDOF 4
ENDMDL
