MODEL 1
REMARK VINA RESULT:      89.5      0.000      0.000
REMARK  7 active torsions:
REMARK  status: ('A' for Active; 'I' for Inactive)
REMARK    1  A    between atoms: C_10  and  C_4 
REMARK    2  A    between atoms: N_12  and  C_5 
REMARK    3  A    between atoms: C_11  and  C_8 
REMARK    4  A    between atoms: C_21  and  N_12 
REMARK    5  A    between atoms: N_16  and  C_25 
REMARK    6  A    between atoms: C_20  and  C_21 
REMARK    7  A    between atoms: C_25  and  C_20 
ROOT
ATOM      1  C   UNL d   1     -56.751 -99.625 -43.613  0.00  0.00     0.168 A 
ATOM      2  N   UNL d   1     -56.382 -99.725 -42.872  0.00  0.00    -0.184 N 
ATOM      3  N   UNL d   1     -56.446-100.002 -44.267  0.00  0.00    -0.231 NA
ATOM      4  C   UNL d   1     -57.406 -99.158 -43.676  0.00  0.00     0.057 A 
ATOM      5  C   UNL d   1     -55.726-100.196 -42.820  0.00  0.00     0.217 A 
ATOM      6  N   UNL d   1     -57.338 -98.886 -42.288  0.00  0.00    -0.160 NA
ATOM      7  C   UNL d   1     -55.415-100.576 -43.472  0.00  0.00     0.067 A 
ATOM      8  C   UNL d   1     -55.783-100.477 -44.210  0.00  0.00     0.064 A 
ATOM      9  C   UNL d   1     -57.699 -98.789 -43.014  0.00  0.00     0.124 A 
ENDROOT
BRANCH   4  10
ATOM     10  C   UNL d   1     -57.767 -99.061 -44.402  0.00  0.00     0.005 A 
ATOM     11  C   UNL d   1     -57.331 -98.863 -45.058  0.00  0.00     0.001 A 
ATOM     12  C   UNL d   1     -57.696 -98.765 -45.791  0.00  0.00     0.011 A 
ATOM     13  C   UNL d   1     -58.493 -98.865 -45.860  0.00  0.00     0.058 A 
ATOM     14  C   UNL d   1     -58.934 -99.065 -45.192  0.00  0.00     0.011 A 
ATOM     15 CL   UNL d   1     -58.868 -98.764 -46.612  0.00  0.00    -0.082 Cl
ATOM     16  C   UNL d   1     -58.579 -99.161 -44.477  0.00  0.00     0.001 A 
ENDBRANCH   4  10
BRANCH   5  17
ATOM     17  N   UNL d   1     -55.349-100.298 -42.063  0.00  0.00    -0.380 NA
BRANCH  17  18
ATOM     18  C   UNL d   1     -54.916-100.421 -41.348  0.00  0.00     0.164 C 
BRANCH  18  19
ATOM     19  C   UNL d   1     -54.725-101.210 -41.117  0.00  0.00     0.054 C 
BRANCH  19  20
ATOM     20  C   UNL d   1     -55.035-101.516 -40.378  0.00  0.00     0.083 C 
BRANCH  20  21
ATOM     21  N   UNL d   1     -55.477-102.235 -40.374  0.00  0.00    -0.300 N 
ATOM     22  C   UNL d   1     -54.802-102.681 -40.112  0.00  0.00     0.100 C 
ATOM     23  C   UNL d   1     -56.207-102.643 -40.503  0.00  0.00     0.100 C 
ENDBRANCH  20  21
ENDBRANCH  19  20
ENDBRANCH  18  19
ENDBRANCH  17  18
ENDBRANCH   5  17
BRANCH   8  24
ATOM     24  C   UNL d   1     -55.468-100.868 -44.899  0.00  0.00     0.036 C 
ATOM     25  C   UNL d   1     -55.160-101.259 -45.583  0.00  0.00     0.006 C 
ATOM     26  C   UNL d   1     -54.735-100.599 -45.244  0.00  0.00     0.006 C 
ATOM     27  C   UNL d   1     -55.892-101.528 -45.239  0.00  0.00     0.006 C 
ENDBRANCH   8  24
TORSDOF 7
ENDMDL
