MODEL 1
REMARK VINA RESULT:       6.6      0.000      0.000
REMARK  0 active torsions:
REMARK  status: ('A' for Active; 'I' for Inactive)
ROOT
ATOM      1  C   UNL d   1      56.647  49.660  49.626  0.00  0.00     0.221 A 
ATOM      2  N   UNL d   1      57.444  49.642  49.838  0.00  0.00    -0.217 NA
ATOM      3  N   UNL d   1      56.058  49.692  50.206  0.00  0.00    -0.216 NA
ATOM      4  S   UNL d   1      56.404  49.646  48.838  0.00  0.00    -0.037 SA
ATOM      5  C   UNL d   1      57.659  49.657  50.633  0.00  0.00     0.085 A 
ATOM      6  C   UNL d   1      56.280  49.707  51.006  0.00  0.00     0.103 A 
ATOM      7  C   UNL d   1      57.077  49.690  51.218  0.00  0.00     0.040 A 
ATOM      8  C   UNL d   1      58.461  49.639  50.825  0.00  0.00     0.021 C 
ENDROOT
TORSDOF 0
ENDMDL
MODEL 2
REMARK VINA RESULT:       8.4      2.492      3.267
REMARK  0 active torsions:
REMARK  status: ('A' for Active; 'I' for Inactive)
ROOT
ATOM      1  C   UNL d   1      59.219  49.708  50.816  0.00  0.00     0.221 A 
ATOM      2  N   UNL d   1      59.652  49.708  51.518  0.00  0.00    -0.217 NA
ATOM      3  N   UNL d   1      59.605  49.708  50.084  0.00  0.00    -0.216 NA
ATOM      4  S   UNL d   1      58.395  49.708  50.811  0.00  0.00    -0.037 SA
ATOM      5  C   UNL d   1      60.476  49.708  51.493  0.00  0.00     0.085 A 
ATOM      6  C   UNL d   1      60.435  49.708  50.065  0.00  0.00     0.103 A 
ATOM      7  C   UNL d   1      60.868  49.708  50.767  0.00  0.00     0.040 A 
ATOM      8  C   UNL d   1      60.891  49.708  52.206  0.00  0.00     0.021 C 
ENDROOT
TORSDOF 0
ENDMDL
MODEL 3
REMARK VINA RESULT:       9.0      2.942      3.706
REMARK  0 active torsions:
REMARK  status: ('A' for Active; 'I' for Inactive)
ROOT
ATOM      1  C   UNL d   1      60.633  49.702  51.263  0.00  0.00     0.221 A 
ATOM      2  N   UNL d   1      59.829  49.703  51.449  0.00  0.00    -0.217 NA
ATOM      3  N   UNL d   1      60.881  49.702  50.474  0.00  0.00    -0.216 NA
ATOM      4  S   UNL d   1      61.216  49.702  51.845  0.00  0.00    -0.037 SA
ATOM      5  C   UNL d   1      59.267  49.703  50.848  0.00  0.00     0.085 A 
ATOM      6  C   UNL d   1      60.310  49.702  49.871  0.00  0.00     0.103 A 
ATOM      7  C   UNL d   1      59.506  49.703  50.057  0.00  0.00     0.040 A 
ATOM      8  C   UNL d   1      58.468  49.704  51.054  0.00  0.00     0.021 C 
ENDROOT
TORSDOF 0
ENDMDL
