MODEL 1
REMARK VINA RESULT:      61.7      0.000      0.000
REMARK  4 active torsions:
REMARK  status: ('A' for Active; 'I' for Inactive)
REMARK    1  A    between atoms: N_10  and  C_3 
REMARK    2  A    between atoms: C_12  and  C_5 
REMARK    3  A    between atoms: C_20  and  N_11 
REMARK    4  A    between atoms: C_24  and  C_20 
ROOT
ATOM      1  N   UNL d   1      14.064  14.148  -2.951  0.00  0.00    -0.196 N 
ATOM      2  C   UNL d   1      14.127  13.522  -2.410  0.00  0.00     0.167 A 
ATOM      3  C   UNL d   1      13.709  14.011  -3.679  0.00  0.00     0.152 A 
ATOM      4  N   UNL d   1      14.703  15.002  -2.031  0.00  0.00    -0.163 NA
ATOM      5  C   UNL d   1      14.473  13.635  -1.687  0.00  0.00     0.055 A 
ATOM      6  N   UNL d   1      13.833  12.774  -2.608  0.00  0.00    -0.227 NA
ATOM      7  C   UNL d   1      13.418  13.275  -3.877  0.00  0.00     0.052 A 
ATOM      8  C   UNL d   1      14.765  14.380  -1.492  0.00  0.00     0.104 A 
ATOM      9  C   UNL d   1      13.480  12.653  -3.339  0.00  0.00     0.086 A 
ATOM     10  C   UNL d   1      13.064  13.159  -4.617  0.00  0.00     0.004 A 
ATOM     11  C   UNL d   1      15.112  14.506  -0.775  0.00  0.00     0.023 C 
ATOM     12  C   UNL d   1      13.189  11.908  -3.534  0.00  0.00     0.019 A 
ATOM     13  C   UNL d   1      12.769  12.401  -4.812  0.00  0.00     0.000 A 
ATOM     14  C   UNL d   1      12.831  11.779  -4.273  0.00  0.00     0.002 A 
ENDROOT
BRANCH   3  15
ATOM     15  N   UNL d   1      13.644  14.644  -4.232  0.00  0.00    -0.286 N 
ATOM     16  C   UNL d   1      14.378  14.872  -4.601  0.00  0.00     0.101 A 
ATOM     17  C   UNL d   1      14.393  15.504  -5.170  0.00  0.00     0.100 A 
ATOM     18  N   UNL d   1      13.673  15.910  -5.373  0.00  0.00    -0.297 N 
ATOM     19  C   UNL d   1      12.950  15.683  -5.008  0.00  0.00     0.100 A 
ATOM     20  C   UNL d   1      12.937  15.049  -4.436  0.00  0.00     0.101 A 
BRANCH  18  21
ATOM     21  C   UNL d   1      13.688  16.538  -5.939  0.00  0.00     0.126 C 
BRANCH  21  22
ATOM     22  C   UNL d   1      13.841  17.338  -5.703  0.00  0.00     0.253 C 
ATOM     23  O   UNL d   1      13.803  17.970  -6.257  0.00  0.00    -0.281 OA
ENDBRANCH  21  22
ENDBRANCH  18  21
ENDBRANCH   3  15
BRANCH   5  24
ATOM     24  C   UNL d   1      14.535  13.013  -1.149  0.00  0.00     0.004 A 
ATOM     25  C   UNL d   1      15.156  12.491  -1.211  0.00  0.00     0.000 A 
ATOM     26  C   UNL d   1      15.218  11.869  -0.673  0.00  0.00     0.000 A 
ATOM     27  C   UNL d   1      14.658  11.779  -0.081  0.00  0.00     0.000 A 
ATOM     28  C   UNL d   1      14.036  12.311  -0.026  0.00  0.00     0.000 A 
ATOM     29  C   UNL d   1      13.974  12.933  -0.565  0.00  0.00     0.000 A 
ENDBRANCH   5  24
TORSDOF 4
ENDMDL
MODEL 2
REMARK VINA RESULT:      61.7      1.547      3.890
REMARK  4 active torsions:
REMARK  status: ('A' for Active; 'I' for Inactive)
REMARK    1  A    between atoms: N_10  and  C_3 
REMARK    2  A    between atoms: C_12  and  C_5 
REMARK    3  A    between atoms: C_20  and  N_11 
REMARK    4  A    between atoms: C_24  and  C_20 
ROOT
ATOM      1  N   UNL d   1      14.189  14.223  -2.597  0.00  0.00    -0.196 N 
ATOM      2  C   UNL d   1      13.954  13.577  -3.063  0.00  0.00     0.167 A 
ATOM      3  C   UNL d   1      14.529  14.082  -1.863  0.00  0.00     0.152 A 
ATOM      4  N   UNL d   1      13.740  15.104  -3.600  0.00  0.00    -0.163 NA
ATOM      5  C   UNL d   1      13.617  13.694  -3.789  0.00  0.00     0.055 A 
ATOM      6  N   UNL d   1      14.066  12.806  -2.784  0.00  0.00    -0.227 NA
ATOM      7  C   UNL d   1      14.640  13.322  -1.586  0.00  0.00     0.052 A 
ATOM      8  C   UNL d   1      13.507  14.462  -4.064  0.00  0.00     0.104 A 
ATOM      9  C   UNL d   1      14.407  12.681  -2.049  0.00  0.00     0.086 A 
ATOM     10  C   UNL d   1      14.986  13.203  -0.843  0.00  0.00     0.004 A 
ATOM     11  C   UNL d   1      13.172  14.593  -4.786  0.00  0.00     0.023 C 
ATOM     12  C   UNL d   1      14.517  11.912  -1.774  0.00  0.00     0.019 A 
ATOM     13  C   UNL d   1      15.096  12.421  -0.567  0.00  0.00     0.000 A 
ATOM     14  C   UNL d   1      14.863  11.779  -1.030  0.00  0.00     0.002 A 
ENDROOT
BRANCH   3  15
ATOM     15  N   UNL d   1      14.769  14.735  -1.386  0.00  0.00    -0.286 N 
ATOM     16  C   UNL d   1      14.818  15.479  -1.800  0.00  0.00     0.101 A 
ATOM     17  C   UNL d   1      15.053  16.184  -1.387  0.00  0.00     0.100 A 
ATOM     18  N   UNL d   1      15.239  16.148  -0.557  0.00  0.00    -0.297 N 
ATOM     19  C   UNL d   1      15.190  15.413  -0.151  0.00  0.00     0.100 A 
ATOM     20  C   UNL d   1      14.954  14.705  -0.568  0.00  0.00     0.101 A 
BRANCH  18  21
ATOM     21  C   UNL d   1      15.473  16.848  -0.146  0.00  0.00     0.126 C 
BRANCH  21  22
ATOM     22  C   UNL d   1      15.760  17.528  -0.565  0.00  0.00     0.253 C 
ATOM     23  O   UNL d   1      15.381  18.276  -0.493  0.00  0.00    -0.281 OA
ENDBRANCH  21  22
ENDBRANCH  18  21
ENDBRANCH   3  15
BRANCH   5  24
ATOM     24  C   UNL d   1      13.384  13.053  -4.252  0.00  0.00     0.004 A 
ATOM     25  C   UNL d   1      13.541  13.058  -5.051  0.00  0.00     0.000 A 
ATOM     26  C   UNL d   1      13.308  12.417  -5.514  0.00  0.00     0.000 A 
ATOM     27  C   UNL d   1      12.922  11.779  -5.172  0.00  0.00     0.000 A 
ATOM     28  C   UNL d   1      12.769  11.783  -4.366  0.00  0.00     0.000 A 
ATOM     29  C   UNL d   1      13.002  12.425  -3.903  0.00  0.00     0.000 A 
ENDBRANCH   5  24
TORSDOF 4
ENDMDL
