MODEL 1
REMARK VINA RESULT:       9.3      0.000      0.000
REMARK  4 active torsions:
REMARK  status: ('A' for Active; 'I' for Inactive)
REMARK    1  A    between atoms: C_2  and  S_1 
REMARK    2  A    between atoms: N_5  and  S_1 
REMARK    3  A    between atoms: C_10  and  N_5 
REMARK    4  A    between atoms: C_11  and  C_10 
ROOT
ATOM      1  S   UNL d   1      46.309 -17.739  43.924  0.00  0.00     0.291 S 
ATOM      2  O   UNL d   1      46.381 -17.598  43.115  0.00  0.00    -0.198 OA
ATOM      3  O   UNL d   1      46.237 -17.884  44.733  0.00  0.00    -0.198 OA
ENDROOT
BRANCH   1   4
ATOM      4  C   UNL d   1      46.347 -18.553  43.790  0.00  0.00     0.135 A 
ATOM      5  S   UNL d   1      46.356 -18.926  43.063  0.00  0.00    -0.074 SA
ATOM      6  C   UNL d   1      46.398 -19.739  43.188  0.00  0.00     0.030 A 
ATOM      7  C   UNL d   1      46.420 -20.328  42.607  0.00  0.00     0.007 C 
ATOM      8  C   UNL d   1      46.414 -19.867  44.003  0.00  0.00     0.008 A 
ATOM      9  C   UNL d   1      46.383 -19.135  44.376  0.00  0.00     0.020 A 
ENDBRANCH   1   4
BRANCH   1  10
ATOM     10  N   UNL d   1      46.270 -16.936  44.069  0.00  0.00    -0.156 NA
BRANCH  10  11
ATOM     11  C   UNL d   1      45.667 -16.631  44.540  0.00  0.00     0.112 C 
BRANCH  11  12
ATOM     12  C   UNL d   1      45.596 -15.815  44.642  0.00  0.00     0.020 A 
ATOM     13  C   UNL d   1      46.257 -15.326  44.530  0.00  0.00     0.002 A 
ATOM     14  C   UNL d   1      46.186 -14.510  44.631  0.00  0.00     0.000 A 
ATOM     15  C   UNL d   1      45.452 -14.184  44.845  0.00  0.00     0.000 A 
ATOM     16  C   UNL d   1      44.798 -14.676  44.955  0.00  0.00     0.000 A 
ATOM     17  C   UNL d   1      45.380 -13.369  44.947  0.00  0.00     0.000 C 
ATOM     18  C   UNL d   1      44.870 -15.492  44.853  0.00  0.00     0.002 A 
ENDBRANCH  11  12
ENDBRANCH  10  11
ENDBRANCH   1  10
TORSDOF 4
ENDMDL
MODEL 2
REMARK VINA RESULT:       9.4      1.311      4.477
REMARK  4 active torsions:
REMARK  status: ('A' for Active; 'I' for Inactive)
REMARK    1  A    between atoms: C_2  and  S_1 
REMARK    2  A    between atoms: N_5  and  S_1 
REMARK    3  A    between atoms: C_10  and  N_5 
REMARK    4  A    between atoms: C_11  and  C_10 
ROOT
ATOM      1  S   UNL d   1      45.663 -15.993  44.671  0.00  0.00     0.291 S 
ATOM      2  O   UNL d   1      46.417 -15.812  44.388  0.00  0.00    -0.198 OA
ATOM      3  O   UNL d   1      44.909 -16.169  44.954  0.00  0.00    -0.198 OA
ENDROOT
BRANCH   1   4
ATOM      4  C   UNL d   1      45.496 -15.188  44.750  0.00  0.00     0.135 A 
ATOM      5  S   UNL d   1      46.027 -14.571  44.669  0.00  0.00    -0.074 SA
ATOM      6  C   UNL d   1      45.624 -13.864  44.794  0.00  0.00     0.030 A 
ATOM      7  C   UNL d   1      45.943 -13.101  44.766  0.00  0.00     0.007 C 
ATOM      8  C   UNL d   1      44.835 -14.048  44.954  0.00  0.00     0.008 A 
ATOM      9  C   UNL d   1      44.755 -14.866  44.927  0.00  0.00     0.020 A 
ENDBRANCH   1   4
BRANCH   1  10
ATOM     10  N   UNL d   1      45.817 -16.791  44.597  0.00  0.00    -0.156 NA
BRANCH  10  11
ATOM     11  C   UNL d   1      46.106 -17.091  43.886  0.00  0.00     0.112 C 
BRANCH  11  12
ATOM     12  C   UNL d   1      46.241 -17.901  43.804  0.00  0.00     0.020 A 
ATOM     13  C   UNL d   1      46.353 -18.371  44.479  0.00  0.00     0.002 A 
ATOM     14  C   UNL d   1      46.488 -19.181  44.396  0.00  0.00     0.000 A 
ATOM     15  C   UNL d   1      46.510 -19.520  43.639  0.00  0.00     0.000 A 
ATOM     16  C   UNL d   1      46.397 -19.047  42.972  0.00  0.00     0.000 A 
ATOM     17  C   UNL d   1      46.644 -20.330  43.556  0.00  0.00     0.000 C 
ATOM     18  C   UNL d   1      46.262 -18.237  43.054  0.00  0.00     0.002 A 
ENDBRANCH  11  12
ENDBRANCH  10  11
ENDBRANCH   1  10
TORSDOF 4
ENDMDL
