MODEL 1
REMARK VINA RESULT:      28.1      0.000      0.000
REMARK  5 active torsions:
REMARK  status: ('A' for Active; 'I' for Inactive)
REMARK    1  A    between atoms: C_8  and  C_1 
REMARK    2  A    between atoms: N_6  and  C_2 
REMARK    3  A    between atoms: C_12  and  C_4 
REMARK       I    between atoms: C_7  and  N_6 
REMARK    4  A    between atoms: C_9  and  C_7 
REMARK    5  A    between atoms: O_15  and  C_8 
ROOT
ATOM      1  C   UNL d   1      13.666  12.449  -3.892  0.00  0.00     0.110 A 
ATOM      2  C   UNL d   1      13.660  13.232  -3.668  0.00  0.00     0.096 A 
ATOM      3  S   UNL d   1      13.755  11.996  -3.191  0.00  0.00    -0.080 SA
ATOM      4  C   UNL d   1      13.801  12.519  -2.556  0.00  0.00     0.031 A 
ATOM      5  C   UNL d   1      13.741  13.290  -2.855  0.00  0.00     0.026 A 
ENDROOT
BRANCH   2   6
ATOM      6  N   UNL d   1      13.581  13.858  -4.199  0.00  0.00    -0.207 NA
ATOM      7  C   UNL d   1      13.749  14.625  -3.967  0.00  0.00     0.279 C 
ATOM      8  O   UNL d   1      14.001  14.760  -3.180  0.00  0.00    -0.265 OA
BRANCH   7   9
ATOM      9  C   UNL d   1      13.678  15.250  -4.474  0.00  0.00     0.058 A 
ATOM     10  C   UNL d   1      13.604  15.886  -4.993  0.00  0.00     0.005 A 
ATOM     11  C   UNL d   1      14.000  15.986  -4.275  0.00  0.00     0.005 A 
ENDBRANCH   7   9
ENDBRANCH   2   6
BRANCH   1  12
ATOM     12  C   UNL d   1      13.598  12.163  -4.662  0.00  0.00     0.303 C 
ATOM     13  O   UNL d   1      14.286  11.972  -5.103  0.00  0.00    -0.259 OA
BRANCH  12  14
ATOM     14  O   UNL d   1      12.842  12.061  -5.007  0.00  0.00    -0.295 OA
ATOM     15  C   UNL d   1      12.769  11.782  -5.763  0.00  0.00     0.185 C 
ENDBRANCH  12  14
ENDBRANCH   1  12
BRANCH   4  16
ATOM     16  C   UNL d   1      13.892  12.269  -1.759  0.00  0.00     0.006 A 
ATOM     17  C   UNL d   1      14.642  12.275  -1.413  0.00  0.00     0.001 A 
ATOM     18  C   UNL d   1      14.728  12.031  -0.638  0.00  0.00     0.000 A 
ATOM     19  C   UNL d   1      14.064  11.782  -0.207  0.00  0.00     0.000 A 
ATOM     20  C   UNL d   1      13.314  11.783  -0.573  0.00  0.00     0.000 A 
ATOM     21  C   UNL d   1      13.254  12.030  -1.348  0.00  0.00     0.001 A 
ENDBRANCH   4  16
TORSDOF 5
ENDMDL
