MODEL 1
REMARK VINA RESULT:     -10.4      0.000      0.000
REMARK  2 active torsions:
REMARK  status: ('A' for Active; 'I' for Inactive)
REMARK    1  A    between atoms: C_7  and  C_1 
REMARK       I    between atoms: N_13  and  C_7 
REMARK    2  A    between atoms: C_18  and  N_13 
ROOT
ATOM      1  N   UNL d   1      46.625  36.558  51.801  0.00  0.00    -0.191 NA
ATOM      2  C   UNL d   1      47.291  36.122  52.041  0.00  0.00     0.101 C 
ATOM      3  C   UNL d   1      49.288  34.814  52.760  0.00  0.00     0.085 A 
ATOM      4  C   UNL d   1      47.959  35.686  52.283  0.00  0.00     0.068 A 
ATOM      5  C   UNL d   1      48.932  34.668  52.034  0.00  0.00     0.020 A 
ATOM      6  C   UNL d   1      48.968  35.413  53.258  0.00  0.00     0.020 A 
ATOM      7  C   UNL d   1      48.270  35.093  51.783  0.00  0.00     0.012 A 
ATOM      8  C   UNL d   1      48.307  35.838  53.008  0.00  0.00     0.012 A 
ENDROOT
BRANCH   3   9
ATOM      9  N   UNL d   1      49.946  34.395  53.015  0.00  0.00    -0.208 NA
ATOM     10  C   UNL d   1      50.614  34.390  52.515  0.00  0.00     0.283 C 
ATOM     11  O   UNL d   1      50.621  34.778  51.811  0.00  0.00    -0.265 OA
BRANCH  10  12
ATOM     12  C   UNL d   1      51.278  33.971  52.765  0.00  0.00     0.101 A 
ATOM     13  C   UNL d   1      51.932  34.350  53.087  0.00  0.00     0.208 A 
ATOM     14  O   UNL d   1      52.597  33.939  53.338  0.00  0.00    -0.288 OA
ATOM     15  N   UNL d   1      51.920  35.189  53.161  0.00  0.00    -0.121 N 
ATOM     16  C   UNL d   1      52.609  33.099  53.263  0.00  0.00     0.103 A 
ATOM     17  C   UNL d   1      51.941  32.721  52.935  0.00  0.00     0.023 A 
ATOM     18  C   UNL d   1      53.251  32.689  53.505  0.00  0.00     0.039 A 
ATOM     19  C   UNL d   1      51.290  33.131  52.690  0.00  0.00     0.010 A 
ATOM     20  C   UNL d   1      51.945  31.882  52.857  0.00  0.00     0.003 A 
ATOM     21  C   UNL d   1      52.610  31.470  53.109  0.00  0.00     0.016 A 
ATOM     22  C   UNL d   1      53.263  31.850  53.430  0.00  0.00     0.066 A 
ATOM     23  C   UNL d   1      52.645  30.631  53.044  0.00  0.00     0.003 A 
ATOM     24  N   UNL d   1      53.898  31.439  53.669  0.00  0.00    -0.304 N 
ATOM     25  C   UNL d   1      54.551  31.819  53.990  0.00  0.00     0.080 A 
ATOM     26  C   UNL d   1      53.910  30.601  53.594  0.00  0.00     0.080 A 
ATOM     27  C   UNL d   1      54.539  32.658  54.065  0.00  0.00     0.019 A 
ATOM     28  C   UNL d   1      53.897  33.068  53.823  0.00  0.00     0.005 A 
ATOM     29  C   UNL d   1      53.271  30.221  53.279  0.00  0.00     0.019 A 
ENDBRANCH  10  12
ENDBRANCH   3   9
TORSDOF 2
ENDMDL
MODEL 2
REMARK VINA RESULT:     -10.0      1.111      6.079
REMARK  2 active torsions:
REMARK  status: ('A' for Active; 'I' for Inactive)
REMARK    1  A    between atoms: C_7  and  C_1 
REMARK       I    between atoms: N_13  and  C_7 
REMARK    2  A    between atoms: C_18  and  N_13 
ROOT
ATOM      1  N   UNL d   1      54.767  32.524  53.576  0.00  0.00    -0.191 NA
ATOM      2  C   UNL d   1      53.992  32.816  53.491  0.00  0.00     0.101 C 
ATOM      3  C   UNL d   1      51.670  33.687  53.237  0.00  0.00     0.085 A 
ATOM      4  C   UNL d   1      53.217  33.108  53.407  0.00  0.00     0.068 A 
ATOM      5  C   UNL d   1      51.830  32.887  53.139  0.00  0.00     0.020 A 
ATOM      6  C   UNL d   1      52.304  34.209  53.425  0.00  0.00     0.020 A 
ATOM      7  C   UNL d   1      52.593  32.585  53.220  0.00  0.00     0.012 A 
ATOM      8  C   UNL d   1      53.068  33.907  53.506  0.00  0.00     0.012 A 
ENDROOT
BRANCH   3   9
ATOM      9  N   UNL d   1      50.913  33.993  53.158  0.00  0.00    -0.208 NA
ATOM     10  C   UNL d   1      50.701  34.302  52.412  0.00  0.00     0.283 C 
ATOM     11  O   UNL d   1      51.212  34.302  51.792  0.00  0.00    -0.265 OA
BRANCH  10  12
ATOM     12  C   UNL d   1      49.942  34.611  52.326  0.00  0.00     0.101 A 
ATOM     13  C   UNL d   1      49.527  34.545  51.621  0.00  0.00     0.208 A 
ATOM     14  O   UNL d   1      48.770  34.851  51.528  0.00  0.00    -0.288 OA
ATOM     15  N   UNL d   1      49.889  34.149  50.971  0.00  0.00    -0.121 N 
ATOM     16  C   UNL d   1      48.408  35.247  52.178  0.00  0.00     0.103 A 
ATOM     17  C   UNL d   1      48.837  35.310  52.891  0.00  0.00     0.023 A 
ATOM     18  C   UNL d   1      47.672  35.548  52.098  0.00  0.00     0.039 A 
ATOM     19  C   UNL d   1      49.580  35.007  52.976  0.00  0.00     0.010 A 
ATOM     20  C   UNL d   1      48.482  35.704  53.547  0.00  0.00     0.003 A 
ATOM     21  C   UNL d   1      47.726  36.010  53.454  0.00  0.00     0.016 A 
ATOM     22  C   UNL d   1      47.310  35.944  52.748  0.00  0.00     0.066 A 
ATOM     23  C   UNL d   1      47.343  36.410  54.089  0.00  0.00     0.003 A 
ATOM     24  N   UNL d   1      46.581  36.244  52.674  0.00  0.00    -0.304 N 
ATOM     25  C   UNL d   1      46.165  36.178  51.968  0.00  0.00     0.080 A 
ATOM     26  C   UNL d   1      46.219  36.640  53.323  0.00  0.00     0.080 A 
ATOM     27  C   UNL d   1      46.528  35.782  51.318  0.00  0.00     0.019 A 
ATOM     28  C   UNL d   1      47.263  35.480  51.398  0.00  0.00     0.005 A 
ATOM     29  C   UNL d   1      46.621  36.709  54.020  0.00  0.00     0.019 A 
ENDBRANCH  10  12
ENDBRANCH   3   9
TORSDOF 2
ENDMDL
MODEL 3
REMARK VINA RESULT:      -8.9      9.300     10.685
REMARK  2 active torsions:
REMARK  status: ('A' for Active; 'I' for Inactive)
REMARK    1  A    between atoms: C_7  and  C_1 
REMARK       I    between atoms: N_13  and  C_7 
REMARK    2  A    between atoms: C_18  and  N_13 
ROOT
ATOM      1  N   UNL d   1      44.628  22.610  55.001  0.00  0.00    -0.191 NA
ATOM      2  C   UNL d   1      44.588  23.370  55.339  0.00  0.00     0.101 C 
ATOM      3  C   UNL d   1      44.470  25.644  56.353  0.00  0.00     0.085 A 
ATOM      4  C   UNL d   1      44.548  24.131  55.676  0.00  0.00     0.068 A 
ATOM      5  C   UNL d   1      44.592  24.982  56.823  0.00  0.00     0.020 A 
ATOM      6  C   UNL d   1      44.385  25.543  55.520  0.00  0.00     0.020 A 
ATOM      7  C   UNL d   1      44.633  24.223  56.502  0.00  0.00     0.012 A 
ATOM      8  C   UNL d   1      44.427  24.784  55.198  0.00  0.00     0.012 A 
ENDROOT
BRANCH   3   9
ATOM      9  N   UNL d   1      44.428  26.401  56.666  0.00  0.00    -0.208 NA
ATOM     10  C   UNL d   1      45.148  26.799  56.803  0.00  0.00     0.283 C 
ATOM     11  O   UNL d   1      45.858  26.462  56.637  0.00  0.00    -0.265 OA
BRANCH  10  12
ATOM     12  C   UNL d   1      45.113  27.560  57.119  0.00  0.00     0.101 A 
ATOM     13  C   UNL d   1      45.280  27.707  57.909  0.00  0.00     0.208 A 
ATOM     14  O   UNL d   1      45.246  28.463  58.230  0.00  0.00    -0.288 OA
ATOM     15  N   UNL d   1      45.492  27.063  58.407  0.00  0.00    -0.121 N 
ATOM     16  C   UNL d   1      45.034  29.108  57.731  0.00  0.00     0.103 A 
ATOM     17  C   UNL d   1      44.866  28.950  56.929  0.00  0.00     0.023 A 
ATOM     18  C   UNL d   1      44.999  29.847  58.033  0.00  0.00     0.039 A 
ATOM     19  C   UNL d   1      44.900  28.206  56.620  0.00  0.00     0.010 A 
ATOM     20  C   UNL d   1      44.653  29.590  56.423  0.00  0.00     0.003 A 
ATOM     21  C   UNL d   1      44.619  30.345  56.744  0.00  0.00     0.016 A 
ATOM     22  C   UNL d   1      44.786  30.493  57.534  0.00  0.00     0.066 A 
ATOM     23  C   UNL d   1      44.410  31.006  56.265  0.00  0.00     0.003 A 
ATOM     24  N   UNL d   1      44.750  31.227  57.829  0.00  0.00    -0.304 N 
ATOM     25  C   UNL d   1      44.917  31.375  58.620  0.00  0.00     0.080 A 
ATOM     26  C   UNL d   1      44.538  31.872  57.331  0.00  0.00     0.080 A 
ATOM     27  C   UNL d   1      45.129  30.729  59.119  0.00  0.00     0.019 A 
ATOM     28  C   UNL d   1      45.165  29.990  58.817  0.00  0.00     0.005 A 
ATOM     29  C   UNL d   1      44.373  31.735  56.553  0.00  0.00     0.019 A 
ENDBRANCH  10  12
ENDBRANCH   3   9
TORSDOF 2
ENDMDL
MODEL 4
REMARK VINA RESULT:      -8.7      1.080      2.023
REMARK  2 active torsions:
REMARK  status: ('A' for Active; 'I' for Inactive)
REMARK    1  A    between atoms: C_7  and  C_1 
REMARK       I    between atoms: N_13  and  C_7 
REMARK    2  A    between atoms: C_18  and  N_13 
ROOT
ATOM      1  N   UNL d   1      46.390  35.965  51.323  0.00  0.00    -0.191 NA
ATOM      2  C   UNL d   1      47.146  35.683  51.527  0.00  0.00     0.101 C 
ATOM      3  C   UNL d   1      49.410  34.840  52.143  0.00  0.00     0.085 A 
ATOM      4  C   UNL d   1      47.903  35.401  51.732  0.00  0.00     0.068 A 
ATOM      5  C   UNL d   1      48.984  35.313  52.662  0.00  0.00     0.020 A 
ATOM      6  C   UNL d   1      49.069  34.644  51.397  0.00  0.00     0.020 A 
ATOM      7  C   UNL d   1      48.234  35.599  52.472  0.00  0.00     0.012 A 
ATOM      8  C   UNL d   1      48.319  34.930  51.207  0.00  0.00     0.012 A 
ENDROOT
BRANCH   3   9
ATOM      9  N   UNL d   1      50.156  34.553  52.326  0.00  0.00    -0.208 NA
ATOM     10  C   UNL d   1      50.220  34.050  52.989  0.00  0.00     0.283 C 
ATOM     11  O   UNL d   1      49.582  33.850  53.434  0.00  0.00    -0.265 OA
BRANCH  10  12
ATOM     12  C   UNL d   1      50.967  33.757  53.179  0.00  0.00     0.101 A 
ATOM     13  C   UNL d   1      51.209  33.008  52.945  0.00  0.00     0.208 A 
ATOM     14  O   UNL d   1      51.952  32.710  53.130  0.00  0.00    -0.288 OA
ATOM     15  N   UNL d   1      50.678  32.529  52.500  0.00  0.00    -0.121 N 
ATOM     16  C   UNL d   1      52.484  33.190  53.576  0.00  0.00     0.103 A 
ATOM     17  C   UNL d   1      52.230  33.950  53.809  0.00  0.00     0.023 A 
ATOM     18  C   UNL d   1      53.208  32.910  53.761  0.00  0.00     0.039 A 
ATOM     19  C   UNL d   1      51.499  34.237  53.624  0.00  0.00     0.010 A 
ATOM     20  C   UNL d   1      52.755  34.436  54.255  0.00  0.00     0.003 A 
ATOM     21  C   UNL d   1      53.498  34.138  54.441  0.00  0.00     0.016 A 
ATOM     22  C   UNL d   1      53.740  33.389  54.207  0.00  0.00     0.066 A 
ATOM     23  C   UNL d   1      54.046  34.599  54.884  0.00  0.00     0.003 A 
ATOM     24  N   UNL d   1      54.460  33.116  54.393  0.00  0.00    -0.304 N 
ATOM     25  C   UNL d   1      54.702  32.366  54.159  0.00  0.00     0.080 A 
ATOM     26  C   UNL d   1      54.991  33.594  54.838  0.00  0.00     0.080 A 
ATOM     27  C   UNL d   1      54.171  31.887  53.714  0.00  0.00     0.019 A 
ATOM     28  C   UNL d   1      53.446  32.167  53.528  0.00  0.00     0.005 A 
ATOM     29  C   UNL d   1      54.760  34.332  55.071  0.00  0.00     0.019 A 
ENDBRANCH  10  12
ENDBRANCH   3   9
TORSDOF 2
ENDMDL
MODEL 5
REMARK VINA RESULT:      -7.8      9.977     11.127
REMARK  2 active torsions:
REMARK  status: ('A' for Active; 'I' for Inactive)
REMARK    1  A    between atoms: C_7  and  C_1 
REMARK       I    between atoms: N_13  and  C_7 
REMARK    2  A    between atoms: C_18  and  N_13 
ROOT
ATOM      1  N   UNL d   1      44.735  22.988  54.773  0.00  0.00    -0.191 NA
ATOM      2  C   UNL d   1      44.673  23.679  55.232  0.00  0.00     0.101 C 
ATOM      3  C   UNL d   1      44.487  25.748  56.610  0.00  0.00     0.085 A 
ATOM      4  C   UNL d   1      44.610  24.371  55.691  0.00  0.00     0.068 A 
ATOM      5  C   UNL d   1      44.699  25.033  56.955  0.00  0.00     0.020 A 
ATOM      6  C   UNL d   1      44.333  25.771  55.782  0.00  0.00     0.020 A 
ATOM      7  C   UNL d   1      44.765  24.341  56.511  0.00  0.00     0.012 A 
ATOM      8  C   UNL d   1      44.398  25.079  55.338  0.00  0.00     0.012 A 
ENDROOT
BRANCH   3   9
ATOM      9  N   UNL d   1      44.421  26.440  57.046  0.00  0.00    -0.208 NA
ATOM     10  C   UNL d   1      45.099  26.923  57.104  0.00  0.00     0.283 C 
ATOM     11  O   UNL d   1      45.793  26.724  56.751  0.00  0.00    -0.265 OA
BRANCH  10  12
ATOM     12  C   UNL d   1      45.039  27.619  57.541  0.00  0.00     0.101 A 
ATOM     13  C   UNL d   1      45.145  28.356  57.194  0.00  0.00     0.208 A 
ATOM     14  O   UNL d   1      45.087  29.054  57.622  0.00  0.00    -0.288 OA
ATOM     15  N   UNL d   1      45.321  28.397  56.371  0.00  0.00    -0.121 N 
ATOM     16  C   UNL d   1      44.911  29.013  58.446  0.00  0.00     0.103 A 
ATOM     17  C   UNL d   1      44.804  28.261  58.791  0.00  0.00     0.023 A 
ATOM     18  C   UNL d   1      44.852  29.686  58.872  0.00  0.00     0.039 A 
ATOM     19  C   UNL d   1      44.863  27.578  58.364  0.00  0.00     0.010 A 
ATOM     20  C   UNL d   1      44.628  28.211  59.614  0.00  0.00     0.003 A 
ATOM     21  C   UNL d   1      44.570  28.909  60.042  0.00  0.00     0.016 A 
ATOM     22  C   UNL d   1      44.677  29.646  59.695  0.00  0.00     0.066 A 
ATOM     23  C   UNL d   1      44.395  28.893  60.866  0.00  0.00     0.003 A 
ATOM     24  N   UNL d   1      44.617  30.311  60.122  0.00  0.00    -0.304 N 
ATOM     25  C   UNL d   1      44.724  31.047  59.775  0.00  0.00     0.080 A 
ATOM     26  C   UNL d   1      44.442  30.270  60.945  0.00  0.00     0.080 A 
ATOM     27  C   UNL d   1      44.899  31.088  58.952  0.00  0.00     0.019 A 
ATOM     28  C   UNL d   1      44.958  30.415  58.525  0.00  0.00     0.005 A 
ATOM     29  C   UNL d   1      44.335  29.549  61.293  0.00  0.00     0.019 A 
ENDBRANCH  10  12
ENDBRANCH   3   9
TORSDOF 2
ENDMDL
