MODEL 1
REMARK VINA RESULT:      -2.2      0.000      0.000
REMARK  4 active torsions:
REMARK  status: ('A' for Active; 'I' for Inactive)
REMARK    1  A    between atoms: C_2  and  S_1 
REMARK    2  A    between atoms: N_3  and  S_1 
REMARK    3  A    between atoms: O_13  and  C_7 
REMARK    4  A    between atoms: O_14  and  C_11 
ROOT
ATOM      1  S   UNL d   1      59.294  -1.498  29.310  0.00  0.00     0.273 S 
ATOM      2  O   UNL d   1      59.050  -0.964  28.726  0.00  0.00    -0.200 OA
ATOM      3  O   UNL d   1      59.134  -1.340  30.108  0.00  0.00    -0.200 OA
ENDROOT
BRANCH   1   4
ATOM      4  C   UNL d   1      58.894  -0.814  29.518  0.00  0.00     0.128 A 
ATOM      5  C   UNL d   1      58.258  -0.835  30.042  0.00  0.00     0.039 A 
ATOM      6  C   UNL d   1      57.857  -0.146  30.250  0.00  0.00     0.095 A 
ATOM      7  C   UNL d   1      58.099   0.568  29.928  0.00  0.00     0.026 A 
ATOM      8  C   UNL d   1      58.728   0.601  29.407  0.00  0.00     0.027 A 
ATOM      9  C   UNL d   1      59.128  -0.088  29.200  0.00  0.00     0.106 A 
BRANCH   6  10
ATOM     10  O   UNL d   1      57.223  -0.180  30.775  0.00  0.00    -0.328 OA
ATOM     11  C   UNL d   1      57.058   0.461  31.266  0.00  0.00     0.181 C 
ENDBRANCH   6  10
BRANCH   9  12
ATOM     12  O   UNL d   1      59.761  -0.058  28.677  0.00  0.00    -0.327 OA
ATOM     13  C   UNL d   1      60.073   0.674  28.455  0.00  0.00     0.181 C 
ENDBRANCH   9  12
ENDBRANCH   1   4
BRANCH   1  14
ATOM     14  N   UNL d   1      59.698  -2.189  29.091  0.00  0.00    -0.232 N 
ATOM     15  C   UNL d   1      59.295  -2.779  28.674  0.00  0.00     0.075 A 
ATOM     16  C   UNL d   1      59.700  -3.469  28.455  0.00  0.00     0.018 A 
ATOM     17  C   UNL d   1      58.500  -2.686  28.475  0.00  0.00     0.020 C 
ATOM     18  C   UNL d   1      60.494  -3.561  28.654  0.00  0.00     0.003 A 
ATOM     19  C   UNL d   1      60.894  -2.963  29.074  0.00  0.00     0.018 A 
ATOM     20  C   UNL d   1      60.493  -2.274  29.293  0.00  0.00     0.075 A 
ATOM     21  C   UNL d   1      60.885  -1.682  29.708  0.00  0.00     0.020 C 
ENDBRANCH   1  14
TORSDOF 4
ENDMDL
MODEL 2
REMARK VINA RESULT:      -1.7      1.194      1.942
REMARK  4 active torsions:
REMARK  status: ('A' for Active; 'I' for Inactive)
REMARK    1  A    between atoms: C_2  and  S_1 
REMARK    2  A    between atoms: N_3  and  S_1 
REMARK    3  A    between atoms: O_13  and  C_7 
REMARK    4  A    between atoms: O_14  and  C_11 
ROOT
ATOM      1  S   UNL d   1      59.185  -0.356  29.819  0.00  0.00     0.273 S 
ATOM      2  O   UNL d   1      58.468  -0.765  29.879  0.00  0.00    -0.200 OA
ATOM      3  O   UNL d   1      59.255   0.405  30.142  0.00  0.00    -0.200 OA
ENDROOT
BRANCH   1   4
ATOM      4  C   UNL d   1      58.544  -0.012  30.196  0.00  0.00     0.128 A 
ATOM      5  C   UNL d   1      58.504   0.027  31.019  0.00  0.00     0.039 A 
ATOM      6  C   UNL d   1      57.859   0.374  31.396  0.00  0.00     0.095 A 
ATOM      7  C   UNL d   1      57.250   0.682  30.940  0.00  0.00     0.026 A 
ATOM      8  C   UNL d   1      57.279   0.649  30.124  0.00  0.00     0.027 A 
ATOM      9  C   UNL d   1      57.924   0.302  29.748  0.00  0.00     0.106 A 
BRANCH   6  10
ATOM     10  O   UNL d   1      57.830   0.407  32.218  0.00  0.00    -0.328 OA
ATOM     11  C   UNL d   1      57.109   0.326  32.610  0.00  0.00     0.181 C 
ENDBRANCH   6  10
BRANCH   9  12
ATOM     12  O   UNL d   1      57.956   0.267  28.929  0.00  0.00    -0.327 OA
ATOM     13  C   UNL d   1      57.400   0.682  28.480  0.00  0.00     0.181 C 
ENDBRANCH   9  12
ENDBRANCH   1   4
BRANCH   1  14
ATOM     14  N   UNL d   1      59.830  -0.712  29.437  0.00  0.00    -0.232 N 
ATOM     15  C   UNL d   1      60.483  -0.249  29.229  0.00  0.00     0.075 A 
ATOM     16  C   UNL d   1      61.127  -0.605  28.847  0.00  0.00     0.018 A 
ATOM     17  C   UNL d   1      60.499   0.558  29.399  0.00  0.00     0.020 C 
ATOM     18  C   UNL d   1      61.111  -1.411  28.678  0.00  0.00     0.003 A 
ATOM     19  C   UNL d   1      60.450  -1.872  28.890  0.00  0.00     0.018 A 
ATOM     20  C   UNL d   1      59.806  -1.520  29.271  0.00  0.00     0.075 A 
ATOM     21  C   UNL d   1      59.153  -1.971  29.481  0.00  0.00     0.020 C 
ENDBRANCH   1  14
TORSDOF 4
ENDMDL
MODEL 3
REMARK VINA RESULT:      -1.1      1.131      3.394
REMARK  4 active torsions:
REMARK  status: ('A' for Active; 'I' for Inactive)
REMARK    1  A    between atoms: C_2  and  S_1 
REMARK    2  A    between atoms: N_3  and  S_1 
REMARK    3  A    between atoms: O_13  and  C_7 
REMARK    4  A    between atoms: O_14  and  C_11 
ROOT
ATOM      1  S   UNL d   1      58.690  -1.282  29.542  0.00  0.00     0.273 S 
ATOM      2  O   UNL d   1      58.498  -1.600  28.803  0.00  0.00    -0.200 OA
ATOM      3  O   UNL d   1      59.328  -1.590  29.972  0.00  0.00    -0.200 OA
ENDROOT
BRANCH   1   4
ATOM      4  C   UNL d   1      59.128  -1.901  29.233  0.00  0.00     0.128 A 
ATOM      5  C   UNL d   1      58.766  -2.605  29.003  0.00  0.00     0.039 A 
ATOM      6  C   UNL d   1      59.208  -3.227  28.692  0.00  0.00     0.095 A 
ATOM      7  C   UNL d   1      60.019  -3.138  28.613  0.00  0.00     0.026 A 
ATOM      8  C   UNL d   1      60.389  -2.445  28.837  0.00  0.00     0.027 A 
ATOM      9  C   UNL d   1      59.946  -1.824  29.148  0.00  0.00     0.106 A 
BRANCH   6  10
ATOM     10  O   UNL d   1      58.835  -3.926  28.465  0.00  0.00    -0.328 OA
ATOM     11  C   UNL d   1      59.071  -4.645  28.792  0.00  0.00     0.181 C 
ENDBRANCH   6  10
BRANCH   9  12
ATOM     12  O   UNL d   1      60.314  -1.126  29.375  0.00  0.00    -0.327 OA
ATOM     13  C   UNL d   1      61.133  -1.049  29.289  0.00  0.00     0.181 C 
ENDBRANCH   9  12
ENDBRANCH   1   4
BRANCH   1  14
ATOM     14  N   UNL d   1      58.241  -0.654  29.848  0.00  0.00    -0.232 N 
ATOM     15  C   UNL d   1      58.195   0.055  29.426  0.00  0.00     0.075 A 
ATOM     16  C   UNL d   1      57.746   0.681  29.733  0.00  0.00     0.018 A 
ATOM     17  C   UNL d   1      58.591   0.144  28.708  0.00  0.00     0.020 C 
ATOM     18  C   UNL d   1      57.352   0.592  30.450  0.00  0.00     0.003 A 
ATOM     19  C   UNL d   1      57.401  -0.125  30.871  0.00  0.00     0.018 A 
ATOM     20  C   UNL d   1      57.848  -0.752  30.568  0.00  0.00     0.075 A 
ATOM     21  C   UNL d   1      57.899  -1.460  30.980  0.00  0.00     0.020 C 
ENDBRANCH   1  14
TORSDOF 4
ENDMDL
MODEL 4
REMARK VINA RESULT:      -0.1      1.060      2.038
REMARK  4 active torsions:
REMARK  status: ('A' for Active; 'I' for Inactive)
REMARK    1  A    between atoms: C_2  and  S_1 
REMARK    2  A    between atoms: N_3  and  S_1 
REMARK    3  A    between atoms: O_13  and  C_7 
REMARK    4  A    between atoms: O_14  and  C_11 
ROOT
ATOM      1  S   UNL d   1      59.504  -2.357  29.093  0.00  0.00     0.273 S 
ATOM      2  O   UNL d   1      59.701  -1.821  28.494  0.00  0.00    -0.200 OA
ATOM      3  O   UNL d   1      59.243  -2.076  29.828  0.00  0.00    -0.200 OA
ENDROOT
BRANCH   1   4
ATOM      4  C   UNL d   1      59.442  -1.550  29.223  0.00  0.00     0.128 A 
ATOM      5  C   UNL d   1      59.999  -1.026  28.914  0.00  0.00     0.039 A 
ATOM      6  C   UNL d   1      59.936  -0.215  29.046  0.00  0.00     0.095 A 
ATOM      7  C   UNL d   1      59.307   0.068  29.491  0.00  0.00     0.026 A 
ATOM      8  C   UNL d   1      58.750  -0.442  29.801  0.00  0.00     0.027 A 
ATOM      9  C   UNL d   1      58.814  -1.252  29.669  0.00  0.00     0.106 A 
BRANCH   6  10
ATOM     10  O   UNL d   1      60.498   0.300  28.733  0.00  0.00    -0.328 OA
ATOM     11  C   UNL d   1      61.042   0.669  29.230  0.00  0.00     0.181 C 
ENDBRANCH   6  10
BRANCH   9  12
ATOM     12  O   UNL d   1      58.256  -1.768  29.979  0.00  0.00    -0.327 OA
ATOM     13  C   UNL d   1      57.769  -1.518  30.599  0.00  0.00     0.181 C 
ENDBRANCH   9  12
ENDBRANCH   1   4
BRANCH   1  14
ATOM     14  N   UNL d   1      59.570  -3.172  28.953  0.00  0.00    -0.232 N 
ATOM     15  C   UNL d   1      58.921  -3.584  28.648  0.00  0.00     0.075 A 
ATOM     16  C   UNL d   1      58.987  -4.399  28.509  0.00  0.00     0.018 A 
ATOM     17  C   UNL d   1      58.213  -3.194  28.483  0.00  0.00     0.020 C 
ATOM     18  C   UNL d   1      59.694  -4.789  28.674  0.00  0.00     0.003 A 
ATOM     19  C   UNL d   1      60.344  -4.368  28.981  0.00  0.00     0.018 A 
ATOM     20  C   UNL d   1      60.281  -3.556  29.121  0.00  0.00     0.075 A 
ATOM     21  C   UNL d   1      60.920  -3.138  29.423  0.00  0.00     0.020 C 
ENDBRANCH   1  14
TORSDOF 4
ENDMDL
