MODEL 1
REMARK VINA RESULT:      -4.0      0.000      0.000
REMARK  5 active torsions:
REMARK  status: ('A' for Active; 'I' for Inactive)
REMARK    1  A    between atoms: C_4  and  S_1 
REMARK    2  A    between atoms: N_5  and  S_1 
REMARK    3  A    between atoms: C_2  and  C_8 
REMARK       I    between atoms: N_3  and  C_2 
REMARK    4  A    between atoms: C_16  and  N_5 
REMARK    5  A    between atoms: C_17  and  N_5 
ROOT
ATOM      1  C   UNL d   1     -41.669-122.494 -52.415  0.00  0.00     0.104 A 
ATOM      2  C   UNL d   1     -41.662-122.448 -50.764  0.00  0.00     0.057 A 
ATOM      3  C   UNL d   1     -42.208-122.011 -52.010  0.00  0.00     0.013 A 
ATOM      4  C   UNL d   1     -41.128-122.951 -51.996  0.00  0.00     0.013 A 
ATOM      5  C   UNL d   1     -42.204-121.989 -51.188  0.00  0.00     0.005 A 
ATOM      6  C   UNL d   1     -41.123-122.930 -51.169  0.00  0.00     0.005 A 
ENDROOT
BRANCH   1   7
ATOM      7  S   UNL d   1     -41.675-122.514 -53.246  0.00  0.00     0.271 S 
ATOM      8  O   UNL d   1     -42.126-123.278 -53.332  0.00  0.00    -0.200 OA
ATOM      9  O   UNL d   1     -41.195-121.700 -53.232  0.00  0.00    -0.200 OA
BRANCH   7  10
ATOM     10  N   UNL d   1     -41.682-122.534 -54.066  0.00  0.00    -0.229 N 
BRANCH  10  11
ATOM     11  C   UNL d   1     -41.784-121.831 -54.492  0.00  0.00     0.092 C 
ATOM     12  C   UNL d   1     -42.294-121.812 -55.140  0.00  0.00     0.021 C 
ENDBRANCH  10  11
BRANCH  10  13
ATOM     13  C   UNL d   1     -41.589-123.247 -54.471  0.00  0.00     0.092 C 
ATOM     14  C   UNL d   1     -41.176-123.256 -55.186  0.00  0.00     0.021 C 
ENDBRANCH  10  13
ENDBRANCH   7  10
ENDBRANCH   1   7
BRANCH   2  15
ATOM     15  C   UNL d   1     -41.663-122.421 -49.936  0.00  0.00     0.265 C 
ATOM     16  N   UNL d   1     -42.205-122.878 -49.519  0.00  0.00    -0.272 N 
ATOM     17  C   UNL d   1     -42.741-123.357 -49.924  0.00  0.00     0.083 A 
ATOM     18  C   UNL d   1     -42.212-122.855 -48.695  0.00  0.00     0.083 A 
ATOM     19  C   UNL d   1     -43.283-123.815 -49.505  0.00  0.00     0.019 A 
ATOM     20  C   UNL d   1     -43.290-123.792 -48.683  0.00  0.00     0.003 A 
ATOM     21  C   UNL d   1     -42.754-123.313 -48.278  0.00  0.00     0.019 A 
ATOM     22  O   UNL d   1     -41.126-121.940 -49.535  0.00  0.00    -0.267 OA
ENDBRANCH   2  15
TORSDOF 5
ENDMDL
MODEL 2
REMARK VINA RESULT:      -3.8      1.141      4.616
REMARK  5 active torsions:
REMARK  status: ('A' for Active; 'I' for Inactive)
REMARK    1  A    between atoms: C_4  and  S_1 
REMARK    2  A    between atoms: N_5  and  S_1 
REMARK    3  A    between atoms: C_2  and  C_8 
REMARK       I    between atoms: N_3  and  C_2 
REMARK    4  A    between atoms: C_16  and  N_5 
REMARK    5  A    between atoms: C_17  and  N_5 
ROOT
ATOM      1  C   UNL d   1     -41.720-123.120 -51.477  0.00  0.00     0.104 A 
ATOM      2  C   UNL d   1     -41.596-123.172 -53.124  0.00  0.00     0.057 A 
ATOM      3  C   UNL d   1     -42.070-123.740 -51.901  0.00  0.00     0.013 A 
ATOM      4  C   UNL d   1     -41.309-122.528 -51.875  0.00  0.00     0.013 A 
ATOM      5  C   UNL d   1     -42.008-123.766 -52.721  0.00  0.00     0.005 A 
ATOM      6  C   UNL d   1     -41.246-122.552 -52.700  0.00  0.00     0.005 A 
ENDROOT
BRANCH   1   7
ATOM      7  S   UNL d   1     -41.784-123.097 -50.649  0.00  0.00     0.271 S 
ATOM      8  O   UNL d   1     -41.275-123.809 -50.482  0.00  0.00    -0.200 OA
ATOM      9  O   UNL d   1     -42.334-122.335 -50.750  0.00  0.00    -0.200 OA
BRANCH   7  10
ATOM     10  N   UNL d   1     -41.848-123.075 -49.831  0.00  0.00    -0.229 N 
BRANCH  10  11
ATOM     11  C   UNL d   1     -41.168-123.151 -49.366  0.00  0.00     0.092 C 
ATOM     12  C   UNL d   1     -41.147-122.819 -48.610  0.00  0.00     0.021 C 
ENDBRANCH  10  11
BRANCH  10  13
ATOM     13  C   UNL d   1     -42.583-122.978 -49.468  0.00  0.00     0.092 C 
ATOM     14  C   UNL d   1     -42.841-123.539 -48.920  0.00  0.00     0.021 C 
ENDBRANCH  10  13
ENDBRANCH   7  10
ENDBRANCH   1   7
BRANCH   2  15
ATOM     15  C   UNL d   1     -41.538-123.204 -53.949  0.00  0.00     0.265 C 
ATOM     16  N   UNL d   1     -41.897-122.618 -54.402  0.00  0.00    -0.272 N 
ATOM     17  C   UNL d   1     -42.311-122.006 -54.034  0.00  0.00     0.083 A 
ATOM     18  C   UNL d   1     -41.842-122.644 -55.223  0.00  0.00     0.083 A 
ATOM     19  C   UNL d   1     -42.670-121.420 -54.487  0.00  0.00     0.019 A 
ATOM     20  C   UNL d   1     -42.615-121.446 -55.308  0.00  0.00     0.003 A 
ATOM     21  C   UNL d   1     -42.202-122.057 -55.676  0.00  0.00     0.019 A 
ATOM     22  O   UNL d   1     -41.123-123.817 -54.314  0.00  0.00    -0.267 OA
ENDBRANCH   2  15
TORSDOF 5
ENDMDL
MODEL 3
REMARK VINA RESULT:      -2.3      1.314      4.592
REMARK  5 active torsions:
REMARK  status: ('A' for Active; 'I' for Inactive)
REMARK    1  A    between atoms: C_4  and  S_1 
REMARK    2  A    between atoms: N_5  and  S_1 
REMARK    3  A    between atoms: C_2  and  C_8 
REMARK       I    between atoms: N_3  and  C_2 
REMARK    4  A    between atoms: C_16  and  N_5 
REMARK    5  A    between atoms: C_17  and  N_5 
ROOT
ATOM      1  C   UNL d   1     -41.758-122.832 -50.228  0.00  0.00     0.104 A 
ATOM      2  C   UNL d   1     -41.589-122.251 -51.766  0.00  0.00     0.057 A 
ATOM      3  C   UNL d   1     -41.368-122.113 -50.361  0.00  0.00     0.013 A 
ATOM      4  C   UNL d   1     -42.063-123.259 -50.863  0.00  0.00     0.013 A 
ATOM      5  C   UNL d   1     -41.284-121.824 -51.127  0.00  0.00     0.005 A 
ATOM      6  C   UNL d   1     -41.979-122.970 -51.633  0.00  0.00     0.005 A 
ENDROOT
BRANCH   1   7
ATOM      7  S   UNL d   1     -41.841-123.120 -49.454  0.00  0.00     0.271 S 
ATOM      8  O   UNL d   1     -41.123-123.647 -49.457  0.00  0.00    -0.200 OA
ATOM      9  O   UNL d   1     -42.617-122.585 -49.377  0.00  0.00    -0.200 OA
BRANCH   7  10
ATOM     10  N   UNL d   1     -41.923-123.405 -48.688  0.00  0.00    -0.229 N 
BRANCH  10  11
ATOM     11  C   UNL d   1     -42.649-123.720 -48.444  0.00  0.00     0.092 C 
ATOM     12  C   UNL d   1     -42.947-123.537 -47.697  0.00  0.00     0.021 C 
ENDBRANCH  10  11
BRANCH  10  13
ATOM     13  C   UNL d   1     -41.290-123.381 -48.160  0.00  0.00     0.092 C 
ATOM     14  C   UNL d   1     -41.337-123.804 -47.452  0.00  0.00     0.021 C 
ENDBRANCH  10  13
ENDBRANCH   7  10
ENDBRANCH   1   7
BRANCH   2  15
ATOM     15  C   UNL d   1     -41.501-121.955 -52.534  0.00  0.00     0.265 C 
ATOM     16  N   UNL d   1     -41.394-122.480 -53.159  0.00  0.00    -0.272 N 
ATOM     17  C   UNL d   1     -41.374-123.293 -53.018  0.00  0.00     0.083 A 
ATOM     18  C   UNL d   1     -41.305-122.192 -53.925  0.00  0.00     0.083 A 
ATOM     19  C   UNL d   1     -41.267-123.817 -53.643  0.00  0.00     0.019 A 
ATOM     20  C   UNL d   1     -41.179-123.530 -54.409  0.00  0.00     0.003 A 
ATOM     21  C   UNL d   1     -41.198-122.717 -54.550  0.00  0.00     0.019 A 
ATOM     22  O   UNL d   1     -41.521-121.142 -52.671  0.00  0.00    -0.267 OA
ENDBRANCH   2  15
TORSDOF 5
ENDMDL
