MODEL 1
REMARK VINA RESULT:      54.7      0.000      0.000
REMARK  3 active torsions:
REMARK  status: ('A' for Active; 'I' for Inactive)
REMARK    1  A    between atoms: C_13  and  N_3 
REMARK    2  A    between atoms: C_10  and  C_6 
REMARK    3  A    between atoms: C_11  and  C_8 
ROOT
ATOM      1  C   UNL d   1      14.458  14.329  -2.305  0.00  0.00     0.167 A 
ATOM      2  C   UNL d   1      14.504  13.822  -1.649  0.00  0.00     0.056 A 
ATOM      3  N   UNL d   1      14.765  15.069  -2.086  0.00  0.00    -0.212 N 
ATOM      4  N   UNL d   1      15.006  15.021  -1.285  0.00  0.00    -0.164 NA
ATOM      5  N   UNL d   1      14.143  14.052  -3.014  0.00  0.00    -0.206 NA
ATOM      6  C   UNL d   1      14.236  13.047  -1.708  0.00  0.00     0.015 A 
ATOM      7  C   UNL d   1      14.844  14.250  -1.015  0.00  0.00     0.104 A 
ATOM      8  C   UNL d   1      13.922  12.769  -2.413  0.00  0.00     0.059 A 
ATOM      9  C   UNL d   1      13.876  13.273  -3.064  0.00  0.00     0.187 A 
ATOM     10  N   UNL d   1      13.562  12.998  -3.772  0.00  0.00    -0.127 N 
ATOM     11  C   UNL d   1      14.992  13.961  -0.263  0.00  0.00     0.023 C 
ENDROOT
BRANCH   3  12
ATOM     12  C   UNL d   1      14.824  15.734  -2.573  0.00  0.00     0.085 A 
ATOM     13  C   UNL d   1      14.973  16.474  -2.245  0.00  0.00     0.019 A 
ATOM     14  C   UNL d   1      15.030  17.131  -2.729  0.00  0.00     0.002 A 
ATOM     15  C   UNL d   1      14.939  17.059  -3.546  0.00  0.00     0.000 A 
ATOM     16  C   UNL d   1      14.788  16.314  -3.880  0.00  0.00     0.002 A 
ATOM     17  C   UNL d   1      14.997  17.725  -4.033  0.00  0.00     0.000 C 
ATOM     18  C   UNL d   1      14.731  15.655  -3.391  0.00  0.00     0.019 A 
ENDBRANCH   3  12
BRANCH   6  19
ATOM     19  C   UNL d   1      14.286  12.549  -1.053  0.00  0.00     0.030 A 
ATOM     20  S   UNL d   1      14.975  12.253  -0.712  0.00  0.00    -0.086 SA
ATOM     21  C   UNL d   1      14.766  11.779  -0.069  0.00  0.00     0.035 A 
ATOM     22  C   UNL d   1      13.942  11.783  -0.014  0.00  0.00     0.007 A 
ATOM     23  C   UNL d   1      13.641  12.252  -0.613  0.00  0.00     0.007 A 
ENDBRANCH   6  19
BRANCH   8  24
ATOM     24  C   UNL d   1      13.654  11.992  -2.472  0.00  0.00     0.125 C 
ATOM     25  N   UNL d   1      13.149  11.779  -3.086  0.00  0.00    -0.146 N 
ENDBRANCH   8  24
TORSDOF 3
ENDMDL
MODEL 2
REMARK VINA RESULT:      55.9      1.320      2.338
REMARK  3 active torsions:
REMARK  status: ('A' for Active; 'I' for Inactive)
REMARK    1  A    between atoms: C_13  and  N_3 
REMARK    2  A    between atoms: C_10  and  C_6 
REMARK    3  A    between atoms: C_11  and  C_8 
ROOT
ATOM      1  C   UNL d   1      14.523  14.384  -1.879  0.00  0.00     0.167 A 
ATOM      2  C   UNL d   1      14.160  13.870  -2.420  0.00  0.00     0.056 A 
ATOM      3  N   UNL d   1      14.549  15.143  -2.215  0.00  0.00    -0.212 N 
ATOM      4  N   UNL d   1      14.197  15.101  -2.974  0.00  0.00    -0.164 NA
ATOM      5  N   UNL d   1      14.783  14.095  -1.153  0.00  0.00    -0.206 NA
ATOM      6  C   UNL d   1      14.060  13.076  -2.230  0.00  0.00     0.015 A 
ATOM      7  C   UNL d   1      13.957  14.313  -3.100  0.00  0.00     0.104 A 
ATOM      8  C   UNL d   1      14.318  12.786  -1.508  0.00  0.00     0.059 A 
ATOM      9  C   UNL d   1      14.679  13.297  -0.971  0.00  0.00     0.187 A 
ATOM     10  N   UNL d   1      14.938  13.010  -0.246  0.00  0.00    -0.127 N 
ATOM     11  C   UNL d   1      13.587  14.023  -3.771  0.00  0.00     0.023 C 
ENDROOT
BRANCH   3  12
ATOM     12  C   UNL d   1      14.866  15.820  -1.863  0.00  0.00     0.085 A 
ATOM     13  C   UNL d   1      15.052  16.476  -2.323  0.00  0.00     0.019 A 
ATOM     14  C   UNL d   1      15.365  17.145  -1.972  0.00  0.00     0.002 A 
ATOM     15  C   UNL d   1      15.497  17.169  -1.158  0.00  0.00     0.000 A 
ATOM     16  C   UNL d   1      15.310  16.508  -0.690  0.00  0.00     0.002 A 
ATOM     17  C   UNL d   1      15.814  17.846  -0.805  0.00  0.00     0.000 C 
ATOM     18  C   UNL d   1      14.995  15.837  -1.046  0.00  0.00     0.019 A 
ENDBRANCH   3  12
BRANCH   6  19
ATOM     19  C   UNL d   1      13.698  12.571  -2.773  0.00  0.00     0.030 A 
ATOM     20  S   UNL d   1      14.028  12.283  -3.471  0.00  0.00    -0.086 SA
ATOM     21  C   UNL d   1      13.471  11.799  -3.842  0.00  0.00     0.035 A 
ATOM     22  C   UNL d   1      12.795  11.788  -3.369  0.00  0.00     0.007 A 
ATOM     23  C   UNL d   1      12.926  12.259  -2.712  0.00  0.00     0.007 A 
ENDBRANCH   6  19
BRANCH   8  24
ATOM     24  C   UNL d   1      14.217  11.991  -1.319  0.00  0.00     0.125 C 
ATOM     25  N   UNL d   1      13.951  11.779  -0.569  0.00  0.00    -0.146 N 
ENDBRANCH   8  24
TORSDOF 3
ENDMDL
