MODEL 1
REMARK VINA RESULT:      -2.1      0.000      0.000
REMARK  3 active torsions:
REMARK  status: ('A' for Active; 'I' for Inactive)
REMARK    1  A    between atoms: C_11  and  N_1 
REMARK    2  A    between atoms: C_3  and  C_2 
REMARK    3  A    between atoms: C_13  and  C_16 
ROOT
ATOM      1  N   UNL d   1      32.448  18.419 -23.719  0.00  0.00    -0.260 N 
ATOM      2  C   UNL d   1      31.912  17.384 -24.356  0.00  0.00     0.093 A 
ATOM      3  C   UNL d   1      32.725  18.458 -24.462  0.00  0.00     0.153 A 
ATOM      4  C   UNL d   1      31.942  17.762 -23.627  0.00  0.00     0.272 A 
ATOM      5  S   UNL d   1      32.398  17.819 -24.869  0.00  0.00    -0.053 SA
ATOM      6  S   UNL d   1      33.241  19.035 -24.758  0.00  0.00    -0.052 SA
ATOM      7  O   UNL d   1      31.544  17.528 -22.943  0.00  0.00    -0.266 OA
ENDROOT
BRANCH   2   8
ATOM      8  C   UNL d   1      31.495  16.715 -24.558  0.00  0.00     0.068 A 
ATOM      9  C   UNL d   1      31.838  15.994 -24.729  0.00  0.00     0.258 A 
ATOM     10  N   UNL d   1      31.263  15.458 -24.905  0.00  0.00    -0.321 N 
ATOM     11  O   UNL d   1      32.651  15.842 -24.723  0.00  0.00    -0.267 OA
ATOM     12  H   UNL d   1      31.388  14.667 -25.109  0.00  0.00     0.169 HD
ATOM     13  C   UNL d   1      30.533  15.842 -24.846  0.00  0.00     0.059 A 
ATOM     14  C   UNL d   1      30.668  16.616 -24.632  0.00  0.00     0.021 A 
ATOM     15  C   UNL d   1      29.752  15.564 -24.965  0.00  0.00     0.017 A 
ATOM     16  C   UNL d   1      30.043  17.134 -24.530  0.00  0.00     0.002 A 
ATOM     17  C   UNL d   1      29.270  16.874 -24.645  0.00  0.00     0.000 A 
ATOM     18  C   UNL d   1      29.123  16.089 -24.862  0.00  0.00     0.002 A 
ENDBRANCH   2   8
BRANCH   1  19
ATOM     19  C   UNL d   1      32.607  18.922 -23.103  0.00  0.00     0.068 A 
ATOM     20  C   UNL d   1      33.052  18.685 -22.463  0.00  0.00     0.018 A 
ATOM     21  C   UNL d   1      33.204  19.222 -21.837  0.00  0.00     0.008 A 
ATOM     22  C   UNL d   1      32.902  19.980 -21.878  0.00  0.00     0.065 A 
ATOM     23  C   UNL d   1      32.450  20.220 -22.528  0.00  0.00     0.008 A 
ATOM     24  C   UNL d   1      32.304  19.701 -23.130  0.00  0.00     0.018 A 
BRANCH  22  25
ATOM     25  C   UNL d   1      33.067  20.513 -21.232  0.00  0.00     0.211 C 
ATOM     26  O   UNL d   1      33.053  21.333 -21.358  0.00  0.00    -0.644 OA
ATOM     27  O   UNL d   1      33.241  20.213 -20.478  0.00  0.00    -0.644 OA
ENDBRANCH  22  25
ENDBRANCH   1  19
TORSDOF 3
ENDMDL
MODEL 2
REMARK VINA RESULT:       0.6      1.327      1.963
REMARK  3 active torsions:
REMARK  status: ('A' for Active; 'I' for Inactive)
REMARK    1  A    between atoms: C_11  and  N_1 
REMARK    2  A    between atoms: C_3  and  C_2 
REMARK    3  A    between atoms: C_13  and  C_16 
ROOT
ATOM      1  N   UNL d   1      32.710  20.099 -22.778  0.00  0.00    -0.260 N 
ATOM      2  C   UNL d   1      32.456  18.962 -23.418  0.00  0.00     0.093 A 
ATOM      3  C   UNL d   1      32.925  20.225 -23.532  0.00  0.00     0.153 A 
ATOM      4  C   UNL d   1      32.416  19.324 -22.682  0.00  0.00     0.272 A 
ATOM      5  S   UNL d   1      32.773  19.525 -23.941  0.00  0.00    -0.053 SA
ATOM      6  S   UNL d   1      33.241  20.928 -23.835  0.00  0.00    -0.052 SA
ATOM      7  O   UNL d   1      32.136  18.978 -21.986  0.00  0.00    -0.266 OA
ENDROOT
BRANCH   2   8
ATOM      8  C   UNL d   1      32.237  18.206 -23.619  0.00  0.00     0.068 A 
ATOM      9  C   UNL d   1      32.600  17.531 -23.337  0.00  0.00     0.258 A 
ATOM     10  N   UNL d   1      32.241  16.881 -23.650  0.00  0.00    -0.321 N 
ATOM     11  O   UNL d   1      33.239  17.521 -22.811  0.00  0.00    -0.267 OA
ATOM     12  H   UNL d   1      32.450  16.096 -23.499  0.00  0.00     0.169 HD
ATOM     13  C   UNL d   1      31.633  17.142 -24.145  0.00  0.00     0.059 A 
ATOM     14  C   UNL d   1      31.623  17.957 -24.131  0.00  0.00     0.021 A 
ATOM     15  C   UNL d   1      31.080  16.720 -24.611  0.00  0.00     0.017 A 
ATOM     16  C   UNL d   1      31.075  18.374 -24.572  0.00  0.00     0.002 A 
ATOM     17  C   UNL d   1      30.526  17.971 -25.035  0.00  0.00     0.000 A 
ATOM     18  C   UNL d   1      30.528  17.144 -25.055  0.00  0.00     0.002 A 
ENDBRANCH   2   8
BRANCH   1  19
ATOM     19  C   UNL d   1      32.750  20.619 -22.157  0.00  0.00     0.068 A 
ATOM     20  C   UNL d   1      33.055  20.395 -21.435  0.00  0.00     0.018 A 
ATOM     21  C   UNL d   1      33.088  20.949 -20.806  0.00  0.00     0.008 A 
ATOM     22  C   UNL d   1      32.813  21.709 -20.926  0.00  0.00     0.065 A 
ATOM     23  C   UNL d   1      32.504  21.934 -21.660  0.00  0.00     0.008 A 
ATOM     24  C   UNL d   1      32.473  21.399 -22.265  0.00  0.00     0.018 A 
BRANCH  22  25
ATOM     25  C   UNL d   1      32.854  22.259 -20.275  0.00  0.00     0.211 C 
ATOM     26  O   UNL d   1      32.658  23.056 -20.393  0.00  0.00    -0.644 OA
ATOM     27  O   UNL d   1      33.091  21.998 -19.523  0.00  0.00    -0.644 OA
ENDBRANCH  22  25
ENDBRANCH   1  19
TORSDOF 3
ENDMDL
