MODEL 1
REMARK VINA RESULT:      49.8      0.000      0.000
REMARK  5 active torsions:
REMARK  status: ('A' for Active; 'I' for Inactive)
REMARK    1  A    between atoms: N_3  and  C_1 
REMARK       I    between atoms: C_9  and  N_3 
REMARK       I    between atoms: N_5  and  C_8 
REMARK    2  A    between atoms: C_8  and  C_16 
REMARK    3  A    between atoms: C_17  and  C_9 
REMARK    4  A    between atoms: S_13  and  C_17 
REMARK    5  A    between atoms: C_16  and  S_13 
ROOT
ATOM      1  N   UNL d   1     -50.888  26.727  33.325  0.00  0.00    -0.183 NA
ATOM      2  C   UNL d   1     -50.071  26.755  33.468  0.00  0.00     0.287 C 
ATOM      3  O   UNL d   1     -49.645  26.051  33.569  0.00  0.00    -0.265 OA
ENDROOT
BRANCH   2   4
ATOM      4  C   UNL d   1     -49.681  27.475  33.510  0.00  0.00     0.098 C 
BRANCH   4   5
ATOM      5  S   UNL d   1     -49.310  27.713  34.214  0.00  0.00    -0.076 SA
BRANCH   5   6
ATOM      6  C   UNL d   1     -48.753  28.322  34.203  0.00  0.00     0.097 C 
BRANCH   6   7
ATOM      7  C   UNL d   1     -48.186  28.380  34.798  0.00  0.00     0.271 C 
ATOM      8  N   UNL d   1     -47.985  29.116  35.108  0.00  0.00    -0.272 N 
ATOM      9  C   UNL d   1     -47.420  29.171  35.700  0.00  0.00     0.083 A 
ATOM     10  C   UNL d   1     -48.353  29.802  34.823  0.00  0.00     0.083 A 
ATOM     11  C   UNL d   1     -47.222  29.909  36.008  0.00  0.00     0.018 A 
ATOM     12  C   UNL d   1     -46.655  29.967  36.603  0.00  0.00     0.002 C 
ATOM     13  C   UNL d   1     -47.593  30.589  35.719  0.00  0.00     0.003 A 
ATOM     14  C   UNL d   1     -48.163  30.535  35.121  0.00  0.00     0.019 A 
ATOM     15  O   UNL d   1     -47.823  27.699  35.079  0.00  0.00    -0.266 OA
ENDBRANCH   6   7
ENDBRANCH   5   6
ENDBRANCH   4   5
ENDBRANCH   2   4
BRANCH   1  16
ATOM     16  C   UNL d   1     -51.075  25.921  33.322  0.00  0.00     0.182 A 
ATOM     17  N   UNL d   1     -51.837  25.597  33.313  0.00  0.00    -0.283 N 
ATOM     18  C   UNL d   1     -51.768  24.770  33.313  0.00  0.00     0.072 A 
ATOM     19  C   UNL d   1     -52.534  26.025  33.307  0.00  0.00     0.101 C 
ATOM     20  C   UNL d   1     -52.324  24.166  33.306  0.00  0.00     0.017 A 
ATOM     21  C   UNL d   1     -50.962  24.583  33.321  0.00  0.00     0.048 A 
ATOM     22  C   UNL d   1     -52.089  23.387  33.307  0.00  0.00    -0.011 A 
ATOM     23  C   UNL d   1     -51.283  23.200  33.316  0.00  0.00     0.027 A 
ATOM     24  C   UNL d   1     -50.713  23.792  33.323  0.00  0.00    -0.004 A 
ATOM     25  S   UNL d   1     -50.531  25.294  33.327  0.00  0.00    -0.048 SA
ENDBRANCH   1  16
TORSDOF 5
ENDMDL
