MODEL 1
REMARK VINA RESULT:      -4.6      0.000      0.000
REMARK  5 active torsions:
REMARK  status: ('A' for Active; 'I' for Inactive)
REMARK    1  A    between atoms: N_6  and  S_1 
REMARK    2  A    between atoms: C_11  and  S_1 
REMARK    3  A    between atoms: C_2  and  N_5 
REMARK    4  A    between atoms: C_9  and  C_4 
REMARK       I    between atoms: N_5  and  C_7 
REMARK    5  A    between atoms: C_7  and  C_15 
ROOT
ATOM      1  C   UNL d   1      56.458   0.025  32.631  0.00  0.00     0.104 A 
ATOM      2  C   UNL d   1      57.467  -0.342  31.377  0.00  0.00     0.058 A 
ATOM      3  C   UNL d   1      57.053   0.554  32.408  0.00  0.00     0.013 A 
ATOM      4  C   UNL d   1      56.368  -0.708  32.212  0.00  0.00     0.013 A 
ATOM      5  C   UNL d   1      57.555   0.394  31.799  0.00  0.00     0.005 A 
ATOM      6  C   UNL d   1      56.877  -0.871  31.595  0.00  0.00     0.005 A 
ENDROOT
BRANCH   2   7
ATOM      7  C   UNL d   1      57.985  -0.533  30.731  0.00  0.00     0.281 C 
ATOM      8  N   UNL d   1      57.868  -1.229  30.301  0.00  0.00    -0.183 NA
ATOM      9  O   UNL d   1      58.613  -0.032  30.520  0.00  0.00    -0.265 OA
BRANCH   8  10
ATOM     10  C   UNL d   1      58.379  -1.408  29.673  0.00  0.00     0.197 A 
ATOM     11  N   UNL d   1      58.944  -2.038  29.743  0.00  0.00    -0.220 NA
ATOM     12  C   UNL d   1      59.360  -2.079  29.045  0.00  0.00     0.096 A 
ATOM     13  C   UNL d   1      59.077  -1.501  28.544  0.00  0.00     0.058 A 
ATOM     14  S   UNL d   1      58.471  -1.081  28.924  0.00  0.00    -0.046 SA
BRANCH  12  15
ATOM     15  C   UNL d   1      59.952  -2.582  28.838  0.00  0.00     0.048 A 
ATOM     16  S   UNL d   1      60.757  -2.469  28.687  0.00  0.00    -0.085 SA
ATOM     17  C   UNL d   1      61.078  -3.196  28.500  0.00  0.00     0.035 A 
ATOM     18  C   UNL d   1      60.511  -3.754  28.527  0.00  0.00     0.007 A 
ATOM     19  C   UNL d   1      59.797  -3.380  28.739  0.00  0.00     0.009 A 
ENDBRANCH  12  15
ENDBRANCH   8  10
ENDBRANCH   2   7
BRANCH   1  20
ATOM     20  S   UNL d   1      55.933   0.188  33.264  0.00  0.00     0.271 S 
ATOM     21  O   UNL d   1      55.328  -0.287  32.878  0.00  0.00    -0.200 OA
ATOM     22  O   UNL d   1      56.509   0.650  33.645  0.00  0.00    -0.200 OA
BRANCH  20  23
ATOM     23  N   UNL d   1      55.387   0.342  33.896  0.00  0.00    -0.229 N 
ATOM     24  C   UNL d   1      54.581   0.440  33.734  0.00  0.00     0.092 A 
ATOM     25  C   UNL d   1      54.049   0.591  34.355  0.00  0.00     0.020 A 
ATOM     26  C   UNL d   1      54.338   0.640  35.126  0.00  0.00     0.003 A 
ATOM     27  C   UNL d   1      55.137   0.542  35.282  0.00  0.00     0.020 A 
ATOM     28  C   UNL d   1      55.658   0.396  34.690  0.00  0.00     0.092 A 
ENDBRANCH  20  23
ENDBRANCH   1  20
TORSDOF 5
ENDMDL
