MODEL 1
REMARK VINA RESULT:      12.5      0.000      0.000
REMARK  1 active torsions:
REMARK  status: ('A' for Active; 'I' for Inactive)
REMARK    1  A    between atoms: N_4  and  C_1 
ROOT
ATOM      1  C   UNL d   1      58.715  49.706  50.459  0.00  0.00     0.735 A 
ATOM      2  N   UNL d   1      58.475  49.706  49.655  0.00  0.00    -0.059 NA
ATOM      3  N   UNL d   1      57.998  49.707  50.903  0.00  0.00    -0.059 NA
ATOM      4  C   UNL d   1      57.667  49.706  49.620  0.00  0.00     0.118 A 
ATOM      5  C   UNL d   1      57.373  49.706  50.392  0.00  0.00     0.118 A 
ATOM      6  C   UNL d   1      57.150  49.706  48.961  0.00  0.00     0.021 A 
ATOM      7  C   UNL d   1      56.557  49.707  50.512  0.00  0.00     0.021 A 
ATOM      8  C   UNL d   1      56.330  49.706  49.109  0.00  0.00     0.002 A 
ATOM      9  C   UNL d   1      56.035  49.706  49.881  0.00  0.00     0.002 A 
ENDROOT
BRANCH   1  10
ATOM     10  N   UNL d   1      59.494  49.706  50.705  0.00  0.00    -0.133 N 
ATOM     11  C   UNL d   1      60.197  49.706  50.332  0.00  0.00     0.125 A 
ATOM     12  C   UNL d   1      60.905  49.706  50.747  0.00  0.00     0.142 A 
ATOM     13  O   UNL d   1      60.913  49.707  51.567  0.00  0.00    -0.300 OA
ATOM     14  C   UNL d   1      60.151  49.707  51.974  0.00  0.00     0.142 A 
ATOM     15  C   UNL d   1      59.470  49.707  51.538  0.00  0.00     0.125 A 
ENDBRANCH   1  10
TORSDOF 1
ENDMDL
MODEL 2
REMARK VINA RESULT:      13.5      1.445      3.600
REMARK  1 active torsions:
REMARK  status: ('A' for Active; 'I' for Inactive)
REMARK    1  A    between atoms: N_4  and  C_1 
ROOT
ATOM      1  C   UNL d   1      58.271  49.668  50.503  0.00  0.00     0.735 A 
ATOM      2  N   UNL d   1      58.541  49.679  51.297  0.00  0.00    -0.059 NA
ATOM      3  N   UNL d   1      58.971  49.665  50.033  0.00  0.00    -0.059 NA
ATOM      4  C   UNL d   1      59.349  49.682  51.303  0.00  0.00     0.118 A 
ATOM      5  C   UNL d   1      59.615  49.674  50.521  0.00  0.00     0.118 A 
ATOM      6  C   UNL d   1      59.891  49.692  51.943  0.00  0.00     0.021 A 
ATOM      7  C   UNL d   1      60.426  49.675  50.370  0.00  0.00     0.021 A 
ATOM      8  C   UNL d   1      60.705  49.693  51.764  0.00  0.00     0.002 A 
ATOM      9  C   UNL d   1      60.971  49.685  50.982  0.00  0.00     0.002 A 
ENDROOT
BRANCH   1  10
ATOM     10  N   UNL d   1      57.484  49.663  50.286  0.00  0.00    -0.133 N 
ATOM     11  C   UNL d   1      56.795  49.638  50.684  0.00  0.00     0.125 A 
ATOM     12  C   UNL d   1      56.072  49.639  50.296  0.00  0.00     0.142 A 
ATOM     13  O   UNL d   1      56.034  49.666  49.477  0.00  0.00    -0.300 OA
ATOM     14  C   UNL d   1      56.780  49.692  49.043  0.00  0.00     0.142 A 
ATOM     15  C   UNL d   1      57.477  49.690  49.453  0.00  0.00     0.125 A 
ENDBRANCH   1  10
TORSDOF 1
ENDMDL
