MODEL 1
REMARK VINA RESULT:      -5.7      0.000      0.000
REMARK  2 active torsions:
REMARK  status: ('A' for Active; 'I' for Inactive)
REMARK    1  A    between atoms: N_7  and  C_3 
REMARK       I    between atoms: C_8  and  N_7 
REMARK    2  A    between atoms: C_10  and  C_8 
ROOT
ATOM      1  C   UNL d   1      59.414   0.580  30.424  0.00  0.00     0.343 A 
ATOM      2  N   UNL d   1      58.879   0.593  31.043  0.00  0.00    -0.241 N 
ATOM      3  C   UNL d   1      58.073   0.521  30.894  0.00  0.00     0.159 A 
ATOM      4  N   UNL d   1      59.146   0.494  29.647  0.00  0.00    -0.224 N 
ATOM      5  C   UNL d   1      57.805   0.435  30.117  0.00  0.00     0.099 A 
ATOM      6  C   UNL d   1      58.339   0.420  29.482  0.00  0.00     0.271 A 
ATOM      7  O   UNL d   1      60.224   0.652  30.575  0.00  0.00    -0.245 OA
ATOM      8  O   UNL d   1      58.074   0.335  28.713  0.00  0.00    -0.266 OA
ATOM      9  C   UNL d   1      59.147   0.679  31.819  0.00  0.00     0.105 C 
ATOM     10  C   UNL d   1      59.688   0.480  29.022  0.00  0.00     0.107 C 
ENDROOT
BRANCH   3  11
ATOM     11  N   UNL d   1      57.531   0.534  31.519  0.00  0.00    -0.190 NA
ATOM     12  C   UNL d   1      56.993  -0.083  31.612  0.00  0.00     0.280 C 
ATOM     13  O   UNL d   1      56.994  -0.716  31.081  0.00  0.00    -0.265 OA
BRANCH  12  14
ATOM     14  C   UNL d   1      56.454  -0.068  32.235  0.00  0.00     0.058 A 
ATOM     15  C   UNL d   1      56.086   0.628  32.421  0.00  0.00     0.006 A 
ATOM     16  C   UNL d   1      55.553   0.649  33.035  0.00  0.00     0.012 A 
ATOM     17  C   UNL d   1      55.378  -0.024  33.474  0.00  0.00     0.058 A 
ATOM     18  C   UNL d   1      55.770  -0.747  33.269  0.00  0.00     0.012 A 
ATOM     19 CL   UNL d   1      54.837  -0.006  34.098  0.00  0.00    -0.082 Cl
ATOM     20  C   UNL d   1      56.302  -0.768  32.656  0.00  0.00     0.006 A 
ENDBRANCH  12  14
ENDBRANCH   3  11
TORSDOF 2
ENDMDL
MODEL 2
REMARK VINA RESULT:      -4.7      1.285      1.517
REMARK  2 active torsions:
REMARK  status: ('A' for Active; 'I' for Inactive)
REMARK    1  A    between atoms: N_7  and  C_3 
REMARK       I    between atoms: C_8  and  N_7 
REMARK    2  A    between atoms: C_10  and  C_8 
ROOT
ATOM      1  C   UNL d   1      59.073  -0.401  29.451  0.00  0.00     0.343 A 
ATOM      2  N   UNL d   1      58.609  -0.114  30.061  0.00  0.00    -0.241 N 
ATOM      3  C   UNL d   1      58.096  -0.616  30.461  0.00  0.00     0.159 A 
ATOM      4  N   UNL d   1      59.027  -1.197  29.236  0.00  0.00    -0.224 N 
ATOM      5  C   UNL d   1      58.050  -1.413  30.247  0.00  0.00     0.099 A 
ATOM      6  C   UNL d   1      58.516  -1.714  29.629  0.00  0.00     0.271 A 
ATOM      7  O   UNL d   1      59.589   0.106  29.048  0.00  0.00    -0.245 OA
ATOM      8  O   UNL d   1      58.469  -2.503  29.417  0.00  0.00    -0.266 OA
ATOM      9  C   UNL d   1      58.656   0.682  30.276  0.00  0.00     0.105 C 
ATOM     10  C   UNL d   1      59.496  -1.487  28.619  0.00  0.00     0.107 C 
ENDROOT
BRANCH   3  11
ATOM     11  N   UNL d   1      57.627  -0.327  31.079  0.00  0.00    -0.190 NA
ATOM     12  C   UNL d   1      57.047  -0.807  31.415  0.00  0.00     0.280 C 
ATOM     13  O   UNL d   1      56.934  -1.576  31.137  0.00  0.00    -0.265 OA
BRANCH  12  14
ATOM     14  C   UNL d   1      56.581  -0.516  32.030  0.00  0.00     0.058 A 
ATOM     15  C   UNL d   1      56.258  -1.036  32.560  0.00  0.00     0.006 A 
ATOM     16  C   UNL d   1      55.797  -0.755  33.168  0.00  0.00     0.012 A 
ATOM     17  C   UNL d   1      55.650   0.049  33.258  0.00  0.00     0.058 A 
ATOM     18  C   UNL d   1      55.993   0.583  32.697  0.00  0.00     0.012 A 
ATOM     19 CL   UNL d   1      55.182   0.338  33.875  0.00  0.00    -0.082 Cl
ATOM     20  C   UNL d   1      56.454   0.303  32.089  0.00  0.00     0.006 A 
ENDBRANCH  12  14
ENDBRANCH   3  11
TORSDOF 2
ENDMDL
MODEL 3
REMARK VINA RESULT:      -4.4      2.330      4.208
REMARK  2 active torsions:
REMARK  status: ('A' for Active; 'I' for Inactive)
REMARK    1  A    between atoms: N_7  and  C_3 
REMARK       I    between atoms: C_8  and  N_7 
REMARK    2  A    between atoms: C_10  and  C_8 
ROOT
ATOM      1  C   UNL d   1      56.577   0.660  34.419  0.00  0.00     0.343 A 
ATOM      2  N   UNL d   1      56.996   0.659  33.716  0.00  0.00    -0.241 N 
ATOM      3  C   UNL d   1      56.597   0.637  32.998  0.00  0.00     0.159 A 
ATOM      4  N   UNL d   1      55.751   0.640  34.408  0.00  0.00    -0.224 N 
ATOM      5  C   UNL d   1      55.772   0.617  32.986  0.00  0.00     0.099 A 
ATOM      6  C   UNL d   1      55.336   0.618  33.693  0.00  0.00     0.271 A 
ATOM      7  O   UNL d   1      56.979   0.681  35.142  0.00  0.00    -0.245 OA
ATOM      8  O   UNL d   1      54.519   0.598  33.681  0.00  0.00    -0.266 OA
ATOM      9  C   UNL d   1      57.821   0.679  33.728  0.00  0.00     0.105 C 
ATOM     10  C   UNL d   1      55.328   0.641  35.119  0.00  0.00     0.107 C 
ENDROOT
BRANCH   3  11
ATOM     11  N   UNL d   1      57.020   0.636  32.286  0.00  0.00    -0.190 NA
ATOM     12  C   UNL d   1      56.943   0.005  31.761  0.00  0.00     0.280 C 
ATOM     13  O   UNL d   1      56.443  -0.627  31.945  0.00  0.00    -0.265 OA
BRANCH  12  14
ATOM     14  C   UNL d   1      57.365   0.006  31.054  0.00  0.00     0.058 A 
ATOM     15  C   UNL d   1      57.359   0.669  30.591  0.00  0.00     0.006 A 
ATOM     16  C   UNL d   1      57.774   0.676  29.891  0.00  0.00     0.012 A 
ATOM     17  C   UNL d   1      58.202   0.020  29.642  0.00  0.00     0.058 A 
ATOM     18  C   UNL d   1      58.201  -0.669  30.134  0.00  0.00     0.012 A 
ATOM     19 CL   UNL d   1      58.625   0.023  28.931  0.00  0.00    -0.082 Cl
ATOM     20  C   UNL d   1      57.786  -0.676  30.833  0.00  0.00     0.006 A 
ENDBRANCH  12  14
ENDBRANCH   3  11
TORSDOF 2
ENDMDL
MODEL 4
REMARK VINA RESULT:      -3.8      0.511      1.468
REMARK  2 active torsions:
REMARK  status: ('A' for Active; 'I' for Inactive)
REMARK    1  A    between atoms: N_7  and  C_3 
REMARK       I    between atoms: C_8  and  N_7 
REMARK    2  A    between atoms: C_10  and  C_8 
ROOT
ATOM      1  C   UNL d   1      58.559   0.639  29.331  0.00  0.00     0.343 A 
ATOM      2  N   UNL d   1      57.939   0.641  29.866  0.00  0.00    -0.241 N 
ATOM      3  C   UNL d   1      58.090   0.609  30.673  0.00  0.00     0.159 A 
ATOM      4  N   UNL d   1      59.338   0.605  29.602  0.00  0.00    -0.224 N 
ATOM      5  C   UNL d   1      58.870   0.576  30.944  0.00  0.00     0.099 A 
ATOM      6  C   UNL d   1      59.506   0.573  30.411  0.00  0.00     0.271 A 
ATOM      7  O   UNL d   1      58.406   0.671  28.518  0.00  0.00    -0.245 OA
ATOM      8  O   UNL d   1      60.278   0.540  30.680  0.00  0.00    -0.266 OA
ATOM      9  C   UNL d   1      57.160   0.675  29.594  0.00  0.00     0.105 C 
ATOM     10  C   UNL d   1      59.964   0.604  29.061  0.00  0.00     0.107 C 
ENDROOT
BRANCH   3  11
ATOM     11  N   UNL d   1      57.464   0.611  31.215  0.00  0.00    -0.190 NA
ATOM     12  C   UNL d   1      57.276  -0.076  31.629  0.00  0.00     0.280 C 
ATOM     13  O   UNL d   1      57.710  -0.767  31.505  0.00  0.00    -0.265 OA
BRANCH  12  14
ATOM     14  C   UNL d   1      56.652  -0.071  32.168  0.00  0.00     0.058 A 
ATOM     15  C   UNL d   1      56.379  -0.774  32.462  0.00  0.00     0.006 A 
ATOM     16  C   UNL d   1      55.763  -0.776  32.994  0.00  0.00     0.012 A 
ATOM     17  C   UNL d   1      55.410  -0.076  33.242  0.00  0.00     0.058 A 
ATOM     18  C   UNL d   1      55.705   0.654  32.928  0.00  0.00     0.012 A 
ATOM     19 CL   UNL d   1      54.785  -0.074  33.783  0.00  0.00    -0.082 Cl
ATOM     20  C   UNL d   1      56.320   0.656  32.396  0.00  0.00     0.006 A 
ENDBRANCH  12  14
ENDBRANCH   3  11
TORSDOF 2
ENDMDL
