MODEL 1
REMARK VINA RESULT:      -3.5      0.000      0.000
REMARK  6 active torsions:
REMARK  status: ('A' for Active; 'I' for Inactive)
REMARK    1  A    between atoms: C_10  and  N_1 
REMARK    2  A    between atoms: S_14  and  C_6 
REMARK       I    between atoms: N_7  and  C_11 
REMARK    3  A    between atoms: C_22  and  N_9 
REMARK    4  A    between atoms: C_13  and  C_10 
REMARK    5  A    between atoms: C_11  and  C_16 
REMARK    6  A    between atoms: C_16  and  S_14 
ROOT
ATOM      1  N   UNL d   1      59.338  -1.577  28.803  0.00  0.00    -0.192 N 
ATOM      2  N   UNL d   1      58.530  -1.469  28.752  0.00  0.00    -0.058 NA
ATOM      3  C   UNL d   1      59.645  -0.962  29.251  0.00  0.00     0.189 A 
ATOM      4  C   UNL d   1      59.014  -0.478  29.473  0.00  0.00     0.164 A 
ATOM      5  N   UNL d   1      58.329  -0.804  29.157  0.00  0.00    -0.125 NA
ATOM      6  C   UNL d   1      59.143   0.186  29.927  0.00  0.00     0.135 A 
ATOM      7  N   UNL d   1      60.404  -0.782  29.484  0.00  0.00    -0.203 NA
ATOM      8  N   UNL d   1      59.912   0.374  30.166  0.00  0.00    -0.216 NA
ATOM      9  C   UNL d   1      60.543  -0.109  29.945  0.00  0.00     0.201 A 
ENDROOT
BRANCH   6  10
ATOM     10  S   UNL d   1      58.512   0.669  30.149  0.00  0.00    -0.061 SA
BRANCH  10  11
ATOM     11  C   UNL d   1      58.187   0.607  30.892  0.00  0.00     0.098 C 
BRANCH  11  12
ATOM     12  C   UNL d   1      57.368   0.638  30.985  0.00  0.00     0.272 C 
ATOM     13  N   UNL d   1      57.048   0.640  31.749  0.00  0.00    -0.269 N 
ATOM     14  C   UNL d   1      57.544   0.612  32.410  0.00  0.00     0.102 A 
ATOM     15  C   UNL d   1      56.230   0.671  31.859  0.00  0.00     0.102 A 
ATOM     16  C   UNL d   1      57.224   0.614  33.174  0.00  0.00     0.100 A 
ATOM     17  N   UNL d   1      56.406   0.645  33.276  0.00  0.00    -0.301 N 
ATOM     18  C   UNL d   1      55.908   0.674  32.614  0.00  0.00     0.100 A 
ATOM     19  O   UNL d   1      56.872   0.667  30.333  0.00  0.00    -0.266 OA
BRANCH  17  20
ATOM     20  C   UNL d   1      56.084   0.647  34.038  0.00  0.00     0.064 A 
ATOM     21  C   UNL d   1      55.266   0.639  34.140  0.00  0.00     0.018 A 
ATOM     22  C   UNL d   1      54.953   0.642  34.902  0.00  0.00     0.002 A 
ATOM     23  C   UNL d   1      55.441   0.652  35.548  0.00  0.00     0.000 A 
ATOM     24  C   UNL d   1      56.259   0.660  35.446  0.00  0.00     0.002 A 
ATOM     25  C   UNL d   1      56.581   0.658  34.683  0.00  0.00     0.018 A 
ENDBRANCH  17  20
ENDBRANCH  11  12
ENDBRANCH  10  11
ENDBRANCH   6  10
BRANCH   1  26
ATOM     26  C   UNL d   1      59.771  -2.206  28.456  0.00  0.00     0.106 C 
BRANCH  26  27
ATOM     27  C   UNL d   1      59.562  -2.997  28.611  0.00  0.00     0.047 A 
ATOM     28  C   UNL d   1      60.137  -3.531  28.865  0.00  0.00     0.142 A 
ATOM     29  F   UNL d   1      60.917  -3.297  28.969  0.00  0.00    -0.204 F 
ATOM     30  C   UNL d   1      59.937  -4.307  29.017  0.00  0.00     0.030 A 
ATOM     31  C   UNL d   1      59.155  -4.557  28.916  0.00  0.00     0.002 A 
ATOM     32  C   UNL d   1      58.573  -4.022  28.661  0.00  0.00     0.000 A 
ATOM     33  C   UNL d   1      58.787  -3.255  28.514  0.00  0.00     0.004 A 
ENDBRANCH  26  27
ENDBRANCH   1  26
TORSDOF 6
ENDMDL
MODEL 2
REMARK VINA RESULT:      -0.7      1.017      1.591
REMARK  6 active torsions:
REMARK  status: ('A' for Active; 'I' for Inactive)
REMARK    1  A    between atoms: C_10  and  N_1 
REMARK    2  A    between atoms: S_14  and  C_6 
REMARK       I    between atoms: N_7  and  C_11 
REMARK    3  A    between atoms: C_22  and  N_9 
REMARK    4  A    between atoms: C_13  and  C_10 
REMARK    5  A    between atoms: C_11  and  C_16 
REMARK    6  A    between atoms: C_16  and  S_14 
ROOT
ATOM      1  N   UNL d   1      59.408  -1.254  29.467  0.00  0.00    -0.192 N 
ATOM      2  N   UNL d   1      59.844  -1.153  30.151  0.00  0.00    -0.058 NA
ATOM      3  C   UNL d   1      58.741  -0.779  29.525  0.00  0.00     0.189 A 
ATOM      4  C   UNL d   1      58.776  -0.388  30.251  0.00  0.00     0.164 A 
ATOM      5  N   UNL d   1      59.465  -0.629  30.629  0.00  0.00    -0.125 NA
ATOM      6  C   UNL d   1      58.186   0.128  30.471  0.00  0.00     0.135 A 
ATOM      7  N   UNL d   1      58.116  -0.653  29.019  0.00  0.00    -0.203 NA
ATOM      8  N   UNL d   1      57.548   0.261  29.962  0.00  0.00    -0.216 NA
ATOM      9  C   UNL d   1      57.513  -0.130  29.236  0.00  0.00     0.201 A 
ENDROOT
BRANCH   6  10
ATOM     10  S   UNL d   1      58.222   0.519  31.197  0.00  0.00    -0.061 SA
BRANCH  10  11
ATOM     11  C   UNL d   1      57.543   0.653  31.626  0.00  0.00     0.098 C 
BRANCH  11  12
ATOM     12  C   UNL d   1      57.560   0.591  32.449  0.00  0.00     0.272 C 
ATOM     13  N   UNL d   1      56.846   0.592  32.869  0.00  0.00    -0.269 N 
ATOM     14  C   UNL d   1      56.125   0.655  32.467  0.00  0.00     0.102 A 
ATOM     15  C   UNL d   1      56.846   0.530  33.691  0.00  0.00     0.102 A 
ATOM     16  C   UNL d   1      55.412   0.656  32.887  0.00  0.00     0.100 A 
ATOM     17  N   UNL d   1      55.419   0.594  33.709  0.00  0.00    -0.301 N 
ATOM     18  C   UNL d   1      56.140   0.531  34.112  0.00  0.00     0.100 A 
ATOM     19  O   UNL d   1      58.272   0.528  32.851  0.00  0.00    -0.266 OA
BRANCH  17  20
ATOM     20  C   UNL d   1      54.707   0.595  34.130  0.00  0.00     0.064 A 
ATOM     21  C   UNL d   1      53.989   0.635  33.725  0.00  0.00     0.018 A 
ATOM     22  C   UNL d   1      53.284   0.635  34.151  0.00  0.00     0.002 A 
ATOM     23  C   UNL d   1      53.290   0.598  34.959  0.00  0.00     0.000 A 
ATOM     24  C   UNL d   1      54.008   0.558  35.364  0.00  0.00     0.002 A 
ATOM     25  C   UNL d   1      54.721   0.557  34.943  0.00  0.00     0.018 A 
ENDBRANCH  17  20
ENDBRANCH  11  12
ENDBRANCH  10  11
ENDBRANCH   6  10
BRANCH   1  26
ATOM     26  C   UNL d   1      59.610  -1.753  28.826  0.00  0.00     0.106 C 
BRANCH  26  27
ATOM     27  C   UNL d   1      59.727  -2.569  28.947  0.00  0.00     0.047 A 
ATOM     28  C   UNL d   1      60.484  -2.857  29.107  0.00  0.00     0.142 A 
ATOM     29  F   UNL d   1      61.129  -2.351  29.149  0.00  0.00    -0.204 F 
ATOM     30  C   UNL d   1      60.603  -3.654  29.226  0.00  0.00     0.030 A 
ATOM     31  C   UNL d   1      59.961  -4.175  29.187  0.00  0.00     0.002 A 
ATOM     32  C   UNL d   1      59.197  -3.890  29.026  0.00  0.00     0.000 A 
ATOM     33  C   UNL d   1      59.096  -3.095  28.910  0.00  0.00     0.004 A 
ENDBRANCH  26  27
ENDBRANCH   1  26
TORSDOF 6
ENDMDL
