MODEL 1
REMARK VINA RESULT:      -4.4      0.000      0.000
REMARK  3 active torsions:
REMARK  status: ('A' for Active; 'I' for Inactive)
REMARK    1  A    between atoms: N_5  and  C_1 
REMARK    2  A    between atoms: C_8  and  C_3 
REMARK       I    between atoms: C_7  and  N_5 
REMARK    3  A    between atoms: C_13  and  C_7 
ROOT
ATOM      1  C   UNL d   1      33.007  19.007 -22.812  0.00  0.00     0.297 A 
ATOM      2  O   UNL d   1      32.871  19.405 -22.100  0.00  0.00    -0.253 OA
ATOM      3  C   UNL d   1      33.017  20.213 -22.228  0.00  0.00     0.206 A 
ATOM      4  N   UNL d   1      33.241  20.305 -23.014  0.00  0.00    -0.119 NA
ATOM      5  N   UNL d   1      33.235  19.561 -23.375  0.00  0.00    -0.101 NA
ENDROOT
BRANCH   3   6
ATOM      6  C   UNL d   1      32.946  20.813 -21.657  0.00  0.00     0.043 A 
ATOM      7  C   UNL d   1      32.580  21.526 -21.857  0.00  0.00     0.004 A 
ATOM      8  C   UNL d   1      32.510  22.117 -21.295  0.00  0.00     0.000 A 
ATOM      9  C   UNL d   1      32.142  22.828 -21.503  0.00  0.00     0.000 A 
ATOM     10  C   UNL d   1      32.806  21.994 -20.538  0.00  0.00     0.000 A 
ATOM     11  C   UNL d   1      32.069  23.422 -20.949  0.00  0.00     0.000 A 
ATOM     12  C   UNL d   1      32.362  23.312 -20.181  0.00  0.00     0.000 A 
ATOM     13  C   UNL d   1      32.731  22.607 -19.965  0.00  0.00     0.000 A 
ATOM     14  C   UNL d   1      33.167  21.301 -20.329  0.00  0.00     0.000 A 
ATOM     15  C   UNL d   1      33.241  20.703 -20.886  0.00  0.00     0.004 A 
ENDBRANCH   3   6
BRANCH   1  16
ATOM     16  N   UNL d   1      32.926  18.192 -22.928  0.00  0.00    -0.165 NA
ATOM     17  C   UNL d   1      32.361  17.902 -23.445  0.00  0.00     0.282 C 
ATOM     18  O   UNL d   1      31.863  18.421 -23.861  0.00  0.00    -0.265 OA
BRANCH  17  19
ATOM     19  C   UNL d   1      32.283  17.087 -23.559  0.00  0.00     0.058 A 
ATOM     20  C   UNL d   1      31.529  16.753 -23.554  0.00  0.00     0.005 A 
ATOM     21  C   UNL d   1      31.449  15.935 -23.667  0.00  0.00     0.000 A 
ATOM     22  C   UNL d   1      32.114  15.461 -23.783  0.00  0.00     0.000 A 
ATOM     23  C   UNL d   1      32.864  15.805 -23.786  0.00  0.00     0.000 A 
ATOM     24  C   UNL d   1      32.951  16.621 -23.674  0.00  0.00     0.005 A 
ENDBRANCH  17  19
ENDBRANCH   1  16
TORSDOF 3
ENDMDL
MODEL 2
REMARK VINA RESULT:      -4.2      1.048      5.556
REMARK  3 active torsions:
REMARK  status: ('A' for Active; 'I' for Inactive)
REMARK    1  A    between atoms: N_5  and  C_1 
REMARK    2  A    between atoms: C_8  and  C_3 
REMARK       I    between atoms: C_7  and  N_5 
REMARK    3  A    between atoms: C_13  and  C_7 
ROOT
ATOM      1  C   UNL d   1      33.021  20.304 -21.759  0.00  0.00     0.297 A 
ATOM      2  O   UNL d   1      32.851  20.021 -22.518  0.00  0.00    -0.253 OA
ATOM      3  C   UNL d   1      32.969  19.199 -22.515  0.00  0.00     0.206 A 
ATOM      4  N   UNL d   1      33.208  18.984 -21.758  0.00  0.00    -0.119 NA
ATOM      5  N   UNL d   1      33.241  19.666 -21.291  0.00  0.00    -0.101 NA
ENDROOT
BRANCH   3   6
ATOM      6  C   UNL d   1      32.860  18.693 -23.166  0.00  0.00     0.043 A 
ATOM      7  C   UNL d   1      32.404  18.010 -23.080  0.00  0.00     0.004 A 
ATOM      8  C   UNL d   1      32.298  17.511 -23.721  0.00  0.00     0.000 A 
ATOM      9  C   UNL d   1      31.840  16.828 -23.627  0.00  0.00     0.000 A 
ATOM     10  C   UNL d   1      32.645  17.697 -24.441  0.00  0.00     0.000 A 
ATOM     11  C   UNL d   1      31.729  16.327 -24.260  0.00  0.00     0.000 A 
ATOM     12  C   UNL d   1      32.074  16.501 -24.994  0.00  0.00     0.000 A 
ATOM     13  C   UNL d   1      32.531  17.179 -25.096  0.00  0.00     0.000 A 
ATOM     14  C   UNL d   1      33.094  18.363 -24.539  0.00  0.00     0.000 A 
ATOM     15  C   UNL d   1      33.207  18.868 -23.902  0.00  0.00     0.004 A 
ENDBRANCH   3   6
BRANCH   1  16
ATOM     16  N   UNL d   1      32.975  21.096 -21.522  0.00  0.00    -0.165 NA
ATOM     17  C   UNL d   1      32.404  21.334 -20.986  0.00  0.00     0.282 C 
ATOM     18  O   UNL d   1      31.864  20.786 -20.672  0.00  0.00    -0.265 OA
BRANCH  17  19
ATOM     19  C   UNL d   1      32.361  22.125 -20.752  0.00  0.00     0.058 A 
ATOM     20  C   UNL d   1      32.493  22.316 -19.961  0.00  0.00     0.005 A 
ATOM     21  C   UNL d   1      32.449  23.111 -19.724  0.00  0.00     0.000 A 
ATOM     22  C   UNL d   1      32.276  23.702 -20.273  0.00  0.00     0.000 A 
ATOM     23  C   UNL d   1      32.145  23.500 -21.062  0.00  0.00     0.000 A 
ATOM     24  C   UNL d   1      32.187  22.710 -21.305  0.00  0.00     0.005 A 
ENDBRANCH  17  19
ENDBRANCH   1  16
TORSDOF 3
ENDMDL
MODEL 3
REMARK VINA RESULT:      -2.7      0.996      1.350
REMARK  3 active torsions:
REMARK  status: ('A' for Active; 'I' for Inactive)
REMARK    1  A    between atoms: N_5  and  C_1 
REMARK    2  A    between atoms: C_8  and  C_3 
REMARK       I    between atoms: C_7  and  N_5 
REMARK    3  A    between atoms: C_13  and  C_7 
ROOT
ATOM      1  C   UNL d   1      32.566  19.441 -22.553  0.00  0.00     0.297 A 
ATOM      2  O   UNL d   1      32.368  20.233 -22.419  0.00  0.00    -0.253 OA
ATOM      3  C   UNL d   1      32.789  20.491 -21.751  0.00  0.00     0.206 A 
ATOM      4  N   UNL d   1      33.240  19.858 -21.480  0.00  0.00    -0.119 NA
ATOM      5  N   UNL d   1      33.102  19.210 -21.976  0.00  0.00    -0.101 NA
ENDROOT
BRANCH   3   6
ATOM      6  C   UNL d   1      32.753  21.254 -21.422  0.00  0.00     0.043 A 
ATOM      7  C   UNL d   1      32.925  21.361 -20.621  0.00  0.00     0.004 A 
ATOM      8  C   UNL d   1      32.890  22.113 -20.297  0.00  0.00     0.000 A 
ATOM      9  C   UNL d   1      33.063  22.213 -19.494  0.00  0.00     0.000 A 
ATOM     10  C   UNL d   1      32.685  22.751 -20.773  0.00  0.00     0.000 A 
ATOM     11  C   UNL d   1      33.031  22.957 -19.164  0.00  0.00     0.000 A 
ATOM     12  C   UNL d   1      32.825  23.611 -19.632  0.00  0.00     0.000 A 
ATOM     13  C   UNL d   1      32.651  23.520 -20.433  0.00  0.00     0.000 A 
ATOM     14  C   UNL d   1      32.514  22.658 -21.559  0.00  0.00     0.000 A 
ATOM     15  C   UNL d   1      32.547  21.910 -21.892  0.00  0.00     0.004 A 
ENDBRANCH   3   6
BRANCH   1  16
ATOM     16  N   UNL d   1      32.269  18.971 -23.167  0.00  0.00    -0.165 NA
ATOM     17  C   UNL d   1      32.423  18.167 -23.182  0.00  0.00     0.282 C 
ATOM     18  O   UNL d   1      32.877  17.812 -22.585  0.00  0.00    -0.265 OA
BRANCH  17  19
ATOM     19  C   UNL d   1      32.125  17.701 -23.796  0.00  0.00     0.058 A 
ATOM     20  C   UNL d   1      31.356  17.409 -23.740  0.00  0.00     0.005 A 
ATOM     21  C   UNL d   1      31.056  16.940 -24.356  0.00  0.00     0.000 A 
ATOM     22  C   UNL d   1      31.520  16.768 -25.016  0.00  0.00     0.000 A 
ATOM     23  C   UNL d   1      32.289  17.065 -25.062  0.00  0.00     0.000 A 
ATOM     24  C   UNL d   1      32.595  17.534 -24.451  0.00  0.00     0.005 A 
ENDBRANCH  17  19
ENDBRANCH   1  16
TORSDOF 3
ENDMDL
MODEL 4
REMARK VINA RESULT:      -1.6      0.702      5.421
REMARK  3 active torsions:
REMARK  status: ('A' for Active; 'I' for Inactive)
REMARK    1  A    between atoms: N_5  and  C_1 
REMARK    2  A    between atoms: C_8  and  C_3 
REMARK       I    between atoms: C_7  and  N_5 
REMARK    3  A    between atoms: C_13  and  C_7 
ROOT
ATOM      1  C   UNL d   1      33.136  19.971 -22.593  0.00  0.00     0.297 A 
ATOM      2  O   UNL d   1      32.920  19.184 -22.461  0.00  0.00    -0.253 OA
ATOM      3  C   UNL d   1      32.877  18.804 -23.198  0.00  0.00     0.206 A 
ATOM      4  N   UNL d   1      33.067  19.359 -23.775  0.00  0.00    -0.119 NA
ATOM      5  N   UNL d   1      33.227  20.079 -23.402  0.00  0.00    -0.101 NA
ENDROOT
BRANCH   3   6
ATOM      6  C   UNL d   1      32.677  18.006 -23.320  0.00  0.00     0.043 A 
ATOM      7  C   UNL d   1      31.916  17.810 -23.575  0.00  0.00     0.004 A 
ATOM      8  C   UNL d   1      31.720  17.025 -23.696  0.00  0.00     0.000 A 
ATOM      9  C   UNL d   1      30.956  16.836 -23.951  0.00  0.00     0.000 A 
ATOM     10  C   UNL d   1      32.282  16.441 -23.562  0.00  0.00     0.000 A 
ATOM     11  C   UNL d   1      30.752  16.056 -24.073  0.00  0.00     0.000 A 
ATOM     12  C   UNL d   1      31.309  15.456 -23.942  0.00  0.00     0.000 A 
ATOM     13  C   UNL d   1      32.073  15.635 -23.688  0.00  0.00     0.000 A 
ATOM     14  C   UNL d   1      33.031  16.619 -23.312  0.00  0.00     0.000 A 
ATOM     15  C   UNL d   1      33.237  17.404 -23.188  0.00  0.00     0.004 A 
ENDBRANCH   3   6
BRANCH   1  16
ATOM     16  N   UNL d   1      33.241  20.544 -22.004  0.00  0.00    -0.165 NA
ATOM     17  C   UNL d   1      32.601  20.971 -21.725  0.00  0.00     0.282 C 
ATOM     18  O   UNL d   1      31.839  20.836 -22.026  0.00  0.00    -0.265 OA
BRANCH  17  19
ATOM     19  C   UNL d   1      32.710  21.542 -21.137  0.00  0.00     0.058 A 
ATOM     20  C   UNL d   1      32.489  22.321 -21.291  0.00  0.00     0.005 A 
ATOM     21  C   UNL d   1      32.598  22.896 -20.702  0.00  0.00     0.000 A 
ATOM     22  C   UNL d   1      32.922  22.691 -19.971  0.00  0.00     0.000 A 
ATOM     23  C   UNL d   1      33.139  21.908 -19.828  0.00  0.00     0.000 A 
ATOM     24  C   UNL d   1      33.034  21.330 -20.411  0.00  0.00     0.005 A 
ENDBRANCH  17  19
ENDBRANCH   1  16
TORSDOF 3
ENDMDL
