MODEL 1
REMARK VINA RESULT:      73.8      0.000      0.000
REMARK  3 active torsions:
REMARK  status: ('A' for Active; 'I' for Inactive)
REMARK    1  A    between atoms: C_13  and  N_3 
REMARK    2  A    between atoms: C_10  and  C_6 
REMARK    3  A    between atoms: C_11  and  C_8 
ROOT
ATOM      1  C   UNL d   1     -51.018  26.234  33.941  0.00  0.00     0.167 A 
ATOM      2  C   UNL d   1     -51.272  25.454  33.820  0.00  0.00     0.056 A 
ATOM      3  N   UNL d   1     -50.212  26.220  34.138  0.00  0.00    -0.212 N 
ATOM      4  N   UNL d   1     -49.961  25.420  34.138  0.00  0.00    -0.164 NA
ATOM      5  N   UNL d   1     -51.554  26.855  33.857  0.00  0.00    -0.206 NA
ATOM      6  C   UNL d   1     -52.055  25.302  33.616  0.00  0.00     0.015 A 
ATOM      7  C   UNL d   1     -50.618  24.947  33.942  0.00  0.00     0.104 A 
ATOM      8  C   UNL d   1     -52.589  25.918  33.532  0.00  0.00     0.059 A 
ATOM      9  C   UNL d   1     -52.336  26.694  33.653  0.00  0.00     0.187 A 
ATOM     10  N   UNL d   1     -52.869  27.314  33.569  0.00  0.00    -0.127 N 
ATOM     11  C   UNL d   1     -50.622  24.130  33.879  0.00  0.00     0.023 C 
ENDROOT
BRANCH   3  12
ATOM     12  C   UNL d   1     -49.740  26.878  34.303  0.00  0.00     0.085 A 
ATOM     13  C   UNL d   1     -49.594  27.438  33.718  0.00  0.00     0.019 A 
ATOM     14  C   UNL d   1     -49.127  28.089  33.885  0.00  0.00     0.002 A 
ATOM     15  C   UNL d   1     -48.800  28.190  34.635  0.00  0.00     0.000 A 
ATOM     16  C   UNL d   1     -48.945  27.626  35.228  0.00  0.00     0.002 A 
ATOM     17  C   UNL d   1     -48.328  28.848  34.800  0.00  0.00     0.000 C 
ATOM     18  C   UNL d   1     -49.416  26.972  35.058  0.00  0.00     0.019 A 
ENDBRANCH   3  12
BRANCH   6  19
ATOM     19  C   UNL d   1     -52.300  24.523  33.497  0.00  0.00     0.030 A 
ATOM     20  S   UNL d   1     -51.814  23.861  33.427  0.00  0.00    -0.086 SA
ATOM     21  C   UNL d   1     -52.293  23.198  33.313  0.00  0.00     0.035 A 
ATOM     22  C   UNL d   1     -53.078  23.454  33.314  0.00  0.00     0.007 A 
ATOM     23  C   UNL d   1     -53.090  24.264  33.426  0.00  0.00     0.007 A 
ENDBRANCH   6  19
BRANCH   8  24
ATOM     24  C   UNL d   1     -53.372  25.766  33.328  0.00  0.00     0.125 C 
ATOM     25  N   UNL d   1     -53.920  26.380  33.320  0.00  0.00    -0.146 N 
ENDBRANCH   8  24
TORSDOF 3
ENDMDL
