MODEL 1
REMARK VINA RESULT:      -3.4      0.000      0.000
REMARK  10 active torsions:
REMARK  status: ('A' for Active; 'I' for Inactive)
REMARK    1  A    between atoms: C_5  and  C_1 
REMARK    2  A    between atoms: C_8  and  N_2 
REMARK    3  A    between atoms: C_9  and  C_5 
REMARK    4  A    between atoms: C_7  and  C_8 
REMARK       I    between atoms: N_13  and  C_7 
REMARK       I    between atoms: N_19  and  C_9 
REMARK    5  A    between atoms: N_11  and  C_21 
REMARK    6  A    between atoms: C_24  and  N_13 
REMARK    7  A    between atoms: C_25  and  N_13 
REMARK    8  A    between atoms: C_26  and  N_19 
REMARK    9  A    between atoms: C_21  and  C_23 
REMARK   10  A    between atoms: C_23  and  C_26 
ROOT
ATOM      1  C   UNL d   1      58.850  -0.362  29.814  0.00  0.00     0.063 A 
ATOM      2  N   UNL d   1      59.227  -1.321  28.958  0.00  0.00    -0.300 N 
ATOM      3  C   UNL d   1      58.602  -1.063  29.429  0.00  0.00     0.084 A 
ATOM      4  C   UNL d   1      59.622  -0.200  29.575  0.00  0.00     0.021 A 
ATOM      5  C   UNL d   1      59.855  -0.799  29.041  0.00  0.00     0.064 A 
ATOM      6  C   UNL d   1      60.142   0.402  29.765  0.00  0.00     0.002 A 
ATOM      7  C   UNL d   1      60.610  -0.776  28.711  0.00  0.00     0.018 A 
ATOM      8  C   UNL d   1      60.901   0.426  29.433  0.00  0.00     0.000 A 
ATOM      9  C   UNL d   1      61.130  -0.167  28.906  0.00  0.00     0.002 A 
ENDROOT
BRANCH   1  10
ATOM     10  C   UNL d   1      58.397   0.081  30.338  0.00  0.00     0.254 C 
ATOM     11  O   UNL d   1      58.647   0.165  31.122  0.00  0.00    -0.281 OA
BRANCH  10  12
ATOM     12  C   UNL d   1      57.699   0.442  30.089  0.00  0.00     0.318 C 
ATOM     13  O   UNL d   1      57.595   0.613  29.290  0.00  0.00    -0.262 OA
ATOM     14  N   UNL d   1      57.114   0.627  30.640  0.00  0.00    -0.204 NA
BRANCH  14  15
ATOM     15  C   UNL d   1      57.227   0.453  31.432  0.00  0.00     0.104 C 
BRANCH  15  16
ATOM     16  C   UNL d   1      56.583   0.473  31.943  0.00  0.00     0.040 C 
BRANCH  16  17
ATOM     17  C   UNL d   1      56.606   0.036  32.649  0.00  0.00     0.083 C 
BRANCH  17  18
ATOM     18  N   UNL d   1      55.958   0.053  33.172  0.00  0.00    -0.285 N 
ATOM     19  C   UNL d   1      55.288  -0.426  33.117  0.00  0.00     0.183 A 
ATOM     20  N   UNL d   1      54.789  -0.219  33.752  0.00  0.00    -0.222 NA
ATOM     21  C   UNL d   1      55.157   0.387  34.194  0.00  0.00     0.120 A 
ATOM     22  C   UNL d   1      55.883   0.548  33.824  0.00  0.00     0.102 A 
ENDBRANCH  17  18
ENDBRANCH  16  17
ENDBRANCH  15  16
ENDBRANCH  14  15
ENDBRANCH  10  12
ENDBRANCH   1  10
BRANCH   2  23
ATOM     23  C   UNL d   1      59.221  -1.995  28.481  0.00  0.00     0.142 C 
BRANCH  23  24
ATOM     24  C   UNL d   1      58.782  -2.652  28.699  0.00  0.00     0.282 C 
ATOM     25  N   UNL d   1      59.124  -3.402  28.688  0.00  0.00    -0.271 N 
ATOM     26  O   UNL d   1      57.993  -2.561  28.930  0.00  0.00    -0.265 OA
BRANCH  25  27
ATOM     27  C   UNL d   1      59.910  -3.494  28.458  0.00  0.00     0.083 C 
ATOM     28  C   UNL d   1      60.377  -4.068  28.812  0.00  0.00     0.021 C 
ENDBRANCH  25  27
BRANCH  25  29
ATOM     29  C   UNL d   1      58.677  -4.062  28.909  0.00  0.00     0.083 C 
ATOM     30  C   UNL d   1      58.751  -4.768  28.488  0.00  0.00     0.021 C 
ENDBRANCH  25  29
ENDBRANCH  23  24
ENDBRANCH   2  23
TORSDOF 10
ENDMDL
