MODEL 1
REMARK VINA RESULT:      -2.6      0.000      0.000
REMARK  4 active torsions:
REMARK  status: ('A' for Active; 'I' for Inactive)
REMARK    1  A    between atoms: C_5  and  N_1 
REMARK    2  A    between atoms: C_9  and  C_3 
REMARK    3  A    between atoms: C_7  and  C_5 
REMARK    4  A    between atoms: O_10  and  C_8 
ROOT
ATOM      1  N   UNL d   1      31.878  17.233 -24.671  0.00  0.00    -0.289 N 
ATOM      2  N   UNL d   1      31.570  15.927 -24.514  0.00  0.00    -0.227 NA
ATOM      3  C   UNL d   1      32.202  16.467 -24.615  0.00  0.00     0.148 A 
ATOM      4  C   UNL d   1      31.047  17.171 -24.606  0.00  0.00     0.083 A 
ATOM      5  C   UNL d   1      30.855  16.363 -24.508  0.00  0.00     0.099 A 
ATOM      6  C   UNL d   1      30.432  17.732 -24.620  0.00  0.00     0.019 A 
ATOM      7  C   UNL d   1      30.069  16.126 -24.428  0.00  0.00     0.021 A 
ATOM      8  C   UNL d   1      29.642  17.496 -24.539  0.00  0.00     0.002 A 
ATOM      9  C   UNL d   1      29.461  16.695 -24.443  0.00  0.00     0.002 A 
ENDROOT
BRANCH   1  10
ATOM     10  C   UNL d   1      32.296  17.937 -24.774  0.00  0.00     0.083 C 
BRANCH  10  11
ATOM     11  C   UNL d   1      32.572  18.355 -24.131  0.00  0.00     0.040 A 
ATOM     12  C   UNL d   1      32.868  19.109 -24.233  0.00  0.00     0.096 A 
ATOM     13  C   UNL d   1      33.148  19.533 -23.583  0.00  0.00     0.024 A 
ATOM     14  C   UNL d   1      33.129  19.195 -22.830  0.00  0.00     0.002 A 
ATOM     15  C   UNL d   1      32.830  18.434 -22.729  0.00  0.00     0.000 A 
ATOM     16  C   UNL d   1      32.551  18.014 -23.381  0.00  0.00     0.004 A 
BRANCH  12  17
ATOM     17  O   UNL d   1      32.887  19.445 -24.979  0.00  0.00    -0.328 OA
ATOM     18  C   UNL d   1      33.241  20.184 -25.097  0.00  0.00     0.181 C 
ENDBRANCH  12  17
ENDBRANCH  10  11
ENDBRANCH   1  10
BRANCH   3  19
ATOM     19  C   UNL d   1      33.002  16.274 -24.652  0.00  0.00     0.037 C 
ATOM     20  C   UNL d   1      33.231  15.483 -24.672  0.00  0.00     0.003 C 
ENDBRANCH   3  19
TORSDOF 4
ENDMDL
MODEL 2
REMARK VINA RESULT:      -1.2      1.428      3.796
REMARK  4 active torsions:
REMARK  status: ('A' for Active; 'I' for Inactive)
REMARK    1  A    between atoms: C_5  and  N_1 
REMARK    2  A    between atoms: C_9  and  C_3 
REMARK    3  A    between atoms: C_7  and  C_5 
REMARK    4  A    between atoms: O_10  and  C_8 
ROOT
ATOM      1  N   UNL d   1      33.232  18.990 -23.517  0.00  0.00    -0.289 N 
ATOM      2  N   UNL d   1      33.222  20.334 -23.384  0.00  0.00    -0.227 NA
ATOM      3  C   UNL d   1      33.225  19.709 -23.941  0.00  0.00     0.148 A 
ATOM      4  C   UNL d   1      33.234  19.167 -22.700  0.00  0.00     0.083 A 
ATOM      5  C   UNL d   1      33.228  19.999 -22.617  0.00  0.00     0.099 A 
ATOM      6  C   UNL d   1      33.240  18.693 -22.016  0.00  0.00     0.019 A 
ATOM      7  C   UNL d   1      33.228  20.344 -21.868  0.00  0.00     0.021 A 
ATOM      8  C   UNL d   1      33.241  19.038 -21.263  0.00  0.00     0.002 A 
ATOM      9  C   UNL d   1      33.235  19.862 -21.190  0.00  0.00     0.002 A 
ENDROOT
BRANCH   1  10
ATOM     10  C   UNL d   1      33.236  18.230 -23.839  0.00  0.00     0.083 C 
BRANCH  10  11
ATOM     11  C   UNL d   1      32.540  17.868 -24.062  0.00  0.00     0.040 A 
ATOM     12  C   UNL d   1      32.541  17.077 -24.264  0.00  0.00     0.096 A 
ATOM     13  C   UNL d   1      31.838  16.710 -24.490  0.00  0.00     0.024 A 
ATOM     14  C   UNL d   1      31.134  17.142 -24.512  0.00  0.00     0.002 A 
ATOM     15  C   UNL d   1      31.136  17.940 -24.308  0.00  0.00     0.000 A 
ATOM     16  C   UNL d   1      31.841  18.302 -24.083  0.00  0.00     0.004 A 
BRANCH  12  17
ATOM     17  O   UNL d   1      33.237  16.648 -24.243  0.00  0.00    -0.328 OA
ATOM     18  C   UNL d   1      33.227  15.827 -24.342  0.00  0.00     0.181 C 
ENDBRANCH  12  17
ENDBRANCH  10  11
ENDBRANCH   1  10
BRANCH   3  19
ATOM     19  C   UNL d   1      33.220  19.790 -24.760  0.00  0.00     0.037 C 
ATOM     20  C   UNL d   1      33.188  20.541 -25.097  0.00  0.00     0.003 C 
ENDBRANCH   3  19
TORSDOF 4
ENDMDL
MODEL 3
REMARK VINA RESULT:      -0.5      1.951      4.055
REMARK  4 active torsions:
REMARK  status: ('A' for Active; 'I' for Inactive)
REMARK    1  A    between atoms: C_5  and  N_1 
REMARK    2  A    between atoms: C_9  and  C_3 
REMARK    3  A    between atoms: C_7  and  C_5 
REMARK    4  A    between atoms: O_10  and  C_8 
ROOT
ATOM      1  N   UNL d   1      30.803  16.541 -24.196  0.00  0.00    -0.289 N 
ATOM      2  N   UNL d   1      31.476  17.704 -24.061  0.00  0.00    -0.227 NA
ATOM      3  C   UNL d   1      30.747  17.367 -24.299  0.00  0.00     0.148 A 
ATOM      4  C   UNL d   1      31.562  16.364 -23.894  0.00  0.00     0.083 A 
ATOM      5  C   UNL d   1      31.979  17.084 -23.810  0.00  0.00     0.099 A 
ATOM      6  C   UNL d   1      31.938  15.653 -23.682  0.00  0.00     0.019 A 
ATOM      7  C   UNL d   1      32.752  17.089 -23.522  0.00  0.00     0.021 A 
ATOM      8  C   UNL d   1      32.714  15.656 -23.392  0.00  0.00     0.002 A 
ATOM      9  C   UNL d   1      33.120  16.372 -23.312  0.00  0.00     0.002 A 
ENDROOT
BRANCH   1  10
ATOM     10  C   UNL d   1      30.215  15.984 -24.359  0.00  0.00     0.083 C 
BRANCH  10  11
ATOM     11  C   UNL d   1      29.642  15.809 -23.806  0.00  0.00     0.040 A 
ATOM     12  C   UNL d   1      28.884  15.630 -24.050  0.00  0.00     0.096 A 
ATOM     13  C   UNL d   1      28.303  15.453 -23.492  0.00  0.00     0.024 A 
ATOM     14  C   UNL d   1      28.489  15.456 -22.687  0.00  0.00     0.002 A 
ATOM     15  C   UNL d   1      29.255  15.637 -22.443  0.00  0.00     0.000 A 
ATOM     16  C   UNL d   1      29.831  15.814 -23.004  0.00  0.00     0.004 A 
BRANCH  12  17
ATOM     17  O   UNL d   1      28.699  15.627 -24.847  0.00  0.00    -0.328 OA
ATOM     18  C   UNL d   1      27.923  15.483 -25.097  0.00  0.00     0.181 C 
ENDBRANCH  12  17
ENDBRANCH  10  11
ENDBRANCH   1  10
BRANCH   3  19
ATOM     19  C   UNL d   1      30.094  17.778 -24.585  0.00  0.00     0.037 C 
ATOM     20  C   UNL d   1      30.204  18.448 -25.051  0.00  0.00     0.003 C 
ENDBRANCH   3  19
TORSDOF 4
ENDMDL
MODEL 4
REMARK VINA RESULT:      -0.4      1.609      2.570
REMARK  4 active torsions:
REMARK  status: ('A' for Active; 'I' for Inactive)
REMARK    1  A    between atoms: C_5  and  N_1 
REMARK    2  A    between atoms: C_9  and  C_3 
REMARK    3  A    between atoms: C_7  and  C_5 
REMARK    4  A    between atoms: O_10  and  C_8 
ROOT
ATOM      1  N   UNL d   1      30.176  16.489 -23.999  0.00  0.00    -0.289 N 
ATOM      2  N   UNL d   1      28.994  16.489 -23.345  0.00  0.00    -0.227 NA
ATOM      3  C   UNL d   1      29.736  16.106 -23.403  0.00  0.00     0.148 A 
ATOM      4  C   UNL d   1      29.710  17.109 -24.311  0.00  0.00     0.083 A 
ATOM      5  C   UNL d   1      28.978  17.110 -23.907  0.00  0.00     0.099 A 
ATOM      6  C   UNL d   1      29.843  17.676 -24.906  0.00  0.00     0.019 A 
ATOM      7  C   UNL d   1      28.397  17.664 -24.095  0.00  0.00     0.021 A 
ATOM      8  C   UNL d   1      29.260  18.233 -25.097  0.00  0.00     0.002 A 
ATOM      9  C   UNL d   1      28.539  18.227 -24.692  0.00  0.00     0.002 A 
ENDROOT
BRANCH   1  10
ATOM     10  C   UNL d   1      30.940  16.298 -24.246  0.00  0.00     0.083 C 
BRANCH  10  11
ATOM     11  C   UNL d   1      31.587  16.683 -23.934  0.00  0.00     0.040 A 
ATOM     12  C   UNL d   1      32.339  16.409 -24.094  0.00  0.00     0.096 A 
ATOM     13  C   UNL d   1      32.995  16.798 -23.779  0.00  0.00     0.024 A 
ATOM     14  C   UNL d   1      32.890  17.465 -23.302  0.00  0.00     0.002 A 
ATOM     15  C   UNL d   1      32.130  17.740 -23.142  0.00  0.00     0.000 A 
ATOM     16  C   UNL d   1      31.479  17.348 -23.459  0.00  0.00     0.004 A 
BRANCH  12  17
ATOM     17  O   UNL d   1      32.444  15.749 -24.566  0.00  0.00    -0.328 OA
ATOM     18  C   UNL d   1      33.196  15.549 -24.846  0.00  0.00     0.181 C 
ENDBRANCH  12  17
ENDBRANCH  10  11
ENDBRANCH   1  10
BRANCH   3  19
ATOM     19  C   UNL d   1      29.986  15.464 -22.951  0.00  0.00     0.037 C 
ATOM     20  C   UNL d   1      29.838  15.453 -22.141  0.00  0.00     0.003 C 
ENDBRANCH   3  19
TORSDOF 4
ENDMDL
