MODEL 1
REMARK VINA RESULT:       3.2      0.000      0.000
REMARK  6 active torsions:
REMARK  status: ('A' for Active; 'I' for Inactive)
REMARK    1  A    between atoms: C_9  and  N_1 
REMARK    2  A    between atoms: C_8  and  C_3 
REMARK       I    between atoms: N_12  and  C_8 
REMARK    3  A    between atoms: C_17  and  C_9 
REMARK    4  A    between atoms: C_23  and  N_12 
REMARK    5  A    between atoms: C_13  and  C_23 
REMARK    6  A    between atoms: C_20  and  C_17 
ROOT
ATOM      1  N   UNL d   1     -41.227-122.470 -51.026  0.00  0.00    -0.273 N 
ATOM      2  C   UNL d   1     -41.241-122.993 -51.656  0.00  0.00     0.177 A 
ATOM      3  C   UNL d   1     -41.228-122.554 -52.356  0.00  0.00     0.115 A 
ATOM      4  C   UNL d   1     -41.205-121.699 -51.325  0.00  0.00     0.167 A 
ATOM      5  C   UNL d   1     -41.205-121.751 -52.148  0.00  0.00     0.123 A 
ATOM      6  N   UNL d   1     -41.185-120.963 -50.958  0.00  0.00    -0.225 NA
ATOM      7  N   UNL d   1     -41.186-121.067 -52.605  0.00  0.00    -0.241 NA
ATOM      8  C   UNL d   1     -41.165-120.278 -51.414  0.00  0.00     0.101 A 
ATOM      9  C   UNL d   1     -41.165-120.330 -52.238  0.00  0.00     0.099 A 
ATOM     10  N   UNL d   1     -41.264-123.816 -51.601  0.00  0.00    -0.128 N 
ATOM     11  C   UNL d   1     -41.145-119.540 -51.047  0.00  0.00     0.021 A 
ATOM     12  C   UNL d   1     -41.146-119.644 -52.695  0.00  0.00     0.021 A 
ATOM     13  C   UNL d   1     -41.125-118.851 -51.504  0.00  0.00     0.002 A 
ATOM     14  C   UNL d   1     -41.125-118.903 -52.328  0.00  0.00     0.002 A 
ENDROOT
BRANCH   1  15
ATOM     15  C   UNL d   1     -41.234-122.670 -50.224  0.00  0.00     0.083 C 
BRANCH  15  16
ATOM     16  C   UNL d   1     -41.953-122.736 -49.823  0.00  0.00     0.021 C 
BRANCH  16  17
ATOM     17  C   UNL d   1     -41.952-122.931 -49.022  0.00  0.00     0.029 A 
ATOM     18  C   UNL d   1     -42.647-122.869 -48.592  0.00  0.00     0.140 A 
ATOM     19  F   UNL d   1     -43.236-122.602 -49.116  0.00  0.00    -0.204 F 
ATOM     20  C   UNL d   1     -42.657-123.059 -47.800  0.00  0.00     0.030 A 
ATOM     21  C   UNL d   1     -41.957-123.315 -47.430  0.00  0.00     0.002 A 
ATOM     22  C   UNL d   1     -41.265-123.375 -47.867  0.00  0.00     0.000 A 
ATOM     23  C   UNL d   1     -41.264-123.183 -48.661  0.00  0.00     0.002 A 
ENDBRANCH  16  17
ENDBRANCH  15  16
ENDBRANCH   1  15
BRANCH   3  24
ATOM     24  C   UNL d   1     -41.235-122.852 -53.127  0.00  0.00     0.284 C 
ATOM     25  N   UNL d   1     -41.348-122.335 -53.760  0.00  0.00    -0.204 NA
ATOM     26  O   UNL d   1     -41.131-123.658 -53.264  0.00  0.00    -0.265 OA
BRANCH  25  27
ATOM     27  C   UNL d   1     -41.355-122.635 -54.540  0.00  0.00     0.127 C 
BRANCH  27  28
ATOM     28  C   UNL d   1     -41.831-122.287 -55.109  0.00  0.00     0.119 A 
ATOM     29  O   UNL d   1     -42.642-122.402 -55.193  0.00  0.00    -0.304 OA
ATOM     30  C   UNL d   1     -42.896-121.948 -55.833  0.00  0.00     0.123 A 
ATOM     31  C   UNL d   1     -42.227-121.554 -56.139  0.00  0.00     0.029 A 
ATOM     32  C   UNL d   1     -41.584-121.764 -55.695  0.00  0.00     0.028 A 
ENDBRANCH  27  28
ENDBRANCH  25  27
ENDBRANCH   3  24
TORSDOF 6
ENDMDL
