MODEL 1
REMARK VINA RESULT:      -3.1      0.000      0.000
REMARK  4 active torsions:
REMARK  status: ('A' for Active; 'I' for Inactive)
REMARK       I    between atoms: N_2  and  C_1 
REMARK    1  A    between atoms: O_3  and  C_1 
REMARK    2  A    between atoms: C_5  and  O_3 
REMARK    3  A    between atoms: O_8  and  C_7 
REMARK    4  A    between atoms: C_10  and  O_8 
ROOT
ATOM      1  C   UNL d   1      32.028  16.946 -23.577  0.00  0.00     0.107 A 
ATOM      2  C   UNL d   1      31.288  16.940 -23.944  0.00  0.00     0.050 A 
ATOM      3  C   UNL d   1      30.974  16.232 -24.233  0.00  0.00     0.102 A 
ATOM      4  C   UNL d   1      32.138  15.534 -23.789  0.00  0.00     0.004 A 
ATOM      5  C   UNL d   1      32.453  16.242 -23.500  0.00  0.00     0.025 A 
ATOM      6  C   UNL d   1      31.399  15.530 -24.156  0.00  0.00     0.025 A 
ENDROOT
BRANCH   1   7
ATOM      7  O   UNL d   1      32.342  17.653 -23.288  0.00  0.00    -0.259 OA
BRANCH   7   8
ATOM      8  C   UNL d   1      32.601  18.243 -23.797  0.00  0.00     0.378 C 
ATOM      9  N   UNL d   1      32.793  19.005 -23.514  0.00  0.00    -0.247 N 
ATOM     10  C   UNL d   1      32.719  19.166 -22.701  0.00  0.00     0.112 A 
ATOM     11  C   UNL d   1      33.053  19.592 -24.036  0.00  0.00     0.112 A 
ATOM     12  C   UNL d   1      32.908  19.918 -22.413  0.00  0.00     0.142 A 
ATOM     13  O   UNL d   1      33.169  20.510 -22.928  0.00  0.00    -0.300 OA
ATOM     14  C   UNL d   1      33.241  20.343 -23.748  0.00  0.00     0.142 A 
ATOM     15  O   UNL d   1      32.672  18.067 -24.628  0.00  0.00    -0.237 OA
ENDBRANCH   7   8
ENDBRANCH   1   7
BRANCH   3  16
ATOM     16  O   UNL d   1      30.235  16.227 -24.599  0.00  0.00    -0.307 OA
BRANCH  16  17
ATOM     17  C   UNL d   1      29.546  16.217 -24.142  0.00  0.00     0.100 A 
ATOM     18  C   UNL d   1      29.306  15.519 -23.773  0.00  0.00     0.025 A 
ATOM     19  C   UNL d   1      28.617  15.508 -23.316  0.00  0.00     0.002 A 
ATOM     20  C   UNL d   1      28.169  16.196 -23.227  0.00  0.00     0.000 A 
ATOM     21  C   UNL d   1      28.417  16.894 -23.600  0.00  0.00     0.002 A 
ATOM     22  C   UNL d   1      29.099  16.904 -24.053  0.00  0.00     0.025 A 
ENDBRANCH  16  17
ENDBRANCH   3  16
TORSDOF 4
ENDMDL
MODEL 2
REMARK VINA RESULT:      -2.5      1.202      2.009
REMARK  4 active torsions:
REMARK  status: ('A' for Active; 'I' for Inactive)
REMARK       I    between atoms: N_2  and  C_1 
REMARK    1  A    between atoms: O_3  and  C_1 
REMARK    2  A    between atoms: C_5  and  O_3 
REMARK    3  A    between atoms: O_8  and  C_7 
REMARK    4  A    between atoms: C_10  and  O_8 
ROOT
ATOM      1  C   UNL d   1      32.601  18.456 -23.551  0.00  0.00     0.107 A 
ATOM      2  C   UNL d   1      32.128  17.801 -23.381  0.00  0.00     0.050 A 
ATOM      3  C   UNL d   1      32.201  17.109 -23.827  0.00  0.00     0.102 A 
ATOM      4  C   UNL d   1      33.221  17.725 -24.615  0.00  0.00     0.004 A 
ATOM      5  C   UNL d   1      33.147  18.417 -24.168  0.00  0.00     0.025 A 
ATOM      6  C   UNL d   1      32.748  17.071 -24.444  0.00  0.00     0.025 A 
ENDROOT
BRANCH   1   7
ATOM      7  O   UNL d   1      32.528  19.147 -23.105  0.00  0.00    -0.259 OA
BRANCH   7   8
ATOM      8  C   UNL d   1      32.877  19.215 -22.365  0.00  0.00     0.378 C 
ATOM      9  N   UNL d   1      32.880  19.942 -21.953  0.00  0.00    -0.247 N 
ATOM     10  C   UNL d   1      32.521  20.607 -22.302  0.00  0.00     0.112 A 
ATOM     11  C   UNL d   1      33.235  19.998 -21.208  0.00  0.00     0.112 A 
ATOM     12  C   UNL d   1      32.520  21.329 -21.900  0.00  0.00     0.142 A 
ATOM     13  O   UNL d   1      32.873  21.395 -21.154  0.00  0.00    -0.300 OA
ATOM     14  C   UNL d   1      33.233  20.720 -20.807  0.00  0.00     0.142 A 
ATOM     15  O   UNL d   1      33.241  18.527 -22.017  0.00  0.00    -0.237 OA
ENDBRANCH   7   8
ENDBRANCH   1   7
BRANCH   3  16
ATOM     16  O   UNL d   1      31.728  16.455 -23.656  0.00  0.00    -0.307 OA
BRANCH  16  17
ATOM     17  C   UNL d   1      30.970  16.396 -23.982  0.00  0.00     0.100 A 
ATOM     18  C   UNL d   1      30.315  16.651 -23.551  0.00  0.00     0.025 A 
ATOM     19  C   UNL d   1      29.557  16.592 -23.877  0.00  0.00     0.002 A 
ATOM     20  C   UNL d   1      29.455  16.278 -24.632  0.00  0.00     0.000 A 
ATOM     21  C   UNL d   1      30.119  16.023 -25.060  0.00  0.00     0.002 A 
ATOM     22  C   UNL d   1      30.869  16.082 -24.738  0.00  0.00     0.025 A 
ENDBRANCH  16  17
ENDBRANCH   3  16
TORSDOF 4
ENDMDL
MODEL 3
REMARK VINA RESULT:      -2.5      1.397      4.256
REMARK  4 active torsions:
REMARK  status: ('A' for Active; 'I' for Inactive)
REMARK       I    between atoms: N_2  and  C_1 
REMARK    1  A    between atoms: O_3  and  C_1 
REMARK    2  A    between atoms: C_5  and  O_3 
REMARK    3  A    between atoms: O_8  and  C_7 
REMARK    4  A    between atoms: C_10  and  O_8 
ROOT
ATOM      1  C   UNL d   1      31.420  16.073 -24.135  0.00  0.00     0.107 A 
ATOM      2  C   UNL d   1      31.933  16.504 -23.653  0.00  0.00     0.050 A 
ATOM      3  C   UNL d   1      32.721  16.615 -23.880  0.00  0.00     0.102 A 
ATOM      4  C   UNL d   1      32.483  15.864 -25.071  0.00  0.00     0.004 A 
ATOM      5  C   UNL d   1      31.696  15.753 -24.845  0.00  0.00     0.025 A 
ATOM      6  C   UNL d   1      32.995  16.295 -24.589  0.00  0.00     0.025 A 
ENDROOT
BRANCH   1   7
ATOM      7  O   UNL d   1      30.633  15.962 -23.909  0.00  0.00    -0.259 OA
BRANCH   7   8
ATOM      8  C   UNL d   1      30.046  16.490 -24.136  0.00  0.00     0.378 C 
ATOM      9  N   UNL d   1      29.273  16.437 -23.826  0.00  0.00    -0.247 N 
ATOM     10  C   UNL d   1      29.097  15.838 -23.276  0.00  0.00     0.112 A 
ATOM     11  C   UNL d   1      28.690  16.974 -24.063  0.00  0.00     0.112 A 
ATOM     12  C   UNL d   1      28.333  15.779 -22.964  0.00  0.00     0.142 A 
ATOM     13  O   UNL d   1      27.744  16.312 -23.195  0.00  0.00    -0.300 OA
ATOM     14  C   UNL d   1      27.927  16.915 -23.751  0.00  0.00     0.142 A 
ATOM     15  O   UNL d   1      30.238  17.100 -24.700  0.00  0.00    -0.237 OA
ENDBRANCH   7   8
ENDBRANCH   1   7
BRANCH   3  16
ATOM     16  O   UNL d   1      33.233  17.045 -23.398  0.00  0.00    -0.307 OA
BRANCH  16  17
ATOM     17  C   UNL d   1      33.184  17.871 -23.375  0.00  0.00     0.100 A 
ATOM     18  C   UNL d   1      33.241  18.307 -24.073  0.00  0.00     0.025 A 
ATOM     19  C   UNL d   1      33.192  19.132 -24.050  0.00  0.00     0.002 A 
ATOM     20  C   UNL d   1      33.087  19.520 -23.330  0.00  0.00     0.000 A 
ATOM     21  C   UNL d   1      33.031  19.075 -22.632  0.00  0.00     0.002 A 
ATOM     22  C   UNL d   1      33.079  18.259 -22.655  0.00  0.00     0.025 A 
ENDBRANCH  16  17
ENDBRANCH   3  16
TORSDOF 4
ENDMDL
MODEL 4
REMARK VINA RESULT:      -2.0      1.590      4.996
REMARK  4 active torsions:
REMARK  status: ('A' for Active; 'I' for Inactive)
REMARK       I    between atoms: N_2  and  C_1 
REMARK    1  A    between atoms: O_3  and  C_1 
REMARK    2  A    between atoms: C_5  and  O_3 
REMARK    3  A    between atoms: O_8  and  C_7 
REMARK    4  A    between atoms: C_10  and  O_8 
ROOT
ATOM      1  C   UNL d   1      33.047  19.020 -23.222  0.00  0.00     0.107 A 
ATOM      2  C   UNL d   1      33.057  19.304 -22.447  0.00  0.00     0.050 A 
ATOM      3  C   UNL d   1      33.150  20.113 -22.303  0.00  0.00     0.102 A 
ATOM      4  C   UNL d   1      33.225  20.355 -23.709  0.00  0.00     0.004 A 
ATOM      5  C   UNL d   1      33.131  19.546 -23.852  0.00  0.00     0.025 A 
ATOM      6  C   UNL d   1      33.234  20.638 -22.934  0.00  0.00     0.025 A 
ENDROOT
BRANCH   1   7
ATOM      7  O   UNL d   1      32.954  18.212 -23.365  0.00  0.00    -0.259 OA
BRANCH   7   8
ATOM      8  C   UNL d   1      32.237  17.906 -23.624  0.00  0.00     0.378 C 
ATOM      9  N   UNL d   1      32.135  17.086 -23.744  0.00  0.00    -0.247 N 
ATOM     10  C   UNL d   1      32.773  16.572 -23.597  0.00  0.00     0.112 A 
ATOM     11  C   UNL d   1      31.408  16.789 -24.005  0.00  0.00     0.112 A 
ATOM     12  C   UNL d   1      32.679  15.758 -23.713  0.00  0.00     0.142 A 
ATOM     13  O   UNL d   1      31.956  15.453 -23.974  0.00  0.00    -0.300 OA
ATOM     14  C   UNL d   1      31.315  15.976 -24.121  0.00  0.00     0.142 A 
ATOM     15  O   UNL d   1      31.590  18.442 -23.772  0.00  0.00    -0.237 OA
ENDBRANCH   7   8
ENDBRANCH   1   7
BRANCH   3  16
ATOM     16  O   UNL d   1      33.160  20.397 -21.529  0.00  0.00    -0.307 OA
BRANCH  16  17
ATOM     17  C   UNL d   1      32.811  21.125 -21.350  0.00  0.00     0.100 A 
ATOM     18  C   UNL d   1      32.098  21.151 -20.937  0.00  0.00     0.025 A 
ATOM     19  C   UNL d   1      31.749  21.880 -20.758  0.00  0.00     0.002 A 
ATOM     20  C   UNL d   1      32.115  22.581 -20.992  0.00  0.00     0.000 A 
ATOM     21  C   UNL d   1      32.832  22.547 -21.407  0.00  0.00     0.002 A 
ATOM     22  C   UNL d   1      33.177  21.826 -21.584  0.00  0.00     0.025 A 
ENDBRANCH  16  17
ENDBRANCH   3  16
TORSDOF 4
ENDMDL
MODEL 5
REMARK VINA RESULT:      -1.1      2.347      5.594
REMARK  4 active torsions:
REMARK  status: ('A' for Active; 'I' for Inactive)
REMARK       I    between atoms: N_2  and  C_1 
REMARK    1  A    between atoms: O_3  and  C_1 
REMARK    2  A    between atoms: C_5  and  O_3 
REMARK    3  A    between atoms: O_8  and  C_7 
REMARK    4  A    between atoms: C_10  and  O_8 
ROOT
ATOM      1  C   UNL d   1      33.081  20.253 -22.045  0.00  0.00     0.107 A 
ATOM      2  C   UNL d   1      33.142  21.076 -22.037  0.00  0.00     0.050 A 
ATOM      3  C   UNL d   1      33.180  21.483 -21.317  0.00  0.00     0.102 A 
ATOM      4  C   UNL d   1      33.095  20.243 -20.613  0.00  0.00     0.004 A 
ATOM      5  C   UNL d   1      33.057  19.837 -21.333  0.00  0.00     0.025 A 
ATOM      6  C   UNL d   1      33.156  21.066 -20.606  0.00  0.00     0.025 A 
ENDROOT
BRANCH   1   7
ATOM      7  O   UNL d   1      33.043  19.848 -22.763  0.00  0.00    -0.259 OA
BRANCH   7   8
ATOM      8  C   UNL d   1      32.987  19.029 -22.788  0.00  0.00     0.378 C 
ATOM      9  N   UNL d   1      32.738  18.632 -23.479  0.00  0.00    -0.247 N 
ATOM     10  C   UNL d   1      32.545  19.079 -24.155  0.00  0.00     0.112 A 
ATOM     11  C   UNL d   1      32.685  17.807 -23.492  0.00  0.00     0.112 A 
ATOM     12  C   UNL d   1      32.298  18.693 -24.843  0.00  0.00     0.142 A 
ATOM     13  O   UNL d   1      32.242  17.868 -24.865  0.00  0.00    -0.300 OA
ATOM     14  C   UNL d   1      32.438  17.423 -24.180  0.00  0.00     0.142 A 
ATOM     15  O   UNL d   1      33.188  18.582 -22.090  0.00  0.00    -0.237 OA
ENDBRANCH   7   8
ENDBRANCH   1   7
BRANCH   3  16
ATOM     16  O   UNL d   1      33.241  22.305 -21.310  0.00  0.00    -0.307 OA
BRANCH  16  17
ATOM     17  C   UNL d   1      32.589  22.767 -21.098  0.00  0.00     0.100 A 
ATOM     18  C   UNL d   1      32.068  23.037 -21.678  0.00  0.00     0.025 A 
ATOM     19  C   UNL d   1      31.415  23.499 -21.466  0.00  0.00     0.002 A 
ATOM     20  C   UNL d   1      31.285  23.690 -20.674  0.00  0.00     0.000 A 
ATOM     21  C   UNL d   1      31.813  23.415 -20.097  0.00  0.00     0.002 A 
ATOM     22  C   UNL d   1      32.458  22.959 -20.306  0.00  0.00     0.025 A 
ENDBRANCH  16  17
ENDBRANCH   3  16
TORSDOF 4
ENDMDL
MODEL 6
REMARK VINA RESULT:      -0.9      3.158      6.368
REMARK  4 active torsions:
REMARK  status: ('A' for Active; 'I' for Inactive)
REMARK       I    between atoms: N_2  and  C_1 
REMARK    1  A    between atoms: O_3  and  C_1 
REMARK    2  A    between atoms: C_5  and  O_3 
REMARK    3  A    between atoms: O_8  and  C_7 
REMARK    4  A    between atoms: C_10  and  O_8 
ROOT
ATOM      1  C   UNL d   1      32.734  20.840 -21.139  0.00  0.00     0.107 A 
ATOM      2  C   UNL d   1      33.176  21.372 -20.689  0.00  0.00     0.050 A 
ATOM      3  C   UNL d   1      32.798  21.984 -20.280  0.00  0.00     0.102 A 
ATOM      4  C   UNL d   1      31.536  21.531 -20.770  0.00  0.00     0.004 A 
ATOM      5  C   UNL d   1      31.914  20.920 -21.179  0.00  0.00     0.025 A 
ATOM      6  C   UNL d   1      31.978  22.063 -20.321  0.00  0.00     0.025 A 
ENDROOT
BRANCH   1   7
ATOM      7  O   UNL d   1      33.112  20.229 -21.547  0.00  0.00    -0.259 OA
BRANCH   7   8
ATOM      8  C   UNL d   1      33.140  20.220 -22.368  0.00  0.00     0.378 C 
ATOM      9  N   UNL d   1      33.171  19.501 -22.792  0.00  0.00    -0.247 N 
ATOM     10  C   UNL d   1      33.172  18.782 -22.371  0.00  0.00     0.112 A 
ATOM     11  C   UNL d   1      33.199  19.504 -23.618  0.00  0.00     0.112 A 
ATOM     12  C   UNL d   1      33.201  18.067 -22.784  0.00  0.00     0.142 A 
ATOM     13  O   UNL d   1      33.230  18.060 -23.611  0.00  0.00    -0.300 OA
ATOM     14  C   UNL d   1      33.229  18.789 -24.030  0.00  0.00     0.142 A 
ATOM     15  O   UNL d   1      33.139  20.962 -22.787  0.00  0.00    -0.237 OA
ENDBRANCH   7   8
ENDBRANCH   1   7
BRANCH   3  16
ATOM     16  O   UNL d   1      33.241  22.515 -19.830  0.00  0.00    -0.307 OA
BRANCH  16  17
ATOM     17  C   UNL d   1      32.933  22.817 -19.125  0.00  0.00     0.100 A 
ATOM     18  C   UNL d   1      33.205  22.533 -18.400  0.00  0.00     0.025 A 
ATOM     19  C   UNL d   1      32.897  22.834 -17.694  0.00  0.00     0.002 A 
ATOM     20  C   UNL d   1      32.318  23.421 -17.714  0.00  0.00     0.000 A 
ATOM     21  C   UNL d   1      32.048  23.702 -18.446  0.00  0.00     0.002 A 
ATOM     22  C   UNL d   1      32.353  23.403 -19.144  0.00  0.00     0.025 A 
ENDBRANCH  16  17
ENDBRANCH   3  16
TORSDOF 4
ENDMDL
