MODEL 1
REMARK VINA RESULT:      -8.4      0.000      0.000
REMARK  3 active torsions:
REMARK  status: ('A' for Active; 'I' for Inactive)
REMARK    1  A    between atoms: C_5  and  C_1 
REMARK    2  A    between atoms: N_6  and  C_2 
REMARK       I    between atoms: C_8  and  N_6 
REMARK    3  A    between atoms: C_9  and  C_8 
ROOT
ATOM      1  C   UNL d   1      50.178  34.563  52.522  0.00  0.00     0.231 A 
ATOM      2  C   UNL d   1      51.331  33.973  52.850  0.00  0.00     0.297 A 
ATOM      3  O   UNL d   1      50.655  34.331  53.159  0.00  0.00    -0.252 OA
ATOM      4  N   UNL d   1      50.563  34.347  51.831  0.00  0.00    -0.117 NA
ATOM      5  N   UNL d   1      51.274  33.983  52.033  0.00  0.00    -0.101 NA
ENDROOT
BRANCH   2   6
ATOM      6  N   UNL d   1      51.952  33.662  53.295  0.00  0.00    -0.165 NA
ATOM      7  C   UNL d   1      52.643  34.085  53.391  0.00  0.00     0.282 C 
ATOM      8  O   UNL d   1      52.732  34.831  53.043  0.00  0.00    -0.265 OA
BRANCH   7   9
ATOM      9  C   UNL d   1      53.263  33.774  53.836  0.00  0.00     0.060 A 
ATOM     10  C   UNL d   1      53.738  33.186  53.528  0.00  0.00     0.034 A 
ATOM     11  C   UNL d   1      54.357  32.877  53.975  0.00  0.00     0.140 A 
ATOM     12  F   UNL d   1      54.847  32.276  53.666  0.00  0.00    -0.204 F 
ATOM     13  C   UNL d   1      54.497  33.162  54.737  0.00  0.00     0.030 A 
ATOM     14  C   UNL d   1      54.014  33.757  55.044  0.00  0.00     0.003 A 
ATOM     15  C   UNL d   1      53.394  34.063  54.590  0.00  0.00     0.005 A 
ENDBRANCH   7   9
ENDBRANCH   2   6
BRANCH   1  16
ATOM     16  C   UNL d   1      49.446  34.945  52.584  0.00  0.00     0.168 A 
ATOM     17  O   UNL d   1      49.275  35.393  53.252  0.00  0.00    -0.297 OA
ATOM     18  C   UNL d   1      48.554  35.769  53.312  0.00  0.00     0.149 A 
ATOM     19  C   UNL d   1      47.999  35.703  52.711  0.00  0.00     0.149 A 
ATOM     20  O   UNL d   1      48.158  35.258  52.039  0.00  0.00    -0.299 OA
ATOM     21  C   UNL d   1      48.882  34.879  51.977  0.00  0.00     0.151 A 
ENDBRANCH   1  16
TORSDOF 3
ENDMDL
MODEL 2
REMARK VINA RESULT:      -8.3      1.652      1.947
REMARK  3 active torsions:
REMARK  status: ('A' for Active; 'I' for Inactive)
REMARK    1  A    between atoms: C_5  and  C_1 
REMARK    2  A    between atoms: N_6  and  C_2 
REMARK       I    between atoms: C_8  and  N_6 
REMARK    3  A    between atoms: C_9  and  C_8 
ROOT
ATOM      1  C   UNL d   1      50.532  34.349  52.831  0.00  0.00     0.231 A 
ATOM      2  C   UNL d   1      51.486  33.514  53.253  0.00  0.00     0.297 A 
ATOM      3  O   UNL d   1      50.710  33.553  52.974  0.00  0.00    -0.252 OA
ATOM      4  N   UNL d   1      51.196  34.791  53.022  0.00  0.00    -0.117 NA
ATOM      5  N   UNL d   1      51.784  34.276  53.283  0.00  0.00    -0.101 NA
ENDROOT
BRANCH   2   6
ATOM      6  N   UNL d   1      51.883  32.822  53.464  0.00  0.00    -0.165 NA
ATOM      7  C   UNL d   1      52.432  32.492  52.958  0.00  0.00     0.282 C 
ATOM      8  O   UNL d   1      52.597  32.846  52.227  0.00  0.00    -0.265 OA
BRANCH   7   9
ATOM      9  C   UNL d   1      52.829  31.800  53.168  0.00  0.00     0.060 A 
ATOM     10  C   UNL d   1      52.551  31.074  52.919  0.00  0.00     0.034 A 
ATOM     11  C   UNL d   1      52.950  30.386  53.131  0.00  0.00     0.140 A 
ATOM     12  F   UNL d   1      52.672  29.639  52.880  0.00  0.00    -0.204 F 
ATOM     13  C   UNL d   1      53.631  30.429  53.595  0.00  0.00     0.030 A 
ATOM     14  C   UNL d   1      53.907  31.166  53.843  0.00  0.00     0.003 A 
ATOM     15  C   UNL d   1      53.503  31.855  53.628  0.00  0.00     0.005 A 
ENDBRANCH   7   9
ENDBRANCH   2   6
BRANCH   1  16
ATOM     16  C   UNL d   1      49.809  34.637  52.546  0.00  0.00     0.168 A 
ATOM     17  O   UNL d   1      49.571  34.452  51.781  0.00  0.00    -0.297 OA
ATOM     18  C   UNL d   1      48.859  34.736  51.501  0.00  0.00     0.149 A 
ATOM     19  C   UNL d   1      48.382  35.203  51.977  0.00  0.00     0.149 A 
ATOM     20  O   UNL d   1      48.610  35.395  52.743  0.00  0.00    -0.299 OA
ATOM     21  C   UNL d   1      49.324  35.111  53.026  0.00  0.00     0.151 A 
ENDBRANCH   1  16
TORSDOF 3
ENDMDL
MODEL 3
REMARK VINA RESULT:      -8.0      2.045      4.880
REMARK  3 active torsions:
REMARK  status: ('A' for Active; 'I' for Inactive)
REMARK    1  A    between atoms: C_5  and  C_1 
REMARK    2  A    between atoms: N_6  and  C_2 
REMARK       I    between atoms: C_8  and  N_6 
REMARK    3  A    between atoms: C_9  and  C_8 
ROOT
ATOM      1  C   UNL d   1      52.896  33.067  53.741  0.00  0.00     0.231 A 
ATOM      2  C   UNL d   1      51.659  33.259  53.274  0.00  0.00     0.297 A 
ATOM      3  O   UNL d   1      52.245  33.579  53.758  0.00  0.00    -0.252 OA
ATOM      4  N   UNL d   1      52.705  32.439  53.249  0.00  0.00    -0.117 NA
ATOM      5  N   UNL d   1      51.943  32.558  52.961  0.00  0.00    -0.101 NA
ENDROOT
BRANCH   2   6
ATOM      6  N   UNL d   1      50.919  33.595  53.135  0.00  0.00    -0.165 NA
ATOM      7  C   UNL d   1      50.810  34.108  52.510  0.00  0.00     0.282 C 
ATOM      8  O   UNL d   1      51.439  34.298  52.006  0.00  0.00    -0.265 OA
BRANCH   7   9
ATOM      9  C   UNL d   1      50.069  34.445  52.371  0.00  0.00     0.060 A 
ATOM     10  C   UNL d   1      49.698  34.341  51.652  0.00  0.00     0.034 A 
ATOM     11  C   UNL d   1      48.959  34.679  51.517  0.00  0.00     0.140 A 
ATOM     12  F   UNL d   1      48.572  34.578  50.784  0.00  0.00    -0.204 F 
ATOM     13  C   UNL d   1      48.593  35.122  52.110  0.00  0.00     0.030 A 
ATOM     14  C   UNL d   1      48.974  35.222  52.836  0.00  0.00     0.003 A 
ATOM     15  C   UNL d   1      49.716  34.882  52.966  0.00  0.00     0.005 A 
ENDBRANCH   7   9
ENDBRANCH   2   6
BRANCH   1  16
ATOM     16  C   UNL d   1      53.607  33.177  54.152  0.00  0.00     0.168 A 
ATOM     17  O   UNL d   1      53.591  33.452  54.926  0.00  0.00    -0.297 OA
ATOM     18  C   UNL d   1      54.292  33.561  55.331  0.00  0.00     0.149 A 
ATOM     19  C   UNL d   1      55.010  33.397  54.968  0.00  0.00     0.149 A 
ATOM     20  O   UNL d   1      55.038  33.122  54.194  0.00  0.00    -0.299 OA
ATOM     21  C   UNL d   1      54.335  33.013  53.787  0.00  0.00     0.151 A 
ENDBRANCH   1  16
TORSDOF 3
ENDMDL
MODEL 4
REMARK VINA RESULT:      -7.7      3.001      4.099
REMARK  3 active torsions:
REMARK  status: ('A' for Active; 'I' for Inactive)
REMARK    1  A    between atoms: C_5  and  C_1 
REMARK    2  A    between atoms: N_6  and  C_2 
REMARK       I    between atoms: C_8  and  N_6 
REMARK    3  A    between atoms: C_9  and  C_8 
ROOT
ATOM      1  C   UNL d   1      53.670  33.727  54.127  0.00  0.00     0.231 A 
ATOM      2  C   UNL d   1      53.815  32.402  54.029  0.00  0.00     0.297 A 
ATOM      3  O   UNL d   1      53.313  33.000  54.297  0.00  0.00    -0.252 OA
ATOM      4  N   UNL d   1      54.385  33.572  53.757  0.00  0.00    -0.117 NA
ATOM      5  N   UNL d   1      54.474  32.755  53.696  0.00  0.00    -0.101 NA
ENDROOT
BRANCH   2   6
ATOM      6  N   UNL d   1      53.668  31.593  54.090  0.00  0.00    -0.165 NA
ATOM      7  C   UNL d   1      53.298  31.194  53.481  0.00  0.00     0.282 C 
ATOM      8  O   UNL d   1      53.065  31.596  52.795  0.00  0.00    -0.265 OA
BRANCH   7   9
ATOM      9  C   UNL d   1      53.151  30.385  53.542  0.00  0.00     0.060 A 
ATOM     10  C   UNL d   1      53.445  29.959  54.173  0.00  0.00     0.034 A 
ATOM     11  C   UNL d   1      53.297  29.151  54.230  0.00  0.00     0.140 A 
ATOM     12  F   UNL d   1      53.595  28.708  54.873  0.00  0.00    -0.204 F 
ATOM     13  C   UNL d   1      52.849  28.771  53.650  0.00  0.00     0.030 A 
ATOM     14  C   UNL d   1      52.554  29.207  53.014  0.00  0.00     0.003 A 
ATOM     15  C   UNL d   1      52.706  30.019  52.961  0.00  0.00     0.005 A 
ENDBRANCH   7   9
ENDBRANCH   2   6
BRANCH   1  16
ATOM     16  C   UNL d   1      53.354  34.472  54.303  0.00  0.00     0.168 A 
ATOM     17  O   UNL d   1      53.539  34.834  55.017  0.00  0.00    -0.297 OA
ATOM     18  C   UNL d   1      53.227  35.568  55.191  0.00  0.00     0.149 A 
ATOM     19  C   UNL d   1      52.732  35.946  54.656  0.00  0.00     0.149 A 
ATOM     20  O   UNL d   1      52.541  35.594  53.938  0.00  0.00    -0.299 OA
ATOM     21  C   UNL d   1      52.853  34.857  53.763  0.00  0.00     0.151 A 
ENDBRANCH   1  16
TORSDOF 3
ENDMDL
MODEL 5
REMARK VINA RESULT:      -6.1     10.143     11.120
REMARK  3 active torsions:
REMARK  status: ('A' for Active; 'I' for Inactive)
REMARK    1  A    between atoms: C_5  and  C_1 
REMARK    2  A    between atoms: N_6  and  C_2 
REMARK       I    between atoms: C_8  and  N_6 
REMARK    3  A    between atoms: C_9  and  C_8 
ROOT
ATOM      1  C   UNL d   1      44.637  29.927  61.168  0.00  0.00     0.231 A 
ATOM      2  C   UNL d   1      44.537  30.225  59.870  0.00  0.00     0.297 A 
ATOM      3  O   UNL d   1      44.434  29.623  60.425  0.00  0.00    -0.252 OA
ATOM      4  N   UNL d   1      44.860  30.709  61.065  0.00  0.00    -0.117 NA
ATOM      5  N   UNL d   1      44.798  30.893  60.264  0.00  0.00    -0.101 NA
ENDROOT
BRANCH   2   6
ATOM      6  N   UNL d   1      44.396  30.156  59.060  0.00  0.00    -0.165 NA
ATOM      7  C   UNL d   1      45.017  30.038  58.543  0.00  0.00     0.282 C 
ATOM      8  O   UNL d   1      45.794  29.988  58.823  0.00  0.00    -0.265 OA
BRANCH   7   9
ATOM      9  C   UNL d   1      44.876  29.969  57.733  0.00  0.00     0.060 A 
ATOM     10  C   UNL d   1      44.736  30.633  57.280  0.00  0.00     0.034 A 
ATOM     11  C   UNL d   1      44.596  30.560  56.472  0.00  0.00     0.140 A 
ATOM     12  F   UNL d   1      44.452  31.236  56.002  0.00  0.00    -0.204 F 
ATOM     13  C   UNL d   1      44.598  29.815  56.119  0.00  0.00     0.030 A 
ATOM     14  C   UNL d   1      44.740  29.146  56.581  0.00  0.00     0.003 A 
ATOM     15  C   UNL d   1      44.880  29.225  57.393  0.00  0.00     0.005 A 
ENDBRANCH   7   9
ENDBRANCH   2   6
BRANCH   1  16
ATOM     16  C   UNL d   1      44.614  29.508  61.882  0.00  0.00     0.168 A 
ATOM     17  O   UNL d   1      44.798  28.707  61.890  0.00  0.00    -0.297 OA
ATOM     18  C   UNL d   1      44.775  28.294  62.594  0.00  0.00     0.149 A 
ATOM     19  C   UNL d   1      44.570  28.674  63.292  0.00  0.00     0.149 A 
ATOM     20  O   UNL d   1      44.384  29.475  63.296  0.00  0.00    -0.299 OA
ATOM     21  C   UNL d   1      44.407  29.890  62.590  0.00  0.00     0.151 A 
ENDBRANCH   1  16
TORSDOF 3
ENDMDL
MODEL 6
REMARK VINA RESULT:      -5.8     10.302     10.925
REMARK  3 active torsions:
REMARK  status: ('A' for Active; 'I' for Inactive)
REMARK    1  A    between atoms: C_5  and  C_1 
REMARK    2  A    between atoms: N_6  and  C_2 
REMARK       I    between atoms: C_8  and  N_6 
REMARK    3  A    between atoms: C_9  and  C_8 
ROOT
ATOM      1  C   UNL d   1      44.877  29.733  59.320  0.00  0.00     0.231 A 
ATOM      2  C   UNL d   1      44.778  28.747  58.423  0.00  0.00     0.297 A 
ATOM      3  O   UNL d   1      44.561  28.979  59.184  0.00  0.00    -0.252 OA
ATOM      4  N   UNL d   1      45.285  29.956  58.644  0.00  0.00    -0.117 NA
ATOM      5  N   UNL d   1      45.224  29.348  58.091  0.00  0.00    -0.101 NA
ENDROOT
BRANCH   2   6
ATOM      6  N   UNL d   1      44.577  28.030  58.068  0.00  0.00    -0.165 NA
ATOM      7  C   UNL d   1      45.147  27.462  57.934  0.00  0.00     0.282 C 
ATOM      8  O   UNL d   1      45.934  27.596  58.153  0.00  0.00    -0.265 OA
BRANCH   7   9
ATOM      9  C   UNL d   1      44.945  26.745  57.578  0.00  0.00     0.060 A 
ATOM     10  C   UNL d   1      44.972  26.667  56.766  0.00  0.00     0.034 A 
ATOM     11  C   UNL d   1      44.770  25.950  56.415  0.00  0.00     0.140 A 
ATOM     12  F   UNL d   1      44.794  25.861  55.585  0.00  0.00    -0.204 F 
ATOM     13  C   UNL d   1      44.541  25.310  56.883  0.00  0.00     0.030 A 
ATOM     14  C   UNL d   1      44.516  25.396  57.704  0.00  0.00     0.003 A 
ATOM     15  C   UNL d   1      44.720  26.118  58.052  0.00  0.00     0.005 A 
ENDBRANCH   7   9
ENDBRANCH   2   6
BRANCH   1  16
ATOM     16  C   UNL d   1      44.792  30.173  60.016  0.00  0.00     0.168 A 
ATOM     17  O   UNL d   1      44.835  29.795  60.745  0.00  0.00    -0.297 OA
ATOM     18  C   UNL d   1      44.751  30.229  61.431  0.00  0.00     0.149 A 
ATOM     19  C   UNL d   1      44.624  31.039  61.396  0.00  0.00     0.149 A 
ATOM     20  O   UNL d   1      44.579  31.428  60.674  0.00  0.00    -0.299 OA
ATOM     21  C   UNL d   1      44.663  30.993  59.984  0.00  0.00     0.151 A 
ENDBRANCH   1  16
TORSDOF 3
ENDMDL
MODEL 7
REMARK VINA RESULT:      -5.6      9.848     10.488
REMARK  3 active torsions:
REMARK  status: ('A' for Active; 'I' for Inactive)
REMARK    1  A    between atoms: C_5  and  C_1 
REMARK    2  A    between atoms: N_6  and  C_2 
REMARK       I    between atoms: C_8  and  N_6 
REMARK    3  A    between atoms: C_9  and  C_8 
ROOT
ATOM      1  C   UNL d   1      44.954  29.383  57.808  0.00  0.00     0.231 A 
ATOM      2  C   UNL d   1      44.818  28.056  57.736  0.00  0.00     0.297 A 
ATOM      3  O   UNL d   1      44.571  28.770  57.404  0.00  0.00    -0.252 OA
ATOM      4  N   UNL d   1      45.430  29.043  58.383  0.00  0.00    -0.117 NA
ATOM      5  N   UNL d   1      45.346  28.224  58.338  0.00  0.00    -0.101 NA
ENDROOT
BRANCH   2   6
ATOM      6  N   UNL d   1      44.569  27.307  57.495  0.00  0.00    -0.165 NA
ATOM      7  C   UNL d   1      45.059  26.835  57.045  0.00  0.00     0.282 C 
ATOM      8  O   UNL d   1      45.812  27.099  56.825  0.00  0.00    -0.265 OA
BRANCH   7   9
ATOM      9  C   UNL d   1      44.811  26.086  56.805  0.00  0.00     0.060 A 
ATOM     10  C   UNL d   1      44.689  25.927  56.014  0.00  0.00     0.034 A 
ATOM     11  C   UNL d   1      44.441  25.178  55.777  0.00  0.00     0.140 A 
ATOM     12  F   UNL d   1      44.314  25.007  54.969  0.00  0.00    -0.204 F 
ATOM     13  C   UNL d   1      44.314  24.588  56.340  0.00  0.00     0.030 A 
ATOM     14  C   UNL d   1      44.438  24.755  57.139  0.00  0.00     0.003 A 
ATOM     15  C   UNL d   1      44.688  25.508  57.371  0.00  0.00     0.005 A 
ENDBRANCH   7   9
ENDBRANCH   2   6
BRANCH   1  16
ATOM     16  C   UNL d   1      44.865  30.192  57.653  0.00  0.00     0.168 A 
ATOM     17  O   UNL d   1      44.638  30.439  56.903  0.00  0.00    -0.297 OA
ATOM     18  C   UNL d   1      44.551  31.236  56.750  0.00  0.00     0.149 A 
ATOM     19  C   UNL d   1      44.687  31.790  57.340  0.00  0.00     0.149 A 
ATOM     20  O   UNL d   1      44.914  31.554  58.094  0.00  0.00    -0.299 OA
ATOM     21  C   UNL d   1      45.003  30.754  58.248  0.00  0.00     0.151 A 
ENDBRANCH   1  16
TORSDOF 3
ENDMDL
MODEL 8
REMARK VINA RESULT:      -5.6     11.127     11.759
REMARK  3 active torsions:
REMARK  status: ('A' for Active; 'I' for Inactive)
REMARK    1  A    between atoms: C_5  and  C_1 
REMARK    2  A    between atoms: N_6  and  C_2 
REMARK       I    between atoms: C_8  and  N_6 
REMARK    3  A    between atoms: C_9  and  C_8 
ROOT
ATOM      1  C   UNL d   1      44.731  24.664  56.150  0.00  0.00     0.231 A 
ATOM      2  C   UNL d   1      44.536  25.968  56.367  0.00  0.00     0.297 A 
ATOM      3  O   UNL d   1      44.748  25.257  56.728  0.00  0.00    -0.252 OA
ATOM      4  N   UNL d   1      44.510  25.013  55.442  0.00  0.00    -0.117 NA
ATOM      5  N   UNL d   1      44.390  25.817  55.575  0.00  0.00    -0.101 NA
ENDROOT
BRANCH   2   6
ATOM      6  N   UNL d   1      44.483  26.698  56.746  0.00  0.00    -0.165 NA
ATOM      7  C   UNL d   1      45.147  27.166  56.833  0.00  0.00     0.282 C 
ATOM      8  O   UNL d   1      45.880  26.914  56.543  0.00  0.00    -0.265 OA
BRANCH   7   9
ATOM      9  C   UNL d   1      45.094  27.896  57.213  0.00  0.00     0.060 A 
ATOM     10  C   UNL d   1      45.188  27.948  58.022  0.00  0.00     0.034 A 
ATOM     11  C   UNL d   1      45.135  28.679  58.398  0.00  0.00     0.140 A 
ATOM     12  F   UNL d   1      45.230  28.740  59.225  0.00  0.00    -0.204 F 
ATOM     13  C   UNL d   1      44.987  29.360  57.956  0.00  0.00     0.030 A 
ATOM     14  C   UNL d   1      44.893  29.302  57.138  0.00  0.00     0.003 A 
ATOM     15  C   UNL d   1      44.947  28.565  56.766  0.00  0.00     0.005 A 
ENDBRANCH   7   9
ENDBRANCH   2   6
BRANCH   1  16
ATOM     16  C   UNL d   1      44.908  23.864  56.274  0.00  0.00     0.168 A 
ATOM     17  O   UNL d   1      44.747  23.521  57.004  0.00  0.00    -0.297 OA
ATOM     18  C   UNL d   1      44.921  22.733  57.127  0.00  0.00     0.149 A 
ATOM     19  C   UNL d   1      45.255  22.283  56.527  0.00  0.00     0.149 A 
ATOM     20  O   UNL d   1      45.419  22.615  55.794  0.00  0.00    -0.299 OA
ATOM     21  C   UNL d   1      45.245  23.406  55.669  0.00  0.00     0.151 A 
ENDBRANCH   1  16
TORSDOF 3
ENDMDL
MODEL 9
REMARK VINA RESULT:      -5.4     10.131     10.933
REMARK  3 active torsions:
REMARK  status: ('A' for Active; 'I' for Inactive)
REMARK    1  A    between atoms: C_5  and  C_1 
REMARK    2  A    between atoms: N_6  and  C_2 
REMARK       I    between atoms: C_8  and  N_6 
REMARK    3  A    between atoms: C_9  and  C_8 
ROOT
ATOM      1  C   UNL d   1      44.875  26.675  57.409  0.00  0.00     0.231 A 
ATOM      2  C   UNL d   1      44.847  28.010  57.399  0.00  0.00     0.297 A 
ATOM      3  O   UNL d   1      44.488  27.339  57.717  0.00  0.00    -0.252 OA
ATOM      4  N   UNL d   1      45.465  26.941  56.906  0.00  0.00    -0.117 NA
ATOM      5  N   UNL d   1      45.447  27.765  56.900  0.00  0.00    -0.101 NA
ENDROOT
BRANCH   2   6
ATOM      6  N   UNL d   1      44.630  28.789  57.561  0.00  0.00    -0.165 NA
ATOM      7  C   UNL d   1      45.066  29.237  58.087  0.00  0.00     0.282 C 
ATOM      8  O   UNL d   1      45.730  28.917  58.463  0.00  0.00    -0.265 OA
BRANCH   7   9
ATOM      9  C   UNL d   1      44.849  30.016  58.249  0.00  0.00     0.060 A 
ATOM     10  C   UNL d   1      44.932  30.595  57.680  0.00  0.00     0.034 A 
ATOM     11  C   UNL d   1      44.715  31.371  57.845  0.00  0.00     0.140 A 
ATOM     12  F   UNL d   1      44.797  31.969  57.268  0.00  0.00    -0.204 F 
ATOM     13  C   UNL d   1      44.412  31.566  58.588  0.00  0.00     0.030 A 
ATOM     14  C   UNL d   1      44.330  30.976  59.161  0.00  0.00     0.003 A 
ATOM     15  C   UNL d   1      44.550  30.198  58.989  0.00  0.00     0.005 A 
ENDBRANCH   7   9
ENDBRANCH   2   6
BRANCH   1  16
ATOM     16  C   UNL d   1      44.690  25.886  57.584  0.00  0.00     0.168 A 
ATOM     17  O   UNL d   1      44.700  25.629  58.365  0.00  0.00    -0.297 OA
ATOM     18  C   UNL d   1      44.519  24.853  58.537  0.00  0.00     0.149 A 
ATOM     19  C   UNL d   1      44.327  24.328  57.935  0.00  0.00     0.149 A 
ATOM     20  O   UNL d   1      44.314  24.573  57.151  0.00  0.00    -0.299 OA
ATOM     21  C   UNL d   1      44.496  25.353  56.977  0.00  0.00     0.151 A 
ENDBRANCH   1  16
TORSDOF 3
ENDMDL
