MODEL 1
REMARK VINA RESULT:      -7.4      0.000      0.000
REMARK  5 active torsions:
REMARK  status: ('A' for Active; 'I' for Inactive)
REMARK    1  A    between atoms: C_7  and  N_2 
REMARK    2  A    between atoms: C_14  and  C_7 
REMARK    3  A    between atoms: O_10  and  C_9 
REMARK    4  A    between atoms: C_11  and  O_10 
REMARK    5  A    between atoms: C_13  and  C_11 
ROOT
ATOM      1  C   UNL d   1     -48.035  14.350  22.932  0.00  0.00     0.265 A 
ATOM      2  N   UNL d   1     -48.566  13.769  23.179  0.00  0.00    -0.272 N 
ATOM      3  C   UNL d   1     -47.235  14.176  22.875  0.00  0.00     0.059 A 
ATOM      4  C   UNL d   1     -46.961  13.421  23.064  0.00  0.00     0.029 A 
ATOM      5  C   UNL d   1     -47.487  12.840  23.310  0.00  0.00     0.021 A 
ATOM      6  C   UNL d   1     -48.292  13.014  23.368  0.00  0.00     0.083 A 
ATOM      7  O   UNL d   1     -48.309  15.105  22.743  0.00  0.00    -0.267 OA
ATOM      8  C   UNL d   1     -46.156  13.247  23.005  0.00  0.00     0.100 A 
ATOM      9  C   UNL d   1     -46.703  14.757  22.628  0.00  0.00     0.005 A 
ATOM     10  C   UNL d   1     -45.899  14.584  22.569  0.00  0.00     0.002 A 
ATOM     11  C   UNL d   1     -45.625  13.829  22.758  0.00  0.00     0.025 A 
ENDROOT
BRANCH   8  12
ATOM     12  O   UNL d   1     -45.882  12.492  23.194  0.00  0.00    -0.305 OA
BRANCH  12  13
ATOM     13  C   UNL d   1     -45.152  12.234  22.908  0.00  0.00     0.122 C 
BRANCH  13  14
ATOM     14  C   UNL d   1     -44.875  11.483  23.104  0.00  0.00     0.025 A 
ATOM     15  C   UNL d   1     -45.383  10.932  23.449  0.00  0.00     0.004 A 
ATOM     16  C   UNL d   1     -45.105  10.180  23.646  0.00  0.00     0.030 A 
ATOM     17  C   UNL d   1     -44.319   9.979  23.496  0.00  0.00     0.140 A 
ATOM     18  C   UNL d   1     -43.810  10.530  23.150  0.00  0.00     0.030 A 
ATOM     19  F   UNL d   1     -44.041   9.228  23.692  0.00  0.00    -0.204 F 
ATOM     20  C   UNL d   1     -44.088  11.281  22.954  0.00  0.00     0.004 A 
ENDBRANCH  13  14
ENDBRANCH  12  13
ENDBRANCH   8  12
BRANCH   2  21
ATOM     21  C   UNL d   1     -49.378  13.949  23.237  0.00  0.00     0.083 C 
BRANCH  21  22
ATOM     22  C   UNL d   1     -49.941  13.444  22.905  0.00  0.00     0.018 A 
ATOM     23  C   UNL d   1     -50.231  13.596  22.150  0.00  0.00     0.002 A 
ATOM     24  C   UNL d   1     -50.793  13.091  21.819  0.00  0.00     0.000 A 
ATOM     25  C   UNL d   1     -51.063  12.437  22.245  0.00  0.00     0.000 A 
ATOM     26  C   UNL d   1     -50.770  12.292  22.998  0.00  0.00     0.000 A 
ATOM     27  C   UNL d   1     -50.208  12.796  23.329  0.00  0.00     0.002 A 
ENDBRANCH  21  22
ENDBRANCH   2  21
TORSDOF 5
ENDMDL
MODEL 2
REMARK VINA RESULT:      -6.4      1.726      2.512
REMARK  5 active torsions:
REMARK  status: ('A' for Active; 'I' for Inactive)
REMARK    1  A    between atoms: C_7  and  N_2 
REMARK    2  A    between atoms: C_14  and  C_7 
REMARK    3  A    between atoms: O_10  and  C_9 
REMARK    4  A    between atoms: C_11  and  O_10 
REMARK    5  A    between atoms: C_13  and  C_11 
ROOT
ATOM      1  C   UNL d   1     -49.324  11.992  22.926  0.00  0.00     0.265 A 
ATOM      2  N   UNL d   1     -49.498  12.641  22.447  0.00  0.00    -0.272 N 
ATOM      3  C   UNL d   1     -48.543  11.787  23.070  0.00  0.00     0.059 A 
ATOM      4  C   UNL d   1     -47.931  12.229  22.737  0.00  0.00     0.029 A 
ATOM      5  C   UNL d   1     -48.100  12.875  22.260  0.00  0.00     0.021 A 
ATOM      6  C   UNL d   1     -48.886  13.083  22.114  0.00  0.00     0.083 A 
ATOM      7  O   UNL d   1     -49.936  11.550  23.259  0.00  0.00    -0.267 OA
ATOM      8  C   UNL d   1     -47.145  12.021  22.883  0.00  0.00     0.100 A 
ATOM      9  C   UNL d   1     -48.369  11.138  23.549  0.00  0.00     0.005 A 
ATOM     10  C   UNL d   1     -47.584  10.930  23.696  0.00  0.00     0.002 A 
ATOM     11  C   UNL d   1     -46.972  11.372  23.363  0.00  0.00     0.025 A 
ENDROOT
BRANCH   8  12
ATOM     12  O   UNL d   1     -46.533  12.463  22.550  0.00  0.00    -0.305 OA
BRANCH  12  13
ATOM     13  C   UNL d   1     -45.799  12.500  22.927  0.00  0.00     0.122 C 
BRANCH  13  14
ATOM     14  C   UNL d   1     -45.113  12.609  22.482  0.00  0.00     0.025 A 
ATOM     15  C   UNL d   1     -44.478  12.088  22.568  0.00  0.00     0.004 A 
ATOM     16  C   UNL d   1     -43.792  12.197  22.123  0.00  0.00     0.030 A 
ATOM     17  C   UNL d   1     -43.741  12.827  21.592  0.00  0.00     0.140 A 
ATOM     18  C   UNL d   1     -44.375  13.348  21.506  0.00  0.00     0.030 A 
ATOM     19  F   UNL d   1     -43.054  12.936  21.147  0.00  0.00    -0.204 F 
ATOM     20  C   UNL d   1     -45.061  13.239  21.950  0.00  0.00     0.004 A 
ENDBRANCH  13  14
ENDBRANCH  12  13
ENDBRANCH   8  12
BRANCH   2  21
ATOM     21  C   UNL d   1     -50.293  12.847  22.302  0.00  0.00     0.083 C 
BRANCH  21  22
ATOM     22  C   UNL d   1     -50.548  13.624  22.409  0.00  0.00     0.018 A 
ATOM     23  C   UNL d   1     -50.808  14.061  21.762  0.00  0.00     0.002 A 
ATOM     24  C   UNL d   1     -51.063  14.838  21.869  0.00  0.00     0.000 A 
ATOM     25  C   UNL d   1     -51.057  15.175  22.623  0.00  0.00     0.000 A 
ATOM     26  C   UNL d   1     -50.796  14.734  23.265  0.00  0.00     0.000 A 
ATOM     27  C   UNL d   1     -50.542  13.956  23.158  0.00  0.00     0.002 A 
ENDBRANCH  21  22
ENDBRANCH   2  21
TORSDOF 5
ENDMDL
MODEL 3
REMARK VINA RESULT:      -5.7      7.785      9.552
REMARK  5 active torsions:
REMARK  status: ('A' for Active; 'I' for Inactive)
REMARK    1  A    between atoms: C_7  and  N_2 
REMARK    2  A    between atoms: C_14  and  C_7 
REMARK    3  A    between atoms: O_10  and  C_9 
REMARK    4  A    between atoms: C_11  and  O_10 
REMARK    5  A    between atoms: C_13  and  C_11 
ROOT
ATOM      1  C   UNL d   1     -40.405  15.700  17.981  0.00  0.00     0.265 A 
ATOM      2  N   UNL d   1     -39.660  15.493  17.693  0.00  0.00    -0.272 N 
ATOM      3  C   UNL d   1     -40.552  15.684  18.788  0.00  0.00     0.059 A 
ATOM      4  C   UNL d   1     -39.955  15.461  19.313  0.00  0.00     0.029 A 
ATOM      5  C   UNL d   1     -39.212  15.255  19.030  0.00  0.00     0.021 A 
ATOM      6  C   UNL d   1     -39.063  15.271  18.218  0.00  0.00     0.083 A 
ATOM      7  O   UNL d   1     -41.002  15.922  17.456  0.00  0.00    -0.267 OA
ATOM      8  C   UNL d   1     -40.104  15.446  20.125  0.00  0.00     0.100 A 
ATOM      9  C   UNL d   1     -41.297  15.890  19.075  0.00  0.00     0.005 A 
ATOM     10  C   UNL d   1     -41.447  15.875  19.887  0.00  0.00     0.002 A 
ATOM     11  C   UNL d   1     -40.850  15.653  20.412  0.00  0.00     0.025 A 
ENDROOT
BRANCH   8  12
ATOM     12  O   UNL d   1     -39.507  15.223  20.649  0.00  0.00    -0.305 OA
BRANCH  12  13
ATOM     13  C   UNL d   1     -39.659  15.202  21.460  0.00  0.00     0.122 C 
BRANCH  13  14
ATOM     14  C   UNL d   1     -39.229  14.692  21.946  0.00  0.00     0.025 A 
ATOM     15  C   UNL d   1     -39.560  13.975  22.188  0.00  0.00     0.004 A 
ATOM     16  C   UNL d   1     -39.130  13.465  22.674  0.00  0.00     0.030 A 
ATOM     17  C   UNL d   1     -38.369  13.672  22.918  0.00  0.00     0.140 A 
ATOM     18  C   UNL d   1     -38.038  14.388  22.676  0.00  0.00     0.030 A 
ATOM     19  F   UNL d   1     -37.940  13.162  23.404  0.00  0.00    -0.204 F 
ATOM     20  C   UNL d   1     -38.468  14.898  22.191  0.00  0.00     0.004 A 
ENDBRANCH  13  14
ENDBRANCH  12  13
ENDBRANCH   8  12
BRANCH   2  21
ATOM     21  C   UNL d   1     -39.514  15.510  16.872  0.00  0.00     0.083 C 
BRANCH  21  22
ATOM     22  C   UNL d   1     -39.015  14.951  16.526  0.00  0.00     0.018 A 
ATOM     23  C   UNL d   1     -38.455  15.191  15.972  0.00  0.00     0.002 A 
ATOM     24  C   UNL d   1     -37.957  14.632  15.626  0.00  0.00     0.000 A 
ATOM     25  C   UNL d   1     -38.021  13.835  15.836  0.00  0.00     0.000 A 
ATOM     26  C   UNL d   1     -38.582  13.603  16.389  0.00  0.00     0.000 A 
ATOM     27  C   UNL d   1     -39.080  14.162  16.735  0.00  0.00     0.002 A 
ENDBRANCH  21  22
ENDBRANCH   2  21
TORSDOF 5
ENDMDL
MODEL 4
REMARK VINA RESULT:      -5.6      1.738      2.594
REMARK  5 active torsions:
REMARK  status: ('A' for Active; 'I' for Inactive)
REMARK    1  A    between atoms: C_7  and  N_2 
REMARK    2  A    between atoms: C_14  and  C_7 
REMARK    3  A    between atoms: O_10  and  C_9 
REMARK    4  A    between atoms: C_11  and  O_10 
REMARK    5  A    between atoms: C_13  and  C_11 
ROOT
ATOM      1  C   UNL d   1     -48.612  12.083  23.335  0.00  0.00     0.265 A 
ATOM      2  N   UNL d   1     -48.723  12.844  23.036  0.00  0.00    -0.272 N 
ATOM      3  C   UNL d   1     -47.859  11.760  23.364  0.00  0.00     0.059 A 
ATOM      4  C   UNL d   1     -47.211  12.194  23.095  0.00  0.00     0.029 A 
ATOM      5  C   UNL d   1     -47.317  12.952  22.797  0.00  0.00     0.021 A 
ATOM      6  C   UNL d   1     -48.075  13.279  22.767  0.00  0.00     0.083 A 
ATOM      7  O   UNL d   1     -49.260  11.649  23.605  0.00  0.00    -0.267 OA
ATOM      8  C   UNL d   1     -46.453  11.868  23.125  0.00  0.00     0.100 A 
ATOM      9  C   UNL d   1     -47.748  10.999  23.663  0.00  0.00     0.005 A 
ATOM     10  C   UNL d   1     -46.992  10.671  23.693  0.00  0.00     0.002 A 
ATOM     11  C   UNL d   1     -46.344  11.106  23.424  0.00  0.00     0.025 A 
ENDROOT
BRANCH   8  12
ATOM     12  O   UNL d   1     -45.806  12.302  22.855  0.00  0.00    -0.305 OA
BRANCH  12  13
ATOM     13  C   UNL d   1     -45.117  11.912  22.622  0.00  0.00     0.122 C 
BRANCH  13  14
ATOM     14  C   UNL d   1     -44.522  12.328  22.229  0.00  0.00     0.025 A 
ATOM     15  C   UNL d   1     -44.698  13.035  21.842  0.00  0.00     0.004 A 
ATOM     16  C   UNL d   1     -44.103  13.450  21.449  0.00  0.00     0.030 A 
ATOM     17  C   UNL d   1     -43.332  13.158  21.444  0.00  0.00     0.140 A 
ATOM     18  C   UNL d   1     -43.154  12.451  21.831  0.00  0.00     0.030 A 
ATOM     19  F   UNL d   1     -42.737  13.573  21.051  0.00  0.00    -0.204 F 
ATOM     20  C   UNL d   1     -43.749  12.036  22.224  0.00  0.00     0.004 A 
ENDBRANCH  13  14
ENDBRANCH  12  13
ENDBRANCH   8  12
BRANCH   2  21
ATOM     21  C   UNL d   1     -49.490  13.171  23.008  0.00  0.00     0.083 C 
BRANCH  21  22
ATOM     22  C   UNL d   1     -49.593  13.981  22.893  0.00  0.00     0.018 A 
ATOM     23  C   UNL d   1     -49.891  14.257  22.177  0.00  0.00     0.002 A 
ATOM     24  C   UNL d   1     -49.995  15.067  22.062  0.00  0.00     0.000 A 
ATOM     25  C   UNL d   1     -49.801  15.598  22.664  0.00  0.00     0.000 A 
ATOM     26  C   UNL d   1     -49.504  15.316  23.376  0.00  0.00     0.000 A 
ATOM     27  C   UNL d   1     -49.400  14.506  23.491  0.00  0.00     0.002 A 
ENDBRANCH  21  22
ENDBRANCH   2  21
TORSDOF 5
ENDMDL
MODEL 5
REMARK VINA RESULT:      -4.5      2.612      3.758
REMARK  5 active torsions:
REMARK  status: ('A' for Active; 'I' for Inactive)
REMARK    1  A    between atoms: C_7  and  N_2 
REMARK    2  A    between atoms: C_14  and  C_7 
REMARK    3  A    between atoms: O_10  and  C_9 
REMARK    4  A    between atoms: C_11  and  O_10 
REMARK    5  A    between atoms: C_13  and  C_11 
ROOT
ATOM      1  C   UNL d   1     -45.931  12.049  23.212  0.00  0.00     0.265 A 
ATOM      2  N   UNL d   1     -46.289  12.751  22.968  0.00  0.00    -0.272 N 
ATOM      3  C   UNL d   1     -45.166  11.874  22.972  0.00  0.00     0.059 A 
ATOM      4  C   UNL d   1     -44.754  12.399  22.487  0.00  0.00     0.029 A 
ATOM      5  C   UNL d   1     -45.107  13.099  22.242  0.00  0.00     0.021 A 
ATOM      6  C   UNL d   1     -45.877  13.276  22.482  0.00  0.00     0.083 A 
ATOM      7  O   UNL d   1     -46.343  11.524  23.698  0.00  0.00    -0.267 OA
ATOM      8  C   UNL d   1     -43.984  12.222  22.246  0.00  0.00     0.100 A 
ATOM      9  C   UNL d   1     -44.808  11.172  23.217  0.00  0.00     0.005 A 
ATOM     10  C   UNL d   1     -44.038  10.994  22.977  0.00  0.00     0.002 A 
ATOM     11  C   UNL d   1     -43.627  11.519  22.491  0.00  0.00     0.025 A 
ENDROOT
BRANCH   8  12
ATOM     12  O   UNL d   1     -43.572  12.747  21.761  0.00  0.00    -0.305 OA
BRANCH  12  13
ATOM     13  C   UNL d   1     -42.804  12.568  21.520  0.00  0.00     0.122 C 
BRANCH  13  14
ATOM     14  C   UNL d   1     -42.330  13.155  21.186  0.00  0.00     0.025 A 
ATOM     15  C   UNL d   1     -41.749  13.526  21.641  0.00  0.00     0.004 A 
ATOM     16  C   UNL d   1     -41.275  14.113  21.308  0.00  0.00     0.030 A 
ATOM     17  C   UNL d   1     -41.382  14.330  20.519  0.00  0.00     0.140 A 
ATOM     18  C   UNL d   1     -41.962  13.960  20.063  0.00  0.00     0.030 A 
ATOM     19  F   UNL d   1     -40.908  14.917  20.185  0.00  0.00    -0.204 F 
ATOM     20  C   UNL d   1     -42.436  13.373  20.397  0.00  0.00     0.004 A 
ENDBRANCH  13  14
ENDBRANCH  12  13
ENDBRANCH   8  12
BRANCH   2  21
ATOM     21  C   UNL d   1     -47.066  12.926  23.213  0.00  0.00     0.083 C 
BRANCH  21  22
ATOM     22  C   UNL d   1     -47.576  13.344  22.717  0.00  0.00     0.018 A 
ATOM     23  C   UNL d   1     -47.990  12.945  22.128  0.00  0.00     0.002 A 
ATOM     24  C   UNL d   1     -48.500  13.363  21.632  0.00  0.00     0.000 A 
ATOM     25  C   UNL d   1     -48.591  14.179  21.726  0.00  0.00     0.000 A 
ATOM     26  C   UNL d   1     -48.174  14.571  22.315  0.00  0.00     0.000 A 
ATOM     27  C   UNL d   1     -47.665  14.153  22.811  0.00  0.00     0.002 A 
ENDBRANCH  21  22
ENDBRANCH   2  21
TORSDOF 5
ENDMDL
MODEL 6
REMARK VINA RESULT:      -4.5      8.316     10.324
REMARK  5 active torsions:
REMARK  status: ('A' for Active; 'I' for Inactive)
REMARK    1  A    between atoms: C_7  and  N_2 
REMARK    2  A    between atoms: C_14  and  C_7 
REMARK    3  A    between atoms: O_10  and  C_9 
REMARK    4  A    between atoms: C_11  and  O_10 
REMARK    5  A    between atoms: C_13  and  C_11 
ROOT
ATOM      1  C   UNL d   1     -39.391  15.618  16.684  0.00  0.00     0.265 A 
ATOM      2  N   UNL d   1     -38.617  15.331  16.683  0.00  0.00    -0.272 N 
ATOM      3  C   UNL d   1     -39.824  15.626  17.381  0.00  0.00     0.059 A 
ATOM      4  C   UNL d   1     -39.487  15.349  18.081  0.00  0.00     0.029 A 
ATOM      5  C   UNL d   1     -38.717  15.063  18.084  0.00  0.00     0.021 A 
ATOM      6  C   UNL d   1     -38.280  15.054  17.383  0.00  0.00     0.083 A 
ATOM      7  O   UNL d   1     -39.728  15.895  15.984  0.00  0.00    -0.267 OA
ATOM      8  C   UNL d   1     -39.923  15.358  18.782  0.00  0.00     0.100 A 
ATOM      9  C   UNL d   1     -40.598  15.912  17.382  0.00  0.00     0.005 A 
ATOM     10  C   UNL d   1     -41.035  15.922  18.082  0.00  0.00     0.002 A 
ATOM     11  C   UNL d   1     -40.698  15.644  18.782  0.00  0.00     0.025 A 
ENDROOT
BRANCH   8  12
ATOM     12  O   UNL d   1     -39.586  15.081  19.482  0.00  0.00    -0.305 OA
BRANCH  12  13
ATOM     13  C   UNL d   1     -39.952  15.235  20.205  0.00  0.00     0.122 C 
BRANCH  13  14
ATOM     14  C   UNL d   1     -39.747  14.796  20.873  0.00  0.00     0.025 A 
ATOM     15  C   UNL d   1     -39.110  15.031  21.342  0.00  0.00     0.004 A 
ATOM     16  C   UNL d   1     -38.905  14.591  22.010  0.00  0.00     0.030 A 
ATOM     17  C   UNL d   1     -39.338  13.917  22.208  0.00  0.00     0.140 A 
ATOM     18  C   UNL d   1     -39.975  13.682  21.739  0.00  0.00     0.030 A 
ATOM     19  F   UNL d   1     -39.133  13.478  22.876  0.00  0.00    -0.204 F 
ATOM     20  C   UNL d   1     -40.180  14.121  21.072  0.00  0.00     0.004 A 
ENDBRANCH  13  14
ENDBRANCH  12  13
ENDBRANCH   8  12
BRANCH   2  21
ATOM     21  C   UNL d   1     -38.179  15.324  15.973  0.00  0.00     0.083 C 
BRANCH  21  22
ATOM     22  C   UNL d   1     -38.100  14.626  15.540  0.00  0.00     0.018 A 
ATOM     23  C   UNL d   1     -38.101  14.655  14.717  0.00  0.00     0.002 A 
ATOM     24  C   UNL d   1     -38.022  13.957  14.284  0.00  0.00     0.000 A 
ATOM     25  C   UNL d   1     -37.942  13.235  14.676  0.00  0.00     0.000 A 
ATOM     26  C   UNL d   1     -37.942  13.213  15.497  0.00  0.00     0.000 A 
ATOM     27  C   UNL d   1     -38.021  13.911  15.930  0.00  0.00     0.002 A 
ENDBRANCH  21  22
ENDBRANCH   2  21
TORSDOF 5
ENDMDL
