MODEL 1
REMARK VINA RESULT:      -6.9      0.000      0.000
REMARK  4 active torsions:
REMARK  status: ('A' for Active; 'I' for Inactive)
REMARK       I    between atoms: C_3  and  N_7 
REMARK    1  A    between atoms: C_6  and  C_3 
REMARK    2  A    between atoms: C_8  and  C_6 
REMARK    3  A    between atoms: N_7  and  C_9 
REMARK    4  A    between atoms: C_13  and  C_8 
ROOT
ATOM      1  C   UNL d   1     -47.603  14.166  22.722  0.00  0.00     0.279 C 
ATOM      2  N   UNL d   1     -47.256  13.447  22.940  0.00  0.00    -0.207 NA
ATOM      3  O   UNL d   1     -47.180  14.702  22.273  0.00  0.00    -0.265 OA
ENDROOT
BRANCH   1   4
ATOM      4  C   UNL d   1     -48.375  14.335  22.960  0.00  0.00     0.062 C 
BRANCH   4   5
ATOM      5  C   UNL d   1     -48.771  14.982  22.645  0.00  0.00     0.005 C 
BRANCH   5   6
ATOM      6  C   UNL d   1     -49.533  15.162  22.883  0.00  0.00     0.000 A 
ATOM      7  C   UNL d   1     -50.178  14.764  22.551  0.00  0.00     0.000 A 
ATOM      8  C   UNL d   1     -50.935  14.950  22.795  0.00  0.00     0.000 A 
ATOM      9  C   UNL d   1     -51.062  15.525  23.364  0.00  0.00     0.000 A 
ATOM     10  C   UNL d   1     -50.425  15.922  23.697  0.00  0.00     0.000 A 
ATOM     11  C   UNL d   1     -49.655  15.742  23.458  0.00  0.00     0.000 A 
ENDBRANCH   5   6
ENDBRANCH   4   5
ENDBRANCH   1   4
BRANCH   2  12
ATOM     12  C   UNL d   1     -46.489  13.279  22.704  0.00  0.00     0.097 A 
ATOM     13  C   UNL d   1     -46.502  12.619  23.201  0.00  0.00     0.118 A 
ATOM     14  S   UNL d   1     -45.769  12.237  23.139  0.00  0.00     0.213 S 
ATOM     15  O   UNL d   1     -46.302  11.883  23.655  0.00  0.00    -0.217 OA
ATOM     16  O   UNL d   1     -45.016  11.912  23.027  0.00  0.00    -0.217 OA
ATOM     17  C   UNL d   1     -45.304  12.664  22.602  0.00  0.00     0.100 A 
ATOM     18  C   UNL d   1     -45.743  13.304  22.333  0.00  0.00     0.032 A 
ENDBRANCH   2  12
TORSDOF 4
ENDMDL
MODEL 2
REMARK VINA RESULT:      -6.1      1.788      2.768
REMARK  4 active torsions:
REMARK  status: ('A' for Active; 'I' for Inactive)
REMARK       I    between atoms: C_3  and  N_7 
REMARK    1  A    between atoms: C_6  and  C_3 
REMARK    2  A    between atoms: C_8  and  C_6 
REMARK    3  A    between atoms: N_7  and  C_9 
REMARK    4  A    between atoms: C_13  and  C_8 
ROOT
ATOM      1  C   UNL d   1     -46.389  11.925  23.413  0.00  0.00     0.279 C 
ATOM      2  N   UNL d   1     -45.588  11.756  23.299  0.00  0.00    -0.207 NA
ATOM      3  O   UNL d   1     -46.891  11.344  23.694  0.00  0.00    -0.265 OA
ENDROOT
BRANCH   1   4
ATOM      4  C   UNL d   1     -46.676  12.680  23.243  0.00  0.00     0.062 C 
BRANCH   4   5
ATOM      5  C   UNL d   1     -47.484  12.820  23.227  0.00  0.00     0.005 C 
BRANCH   5   6
ATOM      6  C   UNL d   1     -47.778  13.542  22.975  0.00  0.00     0.000 A 
ATOM      7  C   UNL d   1     -47.275  14.195  22.909  0.00  0.00     0.000 A 
ATOM      8  C   UNL d   1     -47.578  14.912  22.657  0.00  0.00     0.000 A 
ATOM      9  C   UNL d   1     -48.371  14.988  22.470  0.00  0.00     0.000 A 
ATOM     10  C   UNL d   1     -48.874  14.342  22.534  0.00  0.00     0.000 A 
ATOM     11  C   UNL d   1     -48.579  13.613  22.788  0.00  0.00     0.000 A 
ENDBRANCH   5   6
ENDBRANCH   4   5
ENDBRANCH   1   4
BRANCH   2  12
ATOM     12  C   UNL d   1     -45.303  11.006  23.468  0.00  0.00     0.097 A 
ATOM     13  C   UNL d   1     -44.551  11.260  23.237  0.00  0.00     0.118 A 
ATOM     14  S   UNL d   1     -44.028  10.623  23.322  0.00  0.00     0.213 S 
ATOM     15  O   UNL d   1     -43.687  11.318  23.042  0.00  0.00    -0.217 OA
ATOM     16  O   UNL d   1     -43.566   9.946  23.433  0.00  0.00    -0.217 OA
ATOM     17  C   UNL d   1     -44.459   9.975  23.607  0.00  0.00     0.100 A 
ATOM     18  C   UNL d   1     -45.242  10.207  23.698  0.00  0.00     0.032 A 
ENDBRANCH   2  12
TORSDOF 4
ENDMDL
MODEL 3
REMARK VINA RESULT:      -6.0      1.528      1.787
REMARK  4 active torsions:
REMARK  status: ('A' for Active; 'I' for Inactive)
REMARK       I    between atoms: C_3  and  N_7 
REMARK    1  A    between atoms: C_6  and  C_3 
REMARK    2  A    between atoms: C_8  and  C_6 
REMARK    3  A    between atoms: N_7  and  C_9 
REMARK    4  A    between atoms: C_13  and  C_8 
ROOT
ATOM      1  C   UNL d   1     -47.697  13.645  22.894  0.00  0.00     0.279 C 
ATOM      2  N   UNL d   1     -47.039  13.148  22.965  0.00  0.00    -0.207 NA
ATOM      3  O   UNL d   1     -47.639  14.336  22.460  0.00  0.00    -0.265 OA
ENDROOT
BRANCH   1   4
ATOM      4  C   UNL d   1     -48.406  13.438  23.262  0.00  0.00     0.062 C 
BRANCH   4   5
ATOM      5  C   UNL d   1     -49.100  13.397  22.825  0.00  0.00     0.005 C 
BRANCH   5   6
ATOM      6  C   UNL d   1     -49.752  12.996  23.115  0.00  0.00     0.000 A 
ATOM      7  C   UNL d   1     -49.759  12.169  23.132  0.00  0.00     0.000 A 
ATOM      8  C   UNL d   1     -50.414  11.777  23.423  0.00  0.00     0.000 A 
ATOM      9  C   UNL d   1     -51.063  12.195  23.697  0.00  0.00     0.000 A 
ATOM     10  C   UNL d   1     -51.061  13.016  23.682  0.00  0.00     0.000 A 
ATOM     11  C   UNL d   1     -50.404  13.422  23.390  0.00  0.00     0.000 A 
ENDBRANCH   5   6
ENDBRANCH   4   5
ENDBRANCH   1   4
BRANCH   2  12
ATOM     12  C   UNL d   1     -46.334  13.354  22.599  0.00  0.00     0.097 A 
ATOM     13  C   UNL d   1     -46.002  12.654  22.890  0.00  0.00     0.118 A 
ATOM     14  S   UNL d   1     -45.215  12.619  22.636  0.00  0.00     0.213 S 
ATOM     15  O   UNL d   1     -45.461  11.981  23.093  0.00  0.00    -0.217 OA
ATOM     16  O   UNL d   1     -44.440  12.652  22.346  0.00  0.00    -0.217 OA
ATOM     17  C   UNL d   1     -45.061  13.298  22.187  0.00  0.00     0.100 A 
ATOM     18  C   UNL d   1     -45.747  13.751  22.163  0.00  0.00     0.032 A 
ENDBRANCH   2  12
TORSDOF 4
ENDMDL
MODEL 4
REMARK VINA RESULT:      -6.0      2.004      4.584
REMARK  4 active torsions:
REMARK  status: ('A' for Active; 'I' for Inactive)
REMARK       I    between atoms: C_3  and  N_7 
REMARK    1  A    between atoms: C_6  and  C_3 
REMARK    2  A    between atoms: C_8  and  C_6 
REMARK    3  A    between atoms: N_7  and  C_9 
REMARK    4  A    between atoms: C_13  and  C_8 
ROOT
ATOM      1  C   UNL d   1     -47.894  14.074  22.809  0.00  0.00     0.279 C 
ATOM      2  N   UNL d   1     -48.717  14.019  22.881  0.00  0.00    -0.207 NA
ATOM      3  O   UNL d   1     -47.537  14.810  22.787  0.00  0.00    -0.265 OA
ENDROOT
BRANCH   1   4
ATOM      4  C   UNL d   1     -47.442  13.386  22.759  0.00  0.00     0.062 C 
BRANCH   4   5
ATOM      5  C   UNL d   1     -46.882  13.219  23.336  0.00  0.00     0.005 C 
BRANCH   5   6
ATOM      6  C   UNL d   1     -46.480  12.506  23.334  0.00  0.00     0.000 A 
ATOM      7  C   UNL d   1     -46.812  11.840  23.696  0.00  0.00     0.000 A 
ATOM      8  C   UNL d   1     -46.404  11.132  23.689  0.00  0.00     0.000 A 
ATOM      9  C   UNL d   1     -45.672  11.075  23.327  0.00  0.00     0.000 A 
ATOM     10  C   UNL d   1     -45.338  11.733  22.966  0.00  0.00     0.000 A 
ATOM     11  C   UNL d   1     -45.742  12.454  22.967  0.00  0.00     0.000 A 
ENDBRANCH   5   6
ENDBRANCH   4   5
ENDBRANCH   1   4
BRANCH   2  12
ATOM     12  C   UNL d   1     -49.166  14.703  22.930  0.00  0.00     0.097 A 
ATOM     13  C   UNL d   1     -49.815  14.237  23.143  0.00  0.00     0.118 A 
ATOM     14  S   UNL d   1     -50.464  14.739  23.261  0.00  0.00     0.213 S 
ATOM     15  O   UNL d   1     -50.618  13.940  23.378  0.00  0.00    -0.217 OA
ATOM     16  O   UNL d   1     -51.064  15.300  23.361  0.00  0.00    -0.217 OA
ATOM     17  C   UNL d   1     -50.213  15.517  23.120  0.00  0.00     0.100 A 
ATOM     18  C   UNL d   1     -49.417  15.497  22.917  0.00  0.00     0.032 A 
ENDBRANCH   2  12
TORSDOF 4
ENDMDL
MODEL 5
REMARK VINA RESULT:      -5.9      1.713      2.144
REMARK  4 active torsions:
REMARK  status: ('A' for Active; 'I' for Inactive)
REMARK       I    between atoms: C_3  and  N_7 
REMARK    1  A    between atoms: C_6  and  C_3 
REMARK    2  A    between atoms: C_8  and  C_6 
REMARK    3  A    between atoms: N_7  and  C_9 
REMARK    4  A    between atoms: C_13  and  C_8 
ROOT
ATOM      1  C   UNL d   1     -48.835  11.878  23.587  0.00  0.00     0.279 C 
ATOM      2  N   UNL d   1     -48.044  12.095  23.696  0.00  0.00    -0.207 NA
ATOM      3  O   UNL d   1     -49.028  11.092  23.475  0.00  0.00    -0.265 OA
ENDROOT
BRANCH   1   4
ATOM      4  C   UNL d   1     -49.421  12.458  23.593  0.00  0.00     0.062 C 
BRANCH   4   5
ATOM      5  C   UNL d   1     -49.984  12.480  22.996  0.00  0.00     0.005 C 
BRANCH   5   6
ATOM      6  C   UNL d   1     -50.343  13.186  22.786  0.00  0.00     0.000 A 
ATOM      7  C   UNL d   1     -50.355  13.428  21.995  0.00  0.00     0.000 A 
ATOM      8  C   UNL d   1     -50.716  14.134  21.796  0.00  0.00     0.000 A 
ATOM      9  C   UNL d   1     -51.064  14.602  22.370  0.00  0.00     0.000 A 
ATOM     10  C   UNL d   1     -51.055  14.366  23.156  0.00  0.00     0.000 A 
ATOM     11  C   UNL d   1     -50.693  13.654  23.370  0.00  0.00     0.000 A 
ENDBRANCH   5   6
ENDBRANCH   4   5
ENDBRANCH   1   4
BRANCH   2  12
ATOM     12  C   UNL d   1     -47.461  11.518  23.691  0.00  0.00     0.097 A 
ATOM     13  C   UNL d   1     -46.893  12.120  23.693  0.00  0.00     0.118 A 
ATOM     14  S   UNL d   1     -46.144  11.766  23.689  0.00  0.00     0.213 S 
ATOM     15  O   UNL d   1     -46.140  12.589  23.695  0.00  0.00    -0.217 OA
ATOM     16  O   UNL d   1     -45.433  11.344  23.684  0.00  0.00    -0.217 OA
ATOM     17  C   UNL d   1     -46.250  10.944  23.683  0.00  0.00     0.100 A 
ATOM     18  C   UNL d   1     -47.058  10.789  23.684  0.00  0.00     0.032 A 
ENDBRANCH   2  12
TORSDOF 4
ENDMDL
MODEL 6
REMARK VINA RESULT:      -5.6      2.162      4.543
REMARK  4 active torsions:
REMARK  status: ('A' for Active; 'I' for Inactive)
REMARK       I    between atoms: C_3  and  N_7 
REMARK    1  A    between atoms: C_6  and  C_3 
REMARK    2  A    between atoms: C_8  and  C_6 
REMARK    3  A    between atoms: N_7  and  C_9 
REMARK    4  A    between atoms: C_13  and  C_8 
ROOT
ATOM      1  C   UNL d   1     -47.951  13.270  22.845  0.00  0.00     0.279 C 
ATOM      2  N   UNL d   1     -48.565  12.716  22.852  0.00  0.00    -0.207 NA
ATOM      3  O   UNL d   1     -48.074  14.017  23.157  0.00  0.00    -0.265 OA
ENDROOT
BRANCH   1   4
ATOM      4  C   UNL d   1     -47.219  13.066  22.524  0.00  0.00     0.062 C 
BRANCH   4   5
ATOM      5  C   UNL d   1     -46.526  13.284  22.906  0.00  0.00     0.005 C 
BRANCH   5   6
ATOM      6  C   UNL d   1     -45.798  13.030  22.629  0.00  0.00     0.000 A 
ATOM      7  C   UNL d   1     -45.475  12.318  22.899  0.00  0.00     0.000 A 
ATOM      8  C   UNL d   1     -44.749  12.072  22.617  0.00  0.00     0.000 A 
ATOM      9  C   UNL d   1     -44.339  12.523  22.070  0.00  0.00     0.000 A 
ATOM     10  C   UNL d   1     -44.655  13.231  21.798  0.00  0.00     0.000 A 
ATOM     11  C   UNL d   1     -45.390  13.489  22.077  0.00  0.00     0.000 A 
ENDBRANCH   5   6
ENDBRANCH   4   5
ENDBRANCH   1   4
BRANCH   2  12
ATOM     12  C   UNL d   1     -49.292  12.920  23.171  0.00  0.00     0.097 A 
ATOM     13  C   UNL d   1     -49.518  12.127  23.111  0.00  0.00     0.118 A 
ATOM     14  S   UNL d   1     -50.292  12.058  23.398  0.00  0.00     0.213 S 
ATOM     15  O   UNL d   1     -49.956  11.355  23.137  0.00  0.00    -0.217 OA
ATOM     16  O   UNL d   1     -51.064  12.067  23.698  0.00  0.00    -0.217 OA
ATOM     17  C   UNL d   1     -50.544  12.811  23.635  0.00  0.00     0.100 A 
ATOM     18  C   UNL d   1     -49.931  13.342  23.497  0.00  0.00     0.032 A 
ENDBRANCH   2  12
TORSDOF 4
ENDMDL
MODEL 7
REMARK VINA RESULT:      -4.7      8.472      9.904
REMARK  4 active torsions:
REMARK  status: ('A' for Active; 'I' for Inactive)
REMARK       I    between atoms: C_3  and  N_7 
REMARK    1  A    between atoms: C_6  and  C_3 
REMARK    2  A    between atoms: C_8  and  C_6 
REMARK    3  A    between atoms: N_7  and  C_9 
REMARK    4  A    between atoms: C_13  and  C_8 
ROOT
ATOM      1  C   UNL d   1     -39.402  15.276  17.944  0.00  0.00     0.279 C 
ATOM      2  N   UNL d   1     -38.981  14.653  17.599  0.00  0.00    -0.207 NA
ATOM      3  O   UNL d   1     -39.618  15.921  17.489  0.00  0.00    -0.265 OA
ENDROOT
BRANCH   1   4
ATOM      4  C   UNL d   1     -39.599  15.243  18.745  0.00  0.00     0.062 C 
BRANCH   4   5
ATOM      5  C   UNL d   1     -40.372  15.380  18.985  0.00  0.00     0.005 C 
BRANCH   5   6
ATOM      6  C   UNL d   1     -40.593  15.267  19.765  0.00  0.00     0.000 A 
ATOM      7  C   UNL d   1     -40.681  14.501  20.066  0.00  0.00     0.000 A 
ATOM      8  C   UNL d   1     -40.902  14.398  20.846  0.00  0.00     0.000 A 
ATOM      9  C   UNL d   1     -41.037  15.044  21.331  0.00  0.00     0.000 A 
ATOM     10  C   UNL d   1     -40.951  15.806  21.037  0.00  0.00     0.000 A 
ATOM     11  C   UNL d   1     -40.728  15.922  20.249  0.00  0.00     0.000 A 
ENDBRANCH   5   6
ENDBRANCH   4   5
ENDBRANCH   1   4
BRANCH   2  12
ATOM     12  C   UNL d   1     -38.785  14.687  16.804  0.00  0.00     0.097 A 
ATOM     13  C   UNL d   1     -38.490  13.917  16.864  0.00  0.00     0.118 A 
ATOM     14  S   UNL d   1     -38.204  13.693  16.120  0.00  0.00     0.213 S 
ATOM     15  O   UNL d   1     -38.128  13.122  16.707  0.00  0.00    -0.217 OA
ATOM     16  O   UNL d   1     -37.940  13.540  15.350  0.00  0.00    -0.217 OA
ATOM     17  C   UNL d   1     -38.323  14.327  15.599  0.00  0.00     0.100 A 
ATOM     18  C   UNL d   1     -38.680  14.938  16.017  0.00  0.00     0.032 A 
ENDBRANCH   2  12
TORSDOF 4
ENDMDL
