MODEL 1
REMARK VINA RESULT:      -6.3      0.000      0.000
REMARK  5 active torsions:
REMARK  status: ('A' for Active; 'I' for Inactive)
REMARK    1  A    between atoms: C_3  and  C_1 
REMARK    2  A    between atoms: C_4  and  C_3 
REMARK    3  A    between atoms: C_7  and  C_4 
REMARK    4  A    between atoms: C_10  and  C_7 
REMARK    5  A    between atoms: O_19  and  C_9 
ROOT
ATOM      1  C   UNL d   1     -46.522  13.234  22.973  0.00  0.00     0.199 C 
ATOM      2  O   UNL d   1     -46.541  13.627  23.698  0.00  0.00    -0.286 OA
ENDROOT
BRANCH   1   3
ATOM      3  C   UNL d   1     -45.801  13.005  22.648  0.00  0.00     0.078 A 
ATOM      4  C   UNL d   1     -45.409  12.340  22.938  0.00  0.00     0.201 A 
ATOM      5  C   UNL d   1     -44.685  12.111  22.610  0.00  0.00     0.066 A 
ATOM      6  O   UNL d   1     -45.736  11.900  23.556  0.00  0.00    -0.286 OA
ATOM      7  C   UNL d   1     -44.356  12.547  21.994  0.00  0.00     0.097 A 
ATOM      8  C   UNL d   1     -44.748  13.213  21.703  0.00  0.00     0.025 A 
ATOM      9  C   UNL d   1     -45.469  13.441  22.029  0.00  0.00     0.008 A 
BRANCH   7  10
ATOM     10  O   UNL d   1     -43.630  12.319  21.664  0.00  0.00    -0.328 OA
ATOM     11  C   UNL d   1     -43.044  12.882  21.525  0.00  0.00     0.181 C 
ENDBRANCH   7  10
ENDBRANCH   1   3
BRANCH   1  12
ATOM     12  C   UNL d   1     -47.223  13.070  22.574  0.00  0.00     0.042 C 
BRANCH  12  13
ATOM     13  C   UNL d   1     -47.945  13.366  22.858  0.00  0.00     0.003 C 
BRANCH  13  14
ATOM     14  C   UNL d   1     -48.648  13.184  22.472  0.00  0.00     0.000 A 
ATOM     15  C   UNL d   1     -48.889  13.642  21.829  0.00  0.00     0.001 A 
ATOM     16  C   UNL d   1     -49.592  13.461  21.442  0.00  0.00     0.011 A 
ATOM     17  C   UNL d   1     -50.051  12.804  21.717  0.00  0.00     0.058 A 
ATOM     18  C   UNL d   1     -49.811  12.364  22.341  0.00  0.00     0.011 A 
ATOM     19 CL   UNL d   1     -50.751  12.615  21.340  0.00  0.00    -0.082 Cl
ATOM     20  C   UNL d   1     -49.108  12.546  22.727  0.00  0.00     0.001 A 
ENDBRANCH  13  14
ENDBRANCH  12  13
ENDBRANCH   1  12
TORSDOF 5
ENDMDL
MODEL 2
REMARK VINA RESULT:      -6.3      7.639      8.873
REMARK  5 active torsions:
REMARK  status: ('A' for Active; 'I' for Inactive)
REMARK    1  A    between atoms: C_3  and  C_1 
REMARK    2  A    between atoms: C_4  and  C_3 
REMARK    3  A    between atoms: C_7  and  C_4 
REMARK    4  A    between atoms: C_10  and  C_7 
REMARK    5  A    between atoms: O_19  and  C_9 
ROOT
ATOM      1  C   UNL d   1     -40.265  14.223  18.277  0.00  0.00     0.199 C 
ATOM      2  O   UNL d   1     -40.998  13.847  18.220  0.00  0.00    -0.286 OA
ENDROOT
BRANCH   1   3
ATOM      3  C   UNL d   1     -39.759  14.241  17.629  0.00  0.00     0.078 A 
ATOM      4  C   UNL d   1     -39.887  14.782  17.020  0.00  0.00     0.201 A 
ATOM      5  C   UNL d   1     -39.377  14.798  16.368  0.00  0.00     0.066 A 
ATOM      6  O   UNL d   1     -40.521  15.309  17.056  0.00  0.00    -0.286 OA
ATOM      7  C   UNL d   1     -38.743  14.274  16.329  0.00  0.00     0.097 A 
ATOM      8  C   UNL d   1     -38.615  13.732  16.938  0.00  0.00     0.025 A 
ATOM      9  C   UNL d   1     -39.122  13.715  17.587  0.00  0.00     0.008 A 
BRANCH   7  10
ATOM     10  O   UNL d   1     -38.231  14.289  15.676  0.00  0.00    -0.328 OA
ATOM     11  C   UNL d   1     -38.044  13.590  15.281  0.00  0.00     0.181 C 
ENDBRANCH   7  10
ENDBRANCH   1   3
BRANCH   1  12
ATOM     12  C   UNL d   1     -40.040  14.582  18.984  0.00  0.00     0.042 C 
BRANCH  12  13
ATOM     13  C   UNL d   1     -40.477  14.449  19.678  0.00  0.00     0.003 C 
BRANCH  13  14
ATOM     14  C   UNL d   1     -40.247  14.801  20.385  0.00  0.00     0.000 A 
ATOM     15  C   UNL d   1     -39.768  14.382  20.910  0.00  0.00     0.001 A 
ATOM     16  C   UNL d   1     -39.537  14.733  21.618  0.00  0.00     0.011 A 
ATOM     17  C   UNL d   1     -39.801  15.520  21.787  0.00  0.00     0.058 A 
ATOM     18  C   UNL d   1     -40.265  15.920  21.273  0.00  0.00     0.011 A 
ATOM     19 CL   UNL d   1     -39.578  15.879  22.487  0.00  0.00    -0.082 Cl
ATOM     20  C   UNL d   1     -40.495  15.568  20.566  0.00  0.00     0.001 A 
ENDBRANCH  13  14
ENDBRANCH  12  13
ENDBRANCH   1  12
TORSDOF 5
ENDMDL
MODEL 3
REMARK VINA RESULT:      -5.7      7.660      8.753
REMARK  5 active torsions:
REMARK  status: ('A' for Active; 'I' for Inactive)
REMARK    1  A    between atoms: C_3  and  C_1 
REMARK    2  A    between atoms: C_4  and  C_3 
REMARK    3  A    between atoms: C_7  and  C_4 
REMARK    4  A    between atoms: C_10  and  C_7 
REMARK    5  A    between atoms: O_19  and  C_9 
ROOT
ATOM      1  C   UNL d   1     -40.445  14.475  19.787  0.00  0.00     0.199 C 
ATOM      2  O   UNL d   1     -41.196  14.135  19.741  0.00  0.00    -0.286 OA
ENDROOT
BRANCH   1   3
ATOM      3  C   UNL d   1     -40.198  14.836  20.483  0.00  0.00     0.078 A 
ATOM      4  C   UNL d   1     -40.525  15.558  20.713  0.00  0.00     0.201 A 
ATOM      5  C   UNL d   1     -40.275  15.920  21.414  0.00  0.00     0.066 A 
ATOM      6  O   UNL d   1     -41.101  15.922  20.248  0.00  0.00    -0.286 OA
ATOM      7  C   UNL d   1     -39.701  15.559  21.882  0.00  0.00     0.097 A 
ATOM      8  C   UNL d   1     -39.374  14.838  21.652  0.00  0.00     0.025 A 
ATOM      9  C   UNL d   1     -39.621  14.476  20.954  0.00  0.00     0.008 A 
BRANCH   7  10
ATOM     10  O   UNL d   1     -39.449  15.921  22.585  0.00  0.00    -0.328 OA
ATOM     11  C   UNL d   1     -38.662  15.863  22.821  0.00  0.00     0.181 C 
ENDBRANCH   7  10
ENDBRANCH   1   3
BRANCH   1  12
ATOM     12  C   UNL d   1     -39.943  14.453  19.135  0.00  0.00     0.042 C 
BRANCH  12  13
ATOM     13  C   UNL d   1     -40.169  14.047  18.446  0.00  0.00     0.003 C 
BRANCH  13  14
ATOM     14  C   UNL d   1     -39.675  14.041  17.789  0.00  0.00     0.000 A 
ATOM     15  C   UNL d   1     -39.719  14.656  17.241  0.00  0.00     0.001 A 
ATOM     16  C   UNL d   1     -39.224  14.650  16.583  0.00  0.00     0.011 A 
ATOM     17  C   UNL d   1     -38.681  14.007  16.487  0.00  0.00     0.058 A 
ATOM     18  C   UNL d   1     -38.644  13.414  17.023  0.00  0.00     0.011 A 
ATOM     19 CL   UNL d   1     -38.185  13.991  15.838  0.00  0.00    -0.082 Cl
ATOM     20  C   UNL d   1     -39.138  13.421  17.680  0.00  0.00     0.001 A 
ENDBRANCH  13  14
ENDBRANCH  12  13
ENDBRANCH   1  12
TORSDOF 5
ENDMDL
MODEL 4
REMARK VINA RESULT:      -5.7      2.177      4.611
REMARK  5 active torsions:
REMARK  status: ('A' for Active; 'I' for Inactive)
REMARK    1  A    between atoms: C_3  and  C_1 
REMARK    2  A    between atoms: C_4  and  C_3 
REMARK    3  A    between atoms: C_7  and  C_4 
REMARK    4  A    between atoms: C_10  and  C_7 
REMARK    5  A    between atoms: O_19  and  C_9 
ROOT
ATOM      1  C   UNL d   1     -48.006  12.720  22.989  0.00  0.00     0.199 C 
ATOM      2  O   UNL d   1     -48.016  12.291  23.693  0.00  0.00    -0.286 OA
ENDROOT
BRANCH   1   3
ATOM      3  C   UNL d   1     -48.711  12.902  22.607  0.00  0.00     0.078 A 
ATOM      4  C   UNL d   1     -49.198  12.297  22.328  0.00  0.00     0.201 A 
ATOM      5  C   UNL d   1     -49.907  12.482  21.944  0.00  0.00     0.066 A 
ATOM      6  O   UNL d   1     -48.982  11.507  22.430  0.00  0.00    -0.286 OA
ATOM      7  C   UNL d   1     -50.126  13.270  21.841  0.00  0.00     0.097 A 
ATOM      8  C   UNL d   1     -49.639  13.874  22.119  0.00  0.00     0.025 A 
ATOM      9  C   UNL d   1     -48.933  13.692  22.502  0.00  0.00     0.008 A 
BRANCH   7  10
ATOM     10  O   UNL d   1     -50.838  13.456  21.456  0.00  0.00    -0.328 OA
ATOM     11  C   UNL d   1     -51.064  14.244  21.366  0.00  0.00     0.181 C 
ENDBRANCH   7  10
ENDBRANCH   1   3
BRANCH   1  12
ATOM     12  C   UNL d   1     -47.289  12.967  22.667  0.00  0.00     0.042 C 
BRANCH  12  13
ATOM     13  C   UNL d   1     -46.587  12.894  23.105  0.00  0.00     0.003 C 
BRANCH  13  14
ATOM     14  C   UNL d   1     -45.861  12.855  22.720  0.00  0.00     0.000 A 
ATOM     15  C   UNL d   1     -45.627  13.477  22.231  0.00  0.00     0.001 A 
ATOM     16  C   UNL d   1     -44.900  13.439  21.846  0.00  0.00     0.011 A 
ATOM     17  C   UNL d   1     -44.412  12.757  21.964  0.00  0.00     0.058 A 
ATOM     18  C   UNL d   1     -44.646  12.158  22.440  0.00  0.00     0.011 A 
ATOM     19 CL   UNL d   1     -43.689  12.708  21.586  0.00  0.00    -0.082 Cl
ATOM     20  C   UNL d   1     -45.372  12.197  22.825  0.00  0.00     0.001 A 
ENDBRANCH  13  14
ENDBRANCH  12  13
ENDBRANCH   1  12
TORSDOF 5
ENDMDL
MODEL 5
REMARK VINA RESULT:      -5.6      2.425      4.868
REMARK  5 active torsions:
REMARK  status: ('A' for Active; 'I' for Inactive)
REMARK    1  A    between atoms: C_3  and  C_1 
REMARK    2  A    between atoms: C_4  and  C_3 
REMARK    3  A    between atoms: C_7  and  C_4 
REMARK    4  A    between atoms: C_10  and  C_7 
REMARK    5  A    between atoms: O_19  and  C_9 
ROOT
ATOM      1  C   UNL d   1     -48.606  13.091  22.978  0.00  0.00     0.199 C 
ATOM      2  O   UNL d   1     -48.804  12.323  23.204  0.00  0.00    -0.286 OA
ENDROOT
BRANCH   1   3
ATOM      3  C   UNL d   1     -49.187  13.673  22.945  0.00  0.00     0.078 A 
ATOM      4  C   UNL d   1     -49.654  13.752  22.270  0.00  0.00     0.201 A 
ATOM      5  C   UNL d   1     -50.238  14.338  22.238  0.00  0.00     0.066 A 
ATOM      6  O   UNL d   1     -49.543  13.250  21.624  0.00  0.00    -0.286 OA
ATOM      7  C   UNL d   1     -50.351  14.841  22.880  0.00  0.00     0.097 A 
ATOM      8  C   UNL d   1     -49.884  14.762  23.555  0.00  0.00     0.025 A 
ATOM      9  C   UNL d   1     -49.303  14.180  23.588  0.00  0.00     0.008 A 
BRANCH   7  10
ATOM     10  O   UNL d   1     -50.936  15.429  22.849  0.00  0.00    -0.328 OA
ATOM     11  C   UNL d   1     -51.061  15.922  23.498  0.00  0.00     0.181 C 
ENDBRANCH   7  10
ENDBRANCH   1   3
BRANCH   1  12
ATOM     12  C   UNL d   1     -47.827  13.277  22.785  0.00  0.00     0.042 C 
BRANCH  12  13
ATOM     13  C   UNL d   1     -47.199  12.914  23.189  0.00  0.00     0.003 C 
BRANCH  13  14
ATOM     14  C   UNL d   1     -46.445  12.907  22.861  0.00  0.00     0.000 A 
ATOM     15  C   UNL d   1     -46.002  12.211  22.873  0.00  0.00     0.001 A 
ATOM     16  C   UNL d   1     -45.247  12.204  22.545  0.00  0.00     0.011 A 
ATOM     17  C   UNL d   1     -44.946  12.918  22.201  0.00  0.00     0.058 A 
ATOM     18  C   UNL d   1     -45.381  13.589  22.193  0.00  0.00     0.011 A 
ATOM     19 CL   UNL d   1     -44.197  12.922  21.872  0.00  0.00    -0.082 Cl
ATOM     20  C   UNL d   1     -46.135  13.595  22.521  0.00  0.00     0.001 A 
ENDBRANCH  13  14
ENDBRANCH  12  13
ENDBRANCH   1  12
TORSDOF 5
ENDMDL
MODEL 6
REMARK VINA RESULT:      -5.4      8.237      9.048
REMARK  5 active torsions:
REMARK  status: ('A' for Active; 'I' for Inactive)
REMARK    1  A    between atoms: C_3  and  C_1 
REMARK    2  A    between atoms: C_4  and  C_3 
REMARK    3  A    between atoms: C_7  and  C_4 
REMARK    4  A    between atoms: C_10  and  C_7 
REMARK    5  A    between atoms: O_19  and  C_9 
ROOT
ATOM      1  C   UNL d   1     -38.978  14.694  18.852  0.00  0.00     0.199 C 
ATOM      2  O   UNL d   1     -38.212  14.789  18.560  0.00  0.00    -0.286 OA
ENDROOT
BRANCH   1   3
ATOM      3  C   UNL d   1     -39.625  14.821  18.361  0.00  0.00     0.078 A 
ATOM      4  C   UNL d   1     -39.848  14.246  17.813  0.00  0.00     0.201 A 
ATOM      5  C   UNL d   1     -40.499  14.375  17.320  0.00  0.00     0.066 A 
ATOM      6  O   UNL d   1     -39.424  13.540  17.754  0.00  0.00    -0.286 OA
ATOM      7  C   UNL d   1     -40.925  15.079  17.376  0.00  0.00     0.097 A 
ATOM      8  C   UNL d   1     -40.702  15.654  17.924  0.00  0.00     0.025 A 
ATOM      9  C   UNL d   1     -40.054  15.526  18.416  0.00  0.00     0.008 A 
BRANCH   7  10
ATOM     10  O   UNL d   1     -41.578  15.210  16.882  0.00  0.00    -0.328 OA
ATOM     11  C   UNL d   1     -41.616  15.891  16.418  0.00  0.00     0.181 C 
ENDBRANCH   7  10
ENDBRANCH   1   3
BRANCH   1  12
ATOM     12  C   UNL d   1     -39.095  14.470  19.636  0.00  0.00     0.042 C 
BRANCH  12  13
ATOM     13  C   UNL d   1     -38.452  14.434  20.161  0.00  0.00     0.003 C 
BRANCH  13  14
ATOM     14  C   UNL d   1     -38.556  14.138  20.922  0.00  0.00     0.000 A 
ATOM     15  C   UNL d   1     -38.140  13.465  21.156  0.00  0.00     0.001 A 
ATOM     16  C   UNL d   1     -38.243  13.169  21.917  0.00  0.00     0.011 A 
ATOM     17  C   UNL d   1     -38.776  13.568  22.441  0.00  0.00     0.058 A 
ATOM     18  C   UNL d   1     -39.176  14.220  22.207  0.00  0.00     0.011 A 
ATOM     19 CL   UNL d   1     -38.886  13.282  23.199  0.00  0.00    -0.082 Cl
ATOM     20  C   UNL d   1     -39.073  14.515  21.446  0.00  0.00     0.001 A 
ENDBRANCH  13  14
ENDBRANCH  12  13
ENDBRANCH   1  12
TORSDOF 5
ENDMDL
MODEL 7
REMARK VINA RESULT:      -4.2      6.580      9.746
REMARK  5 active torsions:
REMARK  status: ('A' for Active; 'I' for Inactive)
REMARK    1  A    between atoms: C_3  and  C_1 
REMARK    2  A    between atoms: C_4  and  C_3 
REMARK    3  A    between atoms: C_7  and  C_4 
REMARK    4  A    between atoms: C_10  and  C_7 
REMARK    5  A    between atoms: O_19  and  C_9 
ROOT
ATOM      1  C   UNL d   1     -38.694  15.276  18.969  0.00  0.00     0.199 C 
ATOM      2  O   UNL d   1     -38.085  15.795  19.169  0.00  0.00    -0.286 OA
ENDROOT
BRANCH   1   3
ATOM      3  C   UNL d   1     -39.315  15.149  19.494  0.00  0.00     0.078 A 
ATOM      4  C   UNL d   1     -39.194  14.704  20.178  0.00  0.00     0.201 A 
ATOM      5  C   UNL d   1     -39.820  14.577  20.704  0.00  0.00     0.066 A 
ATOM      6  O   UNL d   1     -38.452  14.384  20.341  0.00  0.00    -0.286 OA
ATOM      7  C   UNL d   1     -40.563  14.896  20.544  0.00  0.00     0.097 A 
ATOM      8  C   UNL d   1     -40.684  15.340  19.860  0.00  0.00     0.025 A 
ATOM      9  C   UNL d   1     -40.062  15.467  19.336  0.00  0.00     0.008 A 
BRANCH   7  10
ATOM     10  O   UNL d   1     -41.192  14.769  21.071  0.00  0.00    -0.328 OA
ATOM     11  C   UNL d   1     -41.669  14.102  20.993  0.00  0.00     0.181 C 
ENDBRANCH   7  10
ENDBRANCH   1   3
BRANCH   1  12
ATOM     12  C   UNL d   1     -38.681  14.885  18.245  0.00  0.00     0.042 C 
BRANCH  12  13
ATOM     13  C   UNL d   1     -38.085  15.050  17.691  0.00  0.00     0.003 C 
BRANCH  13  14
ATOM     14  C   UNL d   1     -38.078  14.665  16.964  0.00  0.00     0.000 A 
ATOM     15  C   UNL d   1     -38.202  15.099  16.273  0.00  0.00     0.001 A 
ATOM     16  C   UNL d   1     -38.194  14.714  15.546  0.00  0.00     0.011 A 
ATOM     17  C   UNL d   1     -38.059  13.878  15.528  0.00  0.00     0.058 A 
ATOM     18  C   UNL d   1     -37.940  13.464  16.202  0.00  0.00     0.011 A 
ATOM     19 CL   UNL d   1     -38.050  13.487  14.810  0.00  0.00    -0.082 Cl
ATOM     20  C   UNL d   1     -37.947  13.849  16.929  0.00  0.00     0.001 A 
ENDBRANCH  13  14
ENDBRANCH  12  13
ENDBRANCH   1  12
TORSDOF 5
ENDMDL
