MODEL 1
REMARK VINA RESULT:      -3.7      0.000      0.000
REMARK  1 active torsions:
REMARK  status: ('A' for Active; 'I' for Inactive)
REMARK    1  A    between atoms: C_5  and  C_1 
ROOT
ATOM      1  N   UNL d   1      32.589  21.569 -21.725  0.00  0.00    -0.242 NA
ATOM      2  C   UNL d   1      32.934  20.845 -21.533  0.00  0.00     0.117 A 
ATOM      3  C   UNL d   1      32.561  22.166 -21.142  0.00  0.00     0.081 A 
ATOM      4  C   UNL d   1      33.241  20.707 -20.795  0.00  0.00     0.022 A 
ATOM      5  C   UNL d   1      32.864  22.033 -20.410  0.00  0.00     0.018 A 
ATOM      6  C   UNL d   1      33.201  21.312 -20.235  0.00  0.00     0.003 A 
ATOM      7  C   UNL d   1      32.219  22.890 -21.328  0.00  0.00     0.019 A 
ATOM      8  C   UNL d   1      32.824  22.639 -19.849  0.00  0.00     0.002 A 
ATOM      9  C   UNL d   1      32.184  23.492 -20.757  0.00  0.00     0.002 A 
ATOM     10  C   UNL d   1      32.490  23.355 -20.022  0.00  0.00     0.000 A 
ENDROOT
BRANCH   2  11
ATOM     11  C   UNL d   1      32.973  20.245 -22.087  0.00  0.00     0.180 A 
ATOM     12  N   UNL d   1      32.861  19.432 -21.947  0.00  0.00    -0.224 NA
ATOM     13  C   UNL d   1      32.951  19.044 -22.653  0.00  0.00     0.101 A 
ATOM     14  C   UNL d   1      32.902  18.230 -22.855  0.00  0.00     0.021 A 
ATOM     15  C   UNL d   1      33.118  19.599 -23.242  0.00  0.00     0.101 A 
ATOM     16  C   UNL d   1      33.020  17.986 -23.632  0.00  0.00     0.002 A 
ATOM     17  C   UNL d   1      33.188  18.541 -24.220  0.00  0.00     0.002 A 
ATOM     18  C   UNL d   1      33.239  19.346 -24.037  0.00  0.00     0.021 A 
ATOM     19  N   UNL d   1      33.134  20.337 -22.906  0.00  0.00    -0.224 NA
ENDBRANCH   2  11
TORSDOF 1
ENDMDL
MODEL 2
REMARK VINA RESULT:      -3.5      0.827      4.381
REMARK  1 active torsions:
REMARK  status: ('A' for Active; 'I' for Inactive)
REMARK    1  A    between atoms: C_5  and  C_1 
ROOT
ATOM      1  N   UNL d   1      32.550  19.287 -23.277  0.00  0.00    -0.242 NA
ATOM      2  C   UNL d   1      32.876  19.399 -22.528  0.00  0.00     0.117 A 
ATOM      3  C   UNL d   1      32.578  18.525 -23.615  0.00  0.00     0.081 A 
ATOM      4  C   UNL d   1      33.219  18.787 -22.122  0.00  0.00     0.022 A 
ATOM      5  C   UNL d   1      32.917  17.915 -23.216  0.00  0.00     0.018 A 
ATOM      6  C   UNL d   1      33.235  18.042 -22.477  0.00  0.00     0.003 A 
ATOM      7  C   UNL d   1      32.254  18.406 -24.362  0.00  0.00     0.019 A 
ATOM      8  C   UNL d   1      32.933  17.169 -23.571  0.00  0.00     0.002 A 
ATOM      9  C   UNL d   1      32.276  17.652 -24.710  0.00  0.00     0.002 A 
ATOM     10  C   UNL d   1      32.618  17.042 -24.305  0.00  0.00     0.000 A 
ENDROOT
BRANCH   2  11
ATOM     11  C   UNL d   1      32.860  20.137 -22.176  0.00  0.00     0.180 A 
ATOM     12  N   UNL d   1      33.192  20.838 -22.479  0.00  0.00    -0.224 NA
ATOM     13  C   UNL d   1      33.044  21.433 -21.948  0.00  0.00     0.101 A 
ATOM     14  C   UNL d   1      33.241  22.249 -21.952  0.00  0.00     0.021 A 
ATOM     15  C   UNL d   1      32.622  21.120 -21.311  0.00  0.00     0.101 A 
ATOM     16  C   UNL d   1      33.016  22.734 -21.328  0.00  0.00     0.002 A 
ATOM     17  C   UNL d   1      32.594  22.422 -20.690  0.00  0.00     0.002 A 
ATOM     18  C   UNL d   1      32.393  21.620 -20.671  0.00  0.00     0.021 A 
ATOM     19  N   UNL d   1      32.504  20.328 -21.440  0.00  0.00    -0.224 NA
ENDBRANCH   2  11
TORSDOF 1
ENDMDL
MODEL 3
REMARK VINA RESULT:      -3.0      1.946      4.880
REMARK  1 active torsions:
REMARK  status: ('A' for Active; 'I' for Inactive)
REMARK    1  A    between atoms: C_5  and  C_1 
ROOT
ATOM      1  N   UNL d   1      32.745  21.616 -20.311  0.00  0.00    -0.242 NA
ATOM      2  C   UNL d   1      32.932  22.376 -20.051  0.00  0.00     0.117 A 
ATOM      3  C   UNL d   1      32.812  21.443 -21.124  0.00  0.00     0.081 A 
ATOM      4  C   UNL d   1      33.177  22.949 -20.569  0.00  0.00     0.022 A 
ATOM      5  C   UNL d   1      33.055  22.009 -21.641  0.00  0.00     0.018 A 
ATOM      6  C   UNL d   1      33.236  22.755 -21.369  0.00  0.00     0.003 A 
ATOM      7  C   UNL d   1      32.627  20.686 -21.389  0.00  0.00     0.019 A 
ATOM      8  C   UNL d   1      33.114  21.814 -22.442  0.00  0.00     0.002 A 
ATOM      9  C   UNL d   1      32.690  20.502 -22.196  0.00  0.00     0.002 A 
ATOM     10  C   UNL d   1      32.935  21.073 -22.713  0.00  0.00     0.000 A 
ENDROOT
BRANCH   2  11
ATOM     11  C   UNL d   1      32.874  22.568 -19.258  0.00  0.00     0.180 A 
ATOM     12  N   UNL d   1      33.241  22.174 -18.624  0.00  0.00    -0.224 NA
ATOM     13  C   UNL d   1      33.029  22.553 -17.939  0.00  0.00     0.101 A 
ATOM     14  C   UNL d   1      33.226  22.410 -17.136  0.00  0.00     0.021 A 
ATOM     15  C   UNL d   1      32.532  23.185 -18.129  0.00  0.00     0.101 A 
ATOM     16  C   UNL d   1      32.926  22.893 -16.542  0.00  0.00     0.002 A 
ATOM     17  C   UNL d   1      32.429  23.525 -16.732  0.00  0.00     0.002 A 
ATOM     18  C   UNL d   1      32.227  23.679 -17.518  0.00  0.00     0.021 A 
ATOM     19  N   UNL d   1      32.431  23.203 -18.934  0.00  0.00    -0.224 NA
ENDBRANCH   2  11
TORSDOF 1
ENDMDL
MODEL 4
REMARK VINA RESULT:      -2.9      3.679      6.050
REMARK  1 active torsions:
REMARK  status: ('A' for Active; 'I' for Inactive)
REMARK    1  A    between atoms: C_5  and  C_1 
ROOT
ATOM      1  N   UNL d   1      29.705  17.004 -23.910  0.00  0.00    -0.242 NA
ATOM      2  C   UNL d   1      30.323  16.905 -24.446  0.00  0.00     0.117 A 
ATOM      3  C   UNL d   1      29.040  16.503 -23.968  0.00  0.00     0.081 A 
ATOM      4  C   UNL d   1      30.295  16.334 -25.021  0.00  0.00     0.022 A 
ATOM      5  C   UNL d   1      29.008  15.936 -24.537  0.00  0.00     0.018 A 
ATOM      6  C   UNL d   1      29.626  15.850 -25.060  0.00  0.00     0.003 A 
ATOM      7  C   UNL d   1      28.420  16.598 -23.436  0.00  0.00     0.019 A 
ATOM      8  C   UNL d   1      28.339  15.453 -24.576  0.00  0.00     0.002 A 
ATOM      9  C   UNL d   1      27.753  16.105 -23.484  0.00  0.00     0.002 A 
ATOM     10  C   UNL d   1      27.723  15.537 -24.057  0.00  0.00     0.000 A 
ENDROOT
BRANCH   2  11
ATOM     11  C   UNL d   1      30.985  17.384 -24.408  0.00  0.00     0.180 A 
ATOM     12  N   UNL d   1      31.289  17.859 -25.021  0.00  0.00    -0.224 NA
ATOM     13  C   UNL d   1      31.948  18.237 -24.738  0.00  0.00     0.101 A 
ATOM     14  C   UNL d   1      32.480  18.779 -25.097  0.00  0.00     0.021 A 
ATOM     15  C   UNL d   1      32.068  18.010 -23.953  0.00  0.00     0.101 A 
ATOM     16  C   UNL d   1      33.115  19.082 -24.671  0.00  0.00     0.002 A 
ATOM     17  C   UNL d   1      33.235  18.854 -23.886  0.00  0.00     0.002 A 
ATOM     18  C   UNL d   1      32.721  18.322 -23.519  0.00  0.00     0.021 A 
ATOM     19  N   UNL d   1      31.485  17.488 -23.742  0.00  0.00    -0.224 NA
ENDBRANCH   2  11
TORSDOF 1
ENDMDL
MODEL 5
REMARK VINA RESULT:      -2.9      0.832      4.385
REMARK  1 active torsions:
REMARK  status: ('A' for Active; 'I' for Inactive)
REMARK    1  A    between atoms: C_5  and  C_1 
ROOT
ATOM      1  N   UNL d   1      33.116  20.240 -21.538  0.00  0.00    -0.242 NA
ATOM      2  C   UNL d   1      33.114  21.049 -21.700  0.00  0.00     0.117 A 
ATOM      3  C   UNL d   1      33.158  19.704 -22.176  0.00  0.00     0.081 A 
ATOM      4  C   UNL d   1      33.152  21.326 -22.461  0.00  0.00     0.022 A 
ATOM      5  C   UNL d   1      33.196  19.975 -22.932  0.00  0.00     0.018 A 
ATOM      6  C   UNL d   1      33.194  20.777 -23.076  0.00  0.00     0.003 A 
ATOM      7  C   UNL d   1      33.161  18.897 -22.021  0.00  0.00     0.019 A 
ATOM      8  C   UNL d   1      33.238  19.426 -23.547  0.00  0.00     0.002 A 
ATOM      9  C   UNL d   1      33.202  18.353 -22.647  0.00  0.00     0.002 A 
ATOM     10  C   UNL d   1      33.241  18.629 -23.406  0.00  0.00     0.000 A 
ENDROOT
BRANCH   2  11
ATOM     11  C   UNL d   1      33.073  21.593 -21.090  0.00  0.00     0.180 A 
ATOM     12  N   UNL d   1      32.858  22.395 -21.155  0.00  0.00    -0.224 NA
ATOM     13  C   UNL d   1      32.894  22.722 -20.414  0.00  0.00     0.101 A 
ATOM     14  C   UNL d   1      32.740  23.500 -20.138  0.00  0.00     0.021 A 
ATOM     15  C   UNL d   1      33.129  22.139 -19.878  0.00  0.00     0.101 A 
ATOM     16  C   UNL d   1      32.822  23.681 -19.340  0.00  0.00     0.002 A 
ATOM     17  C   UNL d   1      33.057  23.098 -18.804  0.00  0.00     0.002 A 
ATOM     18  C   UNL d   1      33.212  22.328 -19.060  0.00  0.00     0.021 A 
ATOM     19  N   UNL d   1      33.241  21.445 -20.281  0.00  0.00    -0.224 NA
ENDBRANCH   2  11
TORSDOF 1
ENDMDL
MODEL 6
REMARK VINA RESULT:      -2.4      0.873      1.459
REMARK  1 active torsions:
REMARK  status: ('A' for Active; 'I' for Inactive)
REMARK    1  A    between atoms: C_5  and  C_1 
ROOT
ATOM      1  N   UNL d   1      32.950  21.588 -20.111  0.00  0.00    -0.242 NA
ATOM      2  C   UNL d   1      33.006  21.654 -20.931  0.00  0.00     0.117 A 
ATOM      3  C   UNL d   1      32.895  22.285 -19.656  0.00  0.00     0.081 A 
ATOM      4  C   UNL d   1      33.009  22.378 -21.296  0.00  0.00     0.022 A 
ATOM      5  C   UNL d   1      32.898  23.005 -20.014  0.00  0.00     0.018 A 
ATOM      6  C   UNL d   1      32.954  23.054 -20.825  0.00  0.00     0.003 A 
ATOM      7  C   UNL d   1      32.839  22.225 -18.837  0.00  0.00     0.019 A 
ATOM      8  C   UNL d   1      32.843  23.681 -19.542  0.00  0.00     0.002 A 
ATOM      9  C   UNL d   1      32.784  22.911 -18.374  0.00  0.00     0.002 A 
ATOM     10  C   UNL d   1      32.787  23.633 -18.736  0.00  0.00     0.000 A 
ENDROOT
BRANCH   2  11
ATOM     11  C   UNL d   1      33.060  20.985 -21.398  0.00  0.00     0.180 A 
ATOM     12  N   UNL d   1      33.094  20.196 -21.132  0.00  0.00    -0.224 NA
ATOM     13  C   UNL d   1      33.145  19.716 -21.784  0.00  0.00     0.101 A 
ATOM     14  C   UNL d   1      33.194  18.882 -21.862  0.00  0.00     0.021 A 
ATOM     15  C   UNL d   1      33.144  20.189 -22.461  0.00  0.00     0.101 A 
ATOM     16  C   UNL d   1      33.241  18.536 -22.607  0.00  0.00     0.002 A 
ATOM     17  C   UNL d   1      33.240  19.009 -23.284  0.00  0.00     0.002 A 
ATOM     18  C   UNL d   1      33.192  19.831 -23.224  0.00  0.00     0.021 A 
ATOM     19  N   UNL d   1      33.093  20.966 -22.236  0.00  0.00    -0.224 NA
ENDBRANCH   2  11
TORSDOF 1
ENDMDL
MODEL 7
REMARK VINA RESULT:      -1.5      1.790      2.889
REMARK  1 active torsions:
REMARK  status: ('A' for Active; 'I' for Inactive)
REMARK    1  A    between atoms: C_5  and  C_1 
ROOT
ATOM      1  N   UNL d   1      32.920  21.922 -18.670  0.00  0.00    -0.242 NA
ATOM      2  C   UNL d   1      33.046  22.235 -19.422  0.00  0.00     0.117 A 
ATOM      3  C   UNL d   1      32.959  22.433 -18.012  0.00  0.00     0.081 A 
ATOM      4  C   UNL d   1      33.205  23.022 -19.530  0.00  0.00     0.022 A 
ATOM      5  C   UNL d   1      33.117  23.215 -18.114  0.00  0.00     0.018 A 
ATOM      6  C   UNL d   1      33.239  23.509 -18.864  0.00  0.00     0.003 A 
ATOM      7  C   UNL d   1      32.835  22.127 -17.259  0.00  0.00     0.019 A 
ATOM      8  C   UNL d   1      33.151  23.702 -17.448  0.00  0.00     0.002 A 
ATOM      9  C   UNL d   1      32.871  22.626 -16.596  0.00  0.00     0.002 A 
ATOM     10  C   UNL d   1      33.030  23.411 -16.702  0.00  0.00     0.000 A 
ENDROOT
BRANCH   2  11
ATOM     11  C   UNL d   1      33.012  21.752 -20.082  0.00  0.00     0.180 A 
ATOM     12  N   UNL d   1      33.229  20.949 -20.121  0.00  0.00    -0.224 NA
ATOM     13  C   UNL d   1      33.105  20.695 -20.881  0.00  0.00     0.101 A 
ATOM     14  C   UNL d   1      33.222  19.949 -21.247  0.00  0.00     0.021 A 
ATOM     15  C   UNL d   1      32.812  21.325 -21.327  0.00  0.00     0.101 A 
ATOM     16  C   UNL d   1      33.046  19.845 -22.044  0.00  0.00     0.002 A 
ATOM     17  C   UNL d   1      32.752  20.475 -22.490  0.00  0.00     0.002 A 
ATOM     18  C   UNL d   1      32.632  21.216 -22.143  0.00  0.00     0.021 A 
ATOM     19  N   UNL d   1      32.751  21.977 -20.847  0.00  0.00    -0.224 NA
ENDBRANCH   2  11
TORSDOF 1
ENDMDL
