MODEL 1
REMARK VINA RESULT:      -9.3      0.000      0.000
REMARK  5 active torsions:
REMARK  status: ('A' for Active; 'I' for Inactive)
REMARK    1  A    between atoms: O_5  and  C_1 
REMARK    2  A    between atoms: C_10  and  C_2 
REMARK    3  A    between atoms: C_3  and  O_5 
REMARK    4  A    between atoms: C_6  and  C_3 
REMARK    5  A    between atoms: N_11  and  C_10 
ROOT
ATOM      1  C   UNL d   1      53.251  32.982  53.962  0.00  0.00     0.122 A 
ATOM      2  C   UNL d   1      52.820  33.450  53.437  0.00  0.00     0.043 A 
ATOM      3  C   UNL d   1      53.740  33.338  54.524  0.00  0.00     0.105 A 
ATOM      4  C   UNL d   1      53.797  34.159  54.560  0.00  0.00     0.030 A 
ATOM      5  C   UNL d   1      53.366  34.617  54.035  0.00  0.00     0.059 A 
ATOM      6  C   UNL d   1      52.878  34.271  53.474  0.00  0.00     0.015 A 
ATOM      7  N   UNL d   1      54.166  32.870  55.043  0.00  0.00    -0.242 NA
ATOM      8 CL   UNL d   1      53.440  35.447  54.091  0.00  0.00    -0.082 Cl
ATOM      9  C   UNL d   1      54.280  34.505  55.115  0.00  0.00     0.004 A 
ATOM     10  C   UNL d   1      54.655  33.226  55.604  0.00  0.00     0.099 A 
ATOM     11  C   UNL d   1      54.712  34.047  55.641  0.00  0.00     0.021 A 
ENDROOT
BRANCH   1  12
ATOM     12  O   UNL d   1      53.206  32.237  53.938  0.00  0.00    -0.271 OA
BRANCH  12  13
ATOM     13  C   UNL d   1      53.631  31.475  53.527  0.00  0.00     0.301 C 
ATOM     14  O   UNL d   1      54.381  31.711  52.903  0.00  0.00    -0.259 OA
BRANCH  13  15
ATOM     15  C   UNL d   1      53.382  30.707  53.689  0.00  0.00     0.074 A 
ATOM     16  C   UNL d   1      53.082  30.231  53.076  0.00  0.00     0.063 A 
ATOM     17 CL   UNL d   1      53.007  30.490  52.243  0.00  0.00    -0.082 Cl
ATOM     18  C   UNL d   1      52.831  29.454  53.243  0.00  0.00     0.012 A 
ATOM     19  C   UNL d   1      52.878  29.151  54.021  0.00  0.00     0.001 A 
ATOM     20  C   UNL d   1      53.178  29.629  54.629  0.00  0.00     0.000 A 
ATOM     21  C   UNL d   1      53.429  30.406  54.461  0.00  0.00     0.006 A 
ENDBRANCH  13  15
ENDBRANCH  12  13
ENDBRANCH   1  12
BRANCH   2  22
ATOM     22  C   UNL d   1      52.242  33.246  52.765  0.00  0.00     0.082 C 
BRANCH  22  23
ATOM     23  N   UNL d   1      51.484  33.562  52.774  0.00  0.00    -0.299 N 
ATOM     24  C   UNL d   1      51.271  34.118  52.215  0.00  0.00     0.107 A 
ATOM     25  C   UNL d   1      50.511  34.445  52.212  0.00  0.00     0.142 A 
ATOM     26  O   UNL d   1      49.975  34.204  52.777  0.00  0.00    -0.300 OA
ATOM     27  C   UNL d   1      50.188  33.639  53.346  0.00  0.00     0.142 A 
ATOM     28  C   UNL d   1      50.945  33.325  53.334  0.00  0.00     0.107 A 
ENDBRANCH  22  23
ENDBRANCH   2  22
TORSDOF 5
ENDMDL
MODEL 2
REMARK VINA RESULT:      -9.1      1.038      2.951
REMARK  5 active torsions:
REMARK  status: ('A' for Active; 'I' for Inactive)
REMARK    1  A    between atoms: O_5  and  C_1 
REMARK    2  A    between atoms: C_10  and  C_2 
REMARK    3  A    between atoms: C_3  and  O_5 
REMARK    4  A    between atoms: C_6  and  C_3 
REMARK    5  A    between atoms: N_11  and  C_10 
ROOT
ATOM      1  C   UNL d   1      52.773  32.748  53.501  0.00  0.00     0.122 A 
ATOM      2  C   UNL d   1      53.462  33.197  53.562  0.00  0.00     0.043 A 
ATOM      3  C   UNL d   1      52.058  33.115  53.318  0.00  0.00     0.105 A 
ATOM      4  C   UNL d   1      52.031  33.930  53.197  0.00  0.00     0.030 A 
ATOM      5  C   UNL d   1      52.721  34.369  53.260  0.00  0.00     0.059 A 
ATOM      6  C   UNL d   1      53.436  34.011  53.441  0.00  0.00     0.015 A 
ATOM      7  N   UNL d   1      51.376  32.667  53.259  0.00  0.00    -0.242 NA
ATOM      8 CL   UNL d   1      52.670  35.193  53.133  0.00  0.00    -0.082 Cl
ATOM      9  C   UNL d   1      51.324  34.288  53.017  0.00  0.00     0.004 A 
ATOM     10  C   UNL d   1      50.661  33.034  53.076  0.00  0.00     0.099 A 
ATOM     11  C   UNL d   1      50.635  33.849  52.955  0.00  0.00     0.021 A 
ENDROOT
BRANCH   1  12
ATOM     12  O   UNL d   1      52.786  32.009  53.609  0.00  0.00    -0.271 OA
BRANCH  12  13
ATOM     13  C   UNL d   1      53.001  31.189  53.149  0.00  0.00     0.301 C 
ATOM     14  O   UNL d   1      53.183  31.305  52.168  0.00  0.00    -0.259 OA
BRANCH  13  15
ATOM     15  C   UNL d   1      53.027  30.469  53.547  0.00  0.00     0.074 A 
ATOM     16  C   UNL d   1      52.881  29.762  53.134  0.00  0.00     0.063 A 
ATOM     17 CL   UNL d   1      52.694  29.721  52.279  0.00  0.00    -0.082 Cl
ATOM     18  C   UNL d   1      52.908  29.034  53.540  0.00  0.00     0.012 A 
ATOM     19  C   UNL d   1      53.081  29.011  54.357  0.00  0.00     0.001 A 
ATOM     20  C   UNL d   1      53.227  29.718  54.765  0.00  0.00     0.000 A 
ATOM     21  C   UNL d   1      53.199  30.445  54.359  0.00  0.00     0.006 A 
ENDBRANCH  13  15
ENDBRANCH  12  13
ENDBRANCH   1  12
BRANCH   2  22
ATOM     22  C   UNL d   1      54.325  32.975  53.750  0.00  0.00     0.082 C 
BRANCH  22  23
ATOM     23  N   UNL d   1      54.697  33.316  54.398  0.00  0.00    -0.299 N 
ATOM     24  C   UNL d   1      55.347  33.797  54.284  0.00  0.00     0.107 A 
ATOM     25  C   UNL d   1      55.732  34.147  54.927  0.00  0.00     0.142 A 
ATOM     26  O   UNL d   1      55.453  34.006  55.680  0.00  0.00    -0.300 OA
ATOM     27  C   UNL d   1      54.793  33.518  55.799  0.00  0.00     0.142 A 
ATOM     28  C   UNL d   1      54.423  33.179  55.151  0.00  0.00     0.107 A 
ENDBRANCH  22  23
ENDBRANCH   2  22
TORSDOF 5
ENDMDL
MODEL 3
REMARK VINA RESULT:      -8.7      1.594      3.624
REMARK  5 active torsions:
REMARK  status: ('A' for Active; 'I' for Inactive)
REMARK    1  A    between atoms: O_5  and  C_1 
REMARK    2  A    between atoms: C_10  and  C_2 
REMARK    3  A    between atoms: C_3  and  O_5 
REMARK    4  A    between atoms: C_6  and  C_3 
REMARK    5  A    between atoms: N_11  and  C_10 
ROOT
ATOM      1  C   UNL d   1      52.775  33.366  53.629  0.00  0.00     0.122 A 
ATOM      2  C   UNL d   1      53.090  32.657  53.349  0.00  0.00     0.043 A 
ATOM      3  C   UNL d   1      53.180  33.797  54.204  0.00  0.00     0.105 A 
ATOM      4  C   UNL d   1      53.898  33.520  54.498  0.00  0.00     0.030 A 
ATOM      5  C   UNL d   1      54.204  32.814  54.214  0.00  0.00     0.059 A 
ATOM      6  C   UNL d   1      53.807  32.379  53.643  0.00  0.00     0.015 A 
ATOM      7  N   UNL d   1      52.866  34.500  54.479  0.00  0.00    -0.242 NA
ATOM      8 CL   UNL d   1      54.933  32.552  54.527  0.00  0.00    -0.082 Cl
ATOM      9  C   UNL d   1      54.294  33.948  55.064  0.00  0.00     0.004 A 
ATOM     10  C   UNL d   1      53.271  34.931  55.054  0.00  0.00     0.099 A 
ATOM     11  C   UNL d   1      53.989  34.653  55.348  0.00  0.00     0.021 A 
ENDROOT
BRANCH   1  12
ATOM     12  O   UNL d   1      52.125  33.627  53.369  0.00  0.00    -0.271 OA
BRANCH  12  13
ATOM     13  C   UNL d   1      51.772  34.214  52.690  0.00  0.00     0.301 C 
ATOM     14  O   UNL d   1      52.474  34.646  52.116  0.00  0.00    -0.259 OA
BRANCH  13  15
ATOM     15  C   UNL d   1      50.962  34.334  52.607  0.00  0.00     0.074 A 
ATOM     16  C   UNL d   1      50.616  34.315  51.851  0.00  0.00     0.063 A 
ATOM     17 CL   UNL d   1      51.059  34.171  51.110  0.00  0.00    -0.082 Cl
ATOM     18  C   UNL d   1      49.795  34.437  51.770  0.00  0.00     0.012 A 
ATOM     19  C   UNL d   1      49.319  34.578  52.443  0.00  0.00     0.001 A 
ATOM     20  C   UNL d   1      49.669  34.597  53.195  0.00  0.00     0.000 A 
ATOM     21  C   UNL d   1      50.489  34.475  53.275  0.00  0.00     0.006 A 
ENDBRANCH  13  15
ENDBRANCH  12  13
ENDBRANCH   1  12
BRANCH   2  22
ATOM     22  C   UNL d   1      52.796  32.056  52.731  0.00  0.00     0.082 C 
BRANCH  22  23
ATOM     23  N   UNL d   1      52.648  31.282  52.960  0.00  0.00    -0.299 N 
ATOM     24  C   UNL d   1      53.195  30.699  52.793  0.00  0.00     0.107 A 
ATOM     25  C   UNL d   1      53.060  29.915  53.018  0.00  0.00     0.142 A 
ATOM     26  O   UNL d   1      52.369  29.729  53.410  0.00  0.00    -0.300 OA
ATOM     27  C   UNL d   1      51.811  30.319  53.580  0.00  0.00     0.142 A 
ATOM     28  C   UNL d   1      51.961  31.091  53.351  0.00  0.00     0.107 A 
ENDBRANCH  22  23
ENDBRANCH   2  22
TORSDOF 5
ENDMDL
MODEL 4
REMARK VINA RESULT:      -7.2      1.454      4.192
REMARK  5 active torsions:
REMARK  status: ('A' for Active; 'I' for Inactive)
REMARK    1  A    between atoms: O_5  and  C_1 
REMARK    2  A    between atoms: C_10  and  C_2 
REMARK    3  A    between atoms: C_3  and  O_5 
REMARK    4  A    between atoms: C_6  and  C_3 
REMARK    5  A    between atoms: N_11  and  C_10 
ROOT
ATOM      1  C   UNL d   1      52.806  32.318  53.335  0.00  0.00     0.122 A 
ATOM      2  C   UNL d   1      53.583  32.554  53.478  0.00  0.00     0.043 A 
ATOM      3  C   UNL d   1      52.626  31.516  53.263  0.00  0.00     0.105 A 
ATOM      4  C   UNL d   1      53.222  30.952  53.335  0.00  0.00     0.030 A 
ATOM      5  C   UNL d   1      53.992  31.194  53.477  0.00  0.00     0.059 A 
ATOM      6  C   UNL d   1      54.179  31.989  53.549  0.00  0.00     0.015 A 
ATOM      7  N   UNL d   1      51.854  31.286  53.121  0.00  0.00    -0.242 NA
ATOM      8 CL   UNL d   1      54.579  30.604  53.545  0.00  0.00    -0.082 Cl
ATOM      9  C   UNL d   1      53.040  30.163  53.263  0.00  0.00     0.004 A 
ATOM     10  C   UNL d   1      51.674  30.484  53.050  0.00  0.00     0.099 A 
ATOM     11  C   UNL d   1      52.270  29.920  53.121  0.00  0.00     0.021 A 
ENDROOT
BRANCH   1  12
ATOM     12  O   UNL d   1      52.258  32.822  53.268  0.00  0.00    -0.271 OA
BRANCH  12  13
ATOM     13  C   UNL d   1      51.894  33.451  52.636  0.00  0.00     0.301 C 
ATOM     14  O   UNL d   1      52.431  33.543  51.793  0.00  0.00    -0.259 OA
BRANCH  13  15
ATOM     15  C   UNL d   1      51.200  33.866  52.795  0.00  0.00     0.074 A 
ATOM     16  C   UNL d   1      50.750  34.177  52.169  0.00  0.00     0.063 A 
ATOM     17 CL   UNL d   1      50.962  34.095  51.323  0.00  0.00    -0.082 Cl
ATOM     18  C   UNL d   1      50.048  34.596  52.334  0.00  0.00     0.012 A 
ATOM     19  C   UNL d   1      49.796  34.706  53.123  0.00  0.00     0.001 A 
ATOM     20  C   UNL d   1      50.248  34.394  53.745  0.00  0.00     0.000 A 
ATOM     21  C   UNL d   1      50.949  33.975  53.579  0.00  0.00     0.006 A 
ENDBRANCH  13  15
ENDBRANCH  12  13
ENDBRANCH   1  12
BRANCH   2  22
ATOM     22  C   UNL d   1      53.967  33.372  53.585  0.00  0.00     0.082 C 
BRANCH  22  23
ATOM     23  N   UNL d   1      54.370  33.542  54.279  0.00  0.00    -0.299 N 
ATOM     24  C   UNL d   1      55.178  33.658  54.261  0.00  0.00     0.107 A 
ATOM     25  C   UNL d   1      55.597  33.830  54.953  0.00  0.00     0.142 A 
ATOM     26  O   UNL d   1      55.191  33.881  55.659  0.00  0.00    -0.300 OA
ATOM     27  C   UNL d   1      54.371  33.763  55.681  0.00  0.00     0.142 A 
ATOM     28  C   UNL d   1      53.971  33.594  54.986  0.00  0.00     0.107 A 
ENDBRANCH  22  23
ENDBRANCH   2  22
TORSDOF 5
ENDMDL
