MODEL 1
REMARK VINA RESULT:      -1.3      0.000      0.000
REMARK  5 active torsions:
REMARK  status: ('A' for Active; 'I' for Inactive)
REMARK    1  A    between atoms: C_6  and  N_1 
REMARK    2  A    between atoms: C_10  and  C_3 
REMARK    3  A    between atoms: C_7  and  C_6 
REMARK    4  A    between atoms: C_13  and  C_10 
REMARK    5  A    between atoms: C_14  and  C_13 
ROOT
ATOM      1  N   UNL d   1     -41.306-122.470 -52.119  0.00  0.00    -0.289 N 
ATOM      2  N   UNL d   1     -41.527-123.796 -52.188  0.00  0.00    -0.227 NA
ATOM      3  C   UNL d   1     -41.397-123.147 -51.655  0.00  0.00     0.148 A 
ATOM      4  C   UNL d   1     -41.371-122.668 -52.896  0.00  0.00     0.083 A 
ATOM      5  C   UNL d   1     -41.511-123.505 -52.939  0.00  0.00     0.099 A 
ATOM      6  C   UNL d   1     -41.328-122.225 -53.587  0.00  0.00     0.019 A 
ATOM      7  C   UNL d   1     -41.594-123.817 -53.700  0.00  0.00     0.021 A 
ATOM      8  C   UNL d   1     -41.417-122.588 -54.295  0.00  0.00     0.002 A 
ATOM      9  C   UNL d   1     -41.552-123.395 -54.337  0.00  0.00     0.002 A 
ENDROOT
BRANCH   1  10
ATOM     10  C   UNL d   1     -41.181-121.818 -51.696  0.00  0.00     0.088 C 
BRANCH  10  11
ATOM     11  C   UNL d   1     -41.536-121.110 -51.881  0.00  0.00     0.052 C 
ATOM     12  C   UNL d   1     -42.354-121.096 -51.988  0.00  0.00     0.009 C 
ATOM     13 BR   UNL d   1     -41.123-120.410 -51.967  0.00  0.00    -0.048 Br
ENDBRANCH  10  11
ENDBRANCH   1  10
BRANCH   3  14
ATOM     14  C   UNL d   1     -41.370-123.194 -50.832  0.00  0.00     0.037 C 
BRANCH  14  15
ATOM     15  C   UNL d   1     -41.785-123.790 -50.439  0.00  0.00     0.003 C 
BRANCH  15  16
ATOM     16  C   UNL d   1     -41.786-123.817 -49.615  0.00  0.00     0.000 C 
ATOM     17  C   UNL d   1     -42.489-123.702 -49.200  0.00  0.00     0.000 C 
ENDBRANCH  15  16
ENDBRANCH  14  15
ENDBRANCH   3  14
TORSDOF 5
ENDMDL
MODEL 2
REMARK VINA RESULT:      -0.6      1.226      3.294
REMARK  5 active torsions:
REMARK  status: ('A' for Active; 'I' for Inactive)
REMARK    1  A    between atoms: C_6  and  N_1 
REMARK    2  A    between atoms: C_10  and  C_3 
REMARK    3  A    between atoms: C_7  and  C_6 
REMARK    4  A    between atoms: C_13  and  C_10 
REMARK    5  A    between atoms: C_14  and  C_13 
ROOT
ATOM      1  N   UNL d   1     -41.294-122.675 -51.891  0.00  0.00    -0.289 N 
ATOM      2  N   UNL d   1     -41.204-121.799 -52.909  0.00  0.00    -0.227 NA
ATOM      3  C   UNL d   1     -41.273-122.623 -52.715  0.00  0.00     0.148 A 
ATOM      4  C   UNL d   1     -41.243-121.936 -51.576  0.00  0.00     0.083 A 
ATOM      5  C   UNL d   1     -41.186-121.384 -52.218  0.00  0.00     0.099 A 
ATOM      6  C   UNL d   1     -41.237-121.663 -50.800  0.00  0.00     0.019 A 
ATOM      7  C   UNL d   1     -41.127-120.587 -52.004  0.00  0.00     0.021 A 
ATOM      8  C   UNL d   1     -41.178-120.878 -50.659  0.00  0.00     0.002 A 
ATOM      9  C   UNL d   1     -41.123-120.344 -51.279  0.00  0.00     0.002 A 
ENDROOT
BRANCH   1  10
ATOM     10  C   UNL d   1     -41.358-123.414 -51.626  0.00  0.00     0.088 C 
BRANCH  10  11
ATOM     11  C   UNL d   1     -41.739-123.591 -50.929  0.00  0.00     0.052 C 
ATOM     12  C   UNL d   1     -42.562-123.546 -50.908  0.00  0.00     0.009 C 
ATOM     13 BR   UNL d   1     -41.344-123.811 -50.248  0.00  0.00    -0.048 Br
ENDBRANCH  10  11
ENDBRANCH   1  10
BRANCH   3  14
ATOM     14  C   UNL d   1     -41.311-123.246 -53.253  0.00  0.00     0.037 C 
BRANCH  14  15
ATOM     15  C   UNL d   1     -41.217-123.099 -54.060  0.00  0.00     0.003 C 
BRANCH  15  16
ATOM     16  C   UNL d   1     -41.732-123.443 -54.605  0.00  0.00     0.000 C 
ATOM     17  C   UNL d   1     -41.930-123.039 -55.296  0.00  0.00     0.000 C 
ENDBRANCH  15  16
ENDBRANCH  14  15
ENDBRANCH   3  14
TORSDOF 5
ENDMDL
MODEL 3
REMARK VINA RESULT:      -0.5      0.827      3.060
REMARK  5 active torsions:
REMARK  status: ('A' for Active; 'I' for Inactive)
REMARK    1  A    between atoms: C_6  and  N_1 
REMARK    2  A    between atoms: C_10  and  C_3 
REMARK    3  A    between atoms: C_7  and  C_6 
REMARK    4  A    between atoms: C_13  and  C_10 
REMARK    5  A    between atoms: C_14  and  C_13 
ROOT
ATOM      1  N   UNL d   1     -41.491-122.496 -51.060  0.00  0.00    -0.289 N 
ATOM      2  N   UNL d   1     -41.891-123.774 -51.190  0.00  0.00    -0.227 NA
ATOM      3  C   UNL d   1     -41.474-123.141 -51.575  0.00  0.00     0.148 A 
ATOM      4  C   UNL d   1     -41.891-122.698 -50.391  0.00  0.00     0.083 A 
ATOM      5  C   UNL d   1     -42.143-123.505 -50.474  0.00  0.00     0.099 A 
ATOM      6  C   UNL d   1     -42.074-122.281 -49.707  0.00  0.00     0.019 A 
ATOM      7  C   UNL d   1     -42.567-123.817 -49.837  0.00  0.00     0.021 A 
ATOM      8  C   UNL d   1     -42.489-122.641 -49.125  0.00  0.00     0.002 A 
ATOM      9  C   UNL d   1     -42.732-123.420 -49.204  0.00  0.00     0.002 A 
ENDROOT
BRANCH   1  10
ATOM     10  C   UNL d   1     -41.123-121.861 -51.344  0.00  0.00     0.088 C 
BRANCH  10  11
ATOM     11  C   UNL d   1     -41.528-121.197 -51.580  0.00  0.00     0.052 C 
ATOM     12  C   UNL d   1     -41.173-120.460 -51.474  0.00  0.00     0.009 C 
ATOM     13 BR   UNL d   1     -42.272-121.224 -51.918  0.00  0.00    -0.048 Br
ENDBRANCH  10  11
ENDBRANCH   1  10
BRANCH   3  14
ATOM     14  C   UNL d   1     -41.123-123.175 -52.319  0.00  0.00     0.037 C 
BRANCH  14  15
ATOM     15  C   UNL d   1     -41.456-123.642 -52.912  0.00  0.00     0.003 C 
BRANCH  15  16
ATOM     16  C   UNL d   1     -41.133-123.639 -53.671  0.00  0.00     0.000 C 
ATOM     17  C   UNL d   1     -41.606-123.817 -54.322  0.00  0.00     0.000 C 
ENDBRANCH  15  16
ENDBRANCH  14  15
ENDBRANCH   3  14
TORSDOF 5
ENDMDL
MODEL 4
REMARK VINA RESULT:       0.1      2.010      4.222
REMARK  5 active torsions:
REMARK  status: ('A' for Active; 'I' for Inactive)
REMARK    1  A    between atoms: C_6  and  N_1 
REMARK    2  A    between atoms: C_10  and  C_3 
REMARK    3  A    between atoms: C_7  and  C_6 
REMARK    4  A    between atoms: C_13  and  C_10 
REMARK    5  A    between atoms: C_14  and  C_13 
ROOT
ATOM      1  N   UNL d   1     -42.434-123.006 -49.430  0.00  0.00    -0.289 N 
ATOM      2  N   UNL d   1     -41.253-123.651 -49.443  0.00  0.00    -0.227 NA
ATOM      3  C   UNL d   1     -41.866-123.328 -49.935  0.00  0.00     0.148 A 
ATOM      4  C   UNL d   1     -42.204-123.113 -48.666  0.00  0.00     0.083 A 
ATOM      5  C   UNL d   1     -41.459-123.520 -48.675  0.00  0.00     0.099 A 
ATOM      6  C   UNL d   1     -42.549-122.908 -47.948  0.00  0.00     0.019 A 
ATOM      7  C   UNL d   1     -41.128-123.683 -47.934  0.00  0.00     0.021 A 
ATOM      8  C   UNL d   1     -42.178-123.094 -47.265  0.00  0.00     0.002 A 
ATOM      9  C   UNL d   1     -41.458-123.487 -47.273  0.00  0.00     0.002 A 
ENDROOT
BRANCH   1  10
ATOM     10  C   UNL d   1     -43.043-122.683 -49.811  0.00  0.00     0.088 C 
BRANCH  10  11
ATOM     11  C   UNL d   1     -43.799-122.973 -49.739  0.00  0.00     0.052 C 
ATOM     12  C   UNL d   1     -44.431-122.445 -49.791  0.00  0.00     0.009 C 
ATOM     13 BR   UNL d   1     -43.965-123.764 -49.619  0.00  0.00    -0.048 Br
ENDBRANCH  10  11
ENDBRANCH   1  10
BRANCH   3  14
ATOM     14  C   UNL d   1     -41.882-123.339 -50.759  0.00  0.00     0.037 C 
BRANCH  14  15
ATOM     15  C   UNL d   1     -41.268-122.993 -51.188  0.00  0.00     0.003 C 
BRANCH  15  16
ATOM     16  C   UNL d   1     -41.124-123.228 -51.966  0.00  0.00     0.000 C 
ATOM     17  C   UNL d   1     -41.137-122.671 -52.574  0.00  0.00     0.000 C 
ENDBRANCH  15  16
ENDBRANCH  14  15
ENDBRANCH   3  14
TORSDOF 5
ENDMDL
