MODEL 1
REMARK VINA RESULT:      32.0      0.000      0.000
REMARK  6 active torsions:
REMARK  status: ('A' for Active; 'I' for Inactive)
REMARK    1  A    between atoms: N_3  and  S_1 
REMARK    2  A    between atoms: C_7  and  S_1 
REMARK    3  A    between atoms: C_2  and  N_3 
REMARK    4  A    between atoms: N_8  and  C_5 
REMARK    5  A    between atoms: C_20  and  N_8 
REMARK    6  A    between atoms: C_13  and  C_20 
ROOT
ATOM      1  C   UNL d   1      46.092 -16.898  43.551  0.00  0.00     0.211 A 
ATOM      2  N   UNL d   1      46.065 -16.686  42.745  0.00  0.00    -0.222 NA
ATOM      3  C   UNL d   1      46.237 -17.692  43.761  0.00  0.00     0.200 A 
ATOM      4  N   UNL d   1      46.350 -18.246  43.174  0.00  0.00    -0.223 NA
ATOM      5  C   UNL d   1      46.181 -17.252  42.155  0.00  0.00     0.101 A 
ATOM      6  C   UNL d   1      46.325 -18.042  42.381  0.00  0.00     0.101 A 
ATOM      7  C   UNL d   1      46.445 -18.631  41.776  0.00  0.00     0.021 A 
ATOM      8  C   UNL d   1      46.155 -17.043  41.334  0.00  0.00     0.021 A 
ATOM      9  C   UNL d   1      46.415 -18.399  40.970  0.00  0.00     0.002 A 
ATOM     10  C   UNL d   1      46.270 -17.606  40.759  0.00  0.00     0.002 A 
ENDROOT
BRANCH   1  11
ATOM     11  N   UNL d   1      45.989 -16.399  44.127  0.00  0.00    -0.136 NA
BRANCH  11  12
ATOM     12  S   UNL d   1      45.421 -15.825  44.157  0.00  0.00     0.287 S 
ATOM     13  O   UNL d   1      44.687 -15.372  44.189  0.00  0.00    -0.198 OA
ATOM     14  O   UNL d   1      45.028 -16.528  44.151  0.00  0.00    -0.198 OA
BRANCH  12  15
ATOM     15  C   UNL d   1      45.501 -15.019  44.174  0.00  0.00     0.105 A 
ATOM     16  C   UNL d   1      46.080 -14.672  44.634  0.00  0.00     0.013 A 
ATOM     17  C   UNL d   1      46.184 -13.836  44.668  0.00  0.00     0.001 A 
ATOM     18  C   UNL d   1      45.668 -13.348  44.209  0.00  0.00     0.000 A 
ATOM     19  C   UNL d   1      45.085 -13.687  43.746  0.00  0.00     0.001 A 
ATOM     20  C   UNL d   1      45.726 -12.533  44.206  0.00  0.00     0.000 C 
ATOM     21  C   UNL d   1      44.997 -14.530  43.724  0.00  0.00     0.013 A 
ENDBRANCH  12  15
ENDBRANCH  11  12
ENDBRANCH   1  11
BRANCH   3  22
ATOM     22  N   UNL d   1      46.255 -17.854  44.534  0.00  0.00    -0.221 NA
BRANCH  22  23
ATOM     23  C   UNL d   1      45.910 -18.426  44.952  0.00  0.00     0.125 C 
BRANCH  23  24
ATOM     24  C   UNL d   1      46.027 -19.179  44.746  0.00  0.00     0.119 A 
ATOM     25  O   UNL d   1      45.552 -19.623  44.302  0.00  0.00    -0.304 OA
ATOM     26  C   UNL d   1      45.868 -20.325  44.233  0.00  0.00     0.123 A 
ATOM     27  C   UNL d   1      46.547 -20.330  44.634  0.00  0.00     0.029 A 
ATOM     28  C   UNL d   1      46.646 -19.620  44.952  0.00  0.00     0.028 A 
ENDBRANCH  23  24
ENDBRANCH  22  23
ENDBRANCH   3  22
TORSDOF 6
ENDMDL
