MODEL 1
REMARK VINA RESULT:      -3.2      0.000      0.000
REMARK  6 active torsions:
REMARK  status: ('A' for Active; 'I' for Inactive)
REMARK    1  A    between atoms: N_2  and  S_1 
REMARK    2  A    between atoms: N_3  and  S_1 
REMARK    3  A    between atoms: C_9  and  N_3 
REMARK    4  A    between atoms: C_4  and  C_7 
REMARK    5  A    between atoms: O_12  and  C_4 
REMARK    6  A    between atoms: C_17  and  O_12 
ROOT
ATOM      1  C   UNL d   1      33.034  20.379 -21.808  0.00  0.00     0.064 A 
ATOM      2  C   UNL d   1      33.165  19.105 -22.859  0.00  0.00     0.095 A 
ATOM      3  C   UNL d   1      33.158  19.609 -21.513  0.00  0.00     0.007 A 
ATOM      4  C   UNL d   1      32.979  20.526 -22.629  0.00  0.00     0.007 A 
ATOM      5  C   UNL d   1      33.048  19.877 -23.157  0.00  0.00     0.020 A 
ATOM      6  C   UNL d   1      33.220  18.972 -22.039  0.00  0.00     0.020 A 
ENDROOT
BRANCH   2   7
ATOM      7  N   UNL d   1      33.240  18.461 -23.395  0.00  0.00    -0.144 NA
BRANCH   7   8
ATOM      8  S   UNL d   1      32.585  17.995 -23.577  0.00  0.00     0.351 S 
ATOM      9  O   UNL d   1      32.647  18.326 -24.328  0.00  0.00    -0.180 OA
ATOM     10  O   UNL d   1      32.523  17.662 -22.826  0.00  0.00    -0.180 OA
BRANCH   8  11
ATOM     11  N   UNL d   1      31.934  17.555 -23.825  0.00  0.00    -0.215 N 
ATOM     12  C   UNL d   1      31.937  16.757 -23.601  0.00  0.00     0.093 C 
ATOM     13  C   UNL d   1      31.358  16.187 -23.738  0.00  0.00     0.020 C 
ATOM     14  C   UNL d   1      30.694  16.243 -24.223  0.00  0.00     0.002 C 
ATOM     15  C   UNL d   1      30.444  16.875 -24.688  0.00  0.00     0.002 C 
ATOM     16  C   UNL d   1      30.800  17.609 -24.781  0.00  0.00     0.020 C 
ATOM     17  C   UNL d   1      31.497  17.898 -24.433  0.00  0.00     0.093 C 
ENDBRANCH   8  11
ENDBRANCH   7   8
ENDBRANCH   2   7
BRANCH   1  18
ATOM     18  C   UNL d   1      32.956  21.007 -21.273  0.00  0.00     0.300 C 
ATOM     19  O   UNL d   1      33.240  20.921 -20.503  0.00  0.00    -0.259 OA
BRANCH  18  20
ATOM     20  O   UNL d   1      32.597  21.708 -21.512  0.00  0.00    -0.271 OA
BRANCH  20  21
ATOM     21  C   UNL d   1      32.430  22.303 -20.964  0.00  0.00     0.126 C 
ATOM     22  C   UNL d   1      32.108  23.019 -21.209  0.00  0.00     0.029 C 
ENDBRANCH  20  21
ENDBRANCH  18  20
ENDBRANCH   1  18
TORSDOF 6
ENDMDL
MODEL 2
REMARK VINA RESULT:      -2.1      1.465      4.637
REMARK  6 active torsions:
REMARK  status: ('A' for Active; 'I' for Inactive)
REMARK    1  A    between atoms: N_2  and  S_1 
REMARK    2  A    between atoms: N_3  and  S_1 
REMARK    3  A    between atoms: C_9  and  N_3 
REMARK    4  A    between atoms: C_4  and  C_7 
REMARK    5  A    between atoms: O_12  and  C_4 
REMARK    6  A    between atoms: C_17  and  O_12 
ROOT
ATOM      1  C   UNL d   1      30.552  16.876 -24.369  0.00  0.00     0.064 A 
ATOM      2  C   UNL d   1      32.063  17.533 -24.203  0.00  0.00     0.095 A 
ATOM      3  C   UNL d   1      31.119  16.494 -23.894  0.00  0.00     0.007 A 
ATOM      4  C   UNL d   1      30.725  17.592 -24.764  0.00  0.00     0.007 A 
ATOM      5  C   UNL d   1      31.492  17.921 -24.674  0.00  0.00     0.020 A 
ATOM      6  C   UNL d   1      31.876  16.821 -23.813  0.00  0.00     0.020 A 
ENDROOT
BRANCH   2   7
ATOM      7  N   UNL d   1      32.827  17.873 -24.112  0.00  0.00    -0.144 NA
BRANCH   7   8
ATOM      8  S   UNL d   1      32.924  18.568 -23.679  0.00  0.00     0.351 S 
ATOM      9  O   UNL d   1      33.186  18.072 -23.077  0.00  0.00    -0.180 OA
ATOM     10  O   UNL d   1      32.661  19.064 -24.282  0.00  0.00    -0.180 OA
BRANCH   8  11
ATOM     11  N   UNL d   1      33.043  19.222 -23.194  0.00  0.00    -0.215 N 
ATOM     12  C   UNL d   1      32.901  19.098 -22.387  0.00  0.00     0.093 C 
ATOM     13  C   UNL d   1      32.996  19.629 -21.765  0.00  0.00     0.020 C 
ATOM     14  C   UNL d   1      33.148  20.439 -21.805  0.00  0.00     0.002 C 
ATOM     15  C   UNL d   1      33.241  20.915 -22.470  0.00  0.00     0.002 C 
ATOM     16  C   UNL d   1      33.204  20.696 -23.261  0.00  0.00     0.020 C 
ATOM     17  C   UNL d   1      33.066  19.945 -23.588  0.00  0.00     0.093 C 
ENDBRANCH   8  11
ENDBRANCH   7   8
ENDBRANCH   2   7
BRANCH   1  18
ATOM     18  C   UNL d   1      29.803  16.531 -24.458  0.00  0.00     0.300 C 
ATOM     19  O   UNL d   1      29.690  15.953 -25.036  0.00  0.00    -0.259 OA
BRANCH  18  20
ATOM     20  O   UNL d   1      29.182  16.766 -23.972  0.00  0.00    -0.271 OA
BRANCH  20  21
ATOM     21  C   UNL d   1      28.505  16.300 -23.900  0.00  0.00     0.126 C 
ATOM     22  C   UNL d   1      27.856  16.567 -23.470  0.00  0.00     0.029 C 
ENDBRANCH  20  21
ENDBRANCH  18  20
ENDBRANCH   1  18
TORSDOF 6
ENDMDL
MODEL 3
REMARK VINA RESULT:      -0.8      2.543      5.100
REMARK  6 active torsions:
REMARK  status: ('A' for Active; 'I' for Inactive)
REMARK    1  A    between atoms: N_2  and  S_1 
REMARK    2  A    between atoms: N_3  and  S_1 
REMARK    3  A    between atoms: C_9  and  N_3 
REMARK    4  A    between atoms: C_4  and  C_7 
REMARK    5  A    between atoms: O_12  and  C_4 
REMARK    6  A    between atoms: C_17  and  O_12 
ROOT
ATOM      1  C   UNL d   1      29.010  16.186 -23.719  0.00  0.00     0.064 A 
ATOM      2  C   UNL d   1      30.286  16.708 -24.637  0.00  0.00     0.095 A 
ATOM      3  C   UNL d   1      29.722  15.752 -23.724  0.00  0.00     0.007 A 
ATOM      4  C   UNL d   1      28.925  16.887 -24.166  0.00  0.00     0.007 A 
ATOM      5  C   UNL d   1      29.576  17.148 -24.627  0.00  0.00     0.020 A 
ATOM      6  C   UNL d   1      30.358  16.011 -24.185  0.00  0.00     0.020 A 
ENDROOT
BRANCH   2   7
ATOM      7  N   UNL d   1      30.937  16.979 -25.096  0.00  0.00    -0.144 NA
BRANCH   7   8
ATOM      8  S   UNL d   1      31.534  17.427 -24.746  0.00  0.00     0.351 S 
ATOM      9  O   UNL d   1      31.101  18.077 -25.007  0.00  0.00    -0.180 OA
ATOM     10  O   UNL d   1      31.967  16.777 -24.485  0.00  0.00    -0.180 OA
BRANCH   8  11
ATOM     11  N   UNL d   1      32.095  17.932 -24.418  0.00  0.00    -0.215 N 
ATOM     12  C   UNL d   1      32.255  17.813 -23.613  0.00  0.00     0.093 C 
ATOM     13  C   UNL d   1      32.802  18.205 -23.139  0.00  0.00     0.020 C 
ATOM     14  C   UNL d   1      33.240  18.881 -23.318  0.00  0.00     0.002 C 
ATOM     15  C   UNL d   1      33.241  19.329 -24.009  0.00  0.00     0.002 C 
ATOM     16  C   UNL d   1      32.801  19.209 -24.692  0.00  0.00     0.020 C 
ATOM     17  C   UNL d   1      32.249  18.611 -24.858  0.00  0.00     0.093 C 
ENDBRANCH   8  11
ENDBRANCH   7   8
ENDBRANCH   2   7
BRANCH   1  18
ATOM     18  C   UNL d   1      28.372  15.908 -23.268  0.00  0.00     0.300 C 
ATOM     19  O   UNL d   1      28.517  15.560 -22.534  0.00  0.00    -0.259 OA
BRANCH  18  20
ATOM     20  O   UNL d   1      27.604  15.980 -23.554  0.00  0.00    -0.271 OA
BRANCH  20  21
ATOM     21  C   UNL d   1      26.999  15.502 -23.260  0.00  0.00     0.126 C 
ATOM     22  C   UNL d   1      26.272  15.463 -23.643  0.00  0.00     0.029 C 
ENDBRANCH  20  21
ENDBRANCH  18  20
ENDBRANCH   1  18
TORSDOF 6
ENDMDL
MODEL 4
REMARK VINA RESULT:      -0.4      1.467      2.283
REMARK  6 active torsions:
REMARK  status: ('A' for Active; 'I' for Inactive)
REMARK    1  A    between atoms: N_2  and  S_1 
REMARK    2  A    between atoms: N_3  and  S_1 
REMARK    3  A    between atoms: C_9  and  N_3 
REMARK    4  A    between atoms: C_4  and  C_7 
REMARK    5  A    between atoms: O_12  and  C_4 
REMARK    6  A    between atoms: C_17  and  O_12 
ROOT
ATOM      1  C   UNL d   1      32.374  22.211 -21.110  0.00  0.00     0.064 A 
ATOM      2  C   UNL d   1      32.951  21.208 -22.295  0.00  0.00     0.095 A 
ATOM      3  C   UNL d   1      32.103  22.297 -21.894  0.00  0.00     0.007 A 
ATOM      4  C   UNL d   1      32.931  21.623 -20.904  0.00  0.00     0.007 A 
ATOM      5  C   UNL d   1      33.218  21.116 -21.509  0.00  0.00     0.020 A 
ATOM      6  C   UNL d   1      32.395  21.798 -22.487  0.00  0.00     0.020 A 
ENDROOT
BRANCH   2   7
ATOM      7  N   UNL d   1      33.239  20.692 -22.894  0.00  0.00    -0.144 NA
BRANCH   7   8
ATOM      8  S   UNL d   1      33.015  19.899 -22.902  0.00  0.00     0.351 S 
ATOM      9  O   UNL d   1      33.029  19.976 -23.720  0.00  0.00    -0.180 OA
ATOM     10  O   UNL d   1      33.001  19.822 -22.081  0.00  0.00    -0.180 OA
BRANCH   8  11
ATOM     11  N   UNL d   1      32.791  19.110 -22.979  0.00  0.00    -0.215 N 
ATOM     12  C   UNL d   1      33.240  18.568 -22.542  0.00  0.00     0.093 C 
ATOM     13  C   UNL d   1      33.138  17.753 -22.481  0.00  0.00     0.020 C 
ATOM     14  C   UNL d   1      32.639  17.268 -22.924  0.00  0.00     0.002 C 
ATOM     15  C   UNL d   1      32.123  17.474 -23.532  0.00  0.00     0.002 C 
ATOM     16  C   UNL d   1      31.980  18.220 -23.846  0.00  0.00     0.020 C 
ATOM     17  C   UNL d   1      32.316  18.949 -23.633  0.00  0.00     0.093 C 
ENDBRANCH   8  11
ENDBRANCH   7   8
ENDBRANCH   2   7
BRANCH   1  18
ATOM     18  C   UNL d   1      32.090  22.728 -20.527  0.00  0.00     0.300 C 
ATOM     19  O   UNL d   1      31.363  23.103 -20.638  0.00  0.00    -0.259 OA
BRANCH  18  20
ATOM     20  O   UNL d   1      32.532  22.863 -19.847  0.00  0.00    -0.271 OA
BRANCH  20  21
ATOM     21  C   UNL d   1      32.266  23.389 -19.269  0.00  0.00     0.126 C 
ATOM     22  C   UNL d   1      32.605  23.395 -18.520  0.00  0.00     0.029 C 
ENDBRANCH  20  21
ENDBRANCH  18  20
ENDBRANCH   1  18
TORSDOF 6
ENDMDL
