MODEL 1
REMARK VINA RESULT:      12.6      0.000      0.000
REMARK  6 active torsions:
REMARK  status: ('A' for Active; 'I' for Inactive)
REMARK    1  A    between atoms: C_6  and  C_1 
REMARK    2  A    between atoms: N_4  and  C_2 
REMARK       I    between atoms: C_8  and  N_4 
REMARK    3  A    between atoms: C_11  and  C_8 
REMARK    4  A    between atoms: O_22  and  C_10 
REMARK    5  A    between atoms: O_24  and  C_12 
REMARK    6  A    between atoms: O_23  and  C_13 
ROOT
ATOM      1  C   UNL d   1     -41.747-122.262 -52.389  0.00  0.00     0.080 A 
ATOM      2  C   UNL d   1     -41.539-121.584 -51.968  0.00  0.00     0.188 A 
ATOM      3  C   UNL d   1     -41.796-122.990 -52.001  0.00  0.00     0.201 A 
ATOM      4  O   UNL d   1     -41.379-121.633 -51.159  0.00  0.00    -0.289 OA
ATOM      5  C   UNL d   1     -41.637-123.038 -51.194  0.00  0.00     0.062 A 
ATOM      6  C   UNL d   1     -41.429-122.360 -50.773  0.00  0.00     0.105 A 
ATOM      7  O   UNL d   1     -42.004-123.668 -52.422  0.00  0.00    -0.286 OA
ATOM      8  C   UNL d   1     -41.686-123.764 -50.808  0.00  0.00     0.005 A 
ATOM      9  C   UNL d   1     -41.269-122.407 -49.966  0.00  0.00     0.025 A 
ATOM     10  C   UNL d   1     -41.526-123.816 -49.996  0.00  0.00     0.000 A 
ATOM     11  C   UNL d   1     -41.318-123.137 -49.575  0.00  0.00     0.002 A 
ENDROOT
BRANCH   1  12
ATOM     12  C   UNL d   1     -41.906-122.214 -53.196  0.00  0.00     0.011 A 
ATOM     13  C   UNL d   1     -42.533-121.754 -53.464  0.00  0.00     0.027 A 
ATOM     14  C   UNL d   1     -42.696-121.703 -54.276  0.00  0.00     0.118 A 
ATOM     15  C   UNL d   1     -42.224-122.118 -54.818  0.00  0.00     0.138 A 
ATOM     16  C   UNL d   1     -41.592-122.581 -54.544  0.00  0.00     0.118 A 
ATOM     17  C   UNL d   1     -41.434-122.629 -53.738  0.00  0.00     0.027 A 
BRANCH  14  18
ATOM     18  O   UNL d   1     -43.331-121.237 -54.543  0.00  0.00    -0.326 OA
ATOM     19  C   UNL d   1     -44.109-121.522 -54.498  0.00  0.00     0.181 C 
ENDBRANCH  14  18
BRANCH  15  20
ATOM     20  O   UNL d   1     -42.381-122.072 -55.633  0.00  0.00    -0.324 OA
ATOM     21  C   UNL d   1     -43.025-122.482 -55.960  0.00  0.00     0.182 C 
ENDBRANCH  15  20
BRANCH  16  22
ATOM     22  O   UNL d   1     -41.123-122.994 -55.082  0.00  0.00    -0.326 OA
ATOM     23  C   UNL d   1     -41.273-123.790 -55.235  0.00  0.00     0.181 C 
ENDBRANCH  16  22
ENDBRANCH   1  12
BRANCH   2  24
ATOM     24  N   UNL d   1     -41.488-120.847 -52.357  0.00  0.00    -0.182 NA
ATOM     25  C   UNL d   1     -41.456-120.149 -51.910  0.00  0.00     0.304 C 
ATOM     26  O   UNL d   1     -41.474-120.175 -51.087  0.00  0.00    -0.263 OA
BRANCH  25  27
ATOM     27  C   UNL d   1     -41.406-119.418 -52.302  0.00  0.00     0.158 A 
ATOM     28  O   UNL d   1     -41.592-119.191 -53.068  0.00  0.00    -0.300 OA
ATOM     29  C   UNL d   1     -41.425-118.386 -53.144  0.00  0.00     0.123 A 
ATOM     30  C   UNL d   1     -41.133-118.117 -52.417  0.00  0.00     0.029 A 
ATOM     31  C   UNL d   1     -41.123-118.756 -51.900  0.00  0.00     0.032 A 
ENDBRANCH  25  27
ENDBRANCH   2  24
TORSDOF 6
ENDMDL
MODEL 2
REMARK VINA RESULT:      13.9      1.272      3.543
REMARK  6 active torsions:
REMARK  status: ('A' for Active; 'I' for Inactive)
REMARK    1  A    between atoms: C_6  and  C_1 
REMARK    2  A    between atoms: N_4  and  C_2 
REMARK       I    between atoms: C_8  and  N_4 
REMARK    3  A    between atoms: C_11  and  C_8 
REMARK    4  A    between atoms: O_22  and  C_10 
REMARK    5  A    between atoms: O_24  and  C_12 
REMARK    6  A    between atoms: O_23  and  C_13 
ROOT
ATOM      1  C   UNL d   1     -41.884-122.343 -52.505  0.00  0.00     0.080 A 
ATOM      2  C   UNL d   1     -41.570-121.640 -52.802  0.00  0.00     0.188 A 
ATOM      3  C   UNL d   1     -42.009-122.984 -53.011  0.00  0.00     0.201 A 
ATOM      4  O   UNL d   1     -41.382-121.579 -53.605  0.00  0.00    -0.289 OA
ATOM      5  C   UNL d   1     -41.822-122.922 -53.810  0.00  0.00     0.062 A 
ATOM      6  C   UNL d   1     -41.508-122.220 -54.107  0.00  0.00     0.105 A 
ATOM      7  O   UNL d   1     -42.323-123.687 -52.714  0.00  0.00    -0.286 OA
ATOM      8  C   UNL d   1     -41.947-123.562 -54.313  0.00  0.00     0.005 A 
ATOM      9  C   UNL d   1     -41.320-122.157 -54.907  0.00  0.00     0.025 A 
ATOM     10  C   UNL d   1     -41.759-123.503 -55.119  0.00  0.00     0.000 A 
ATOM     11  C   UNL d   1     -41.445-122.800 -55.416  0.00  0.00     0.002 A 
ENDROOT
BRANCH   1  12
ATOM     12  C   UNL d   1     -42.072-122.405 -51.706  0.00  0.00     0.011 A 
ATOM     13  C   UNL d   1     -42.824-122.199 -51.444  0.00  0.00     0.027 A 
ATOM     14  C   UNL d   1     -43.017-122.260 -50.639  0.00  0.00     0.118 A 
ATOM     15  C   UNL d   1     -42.448-122.531 -50.098  0.00  0.00     0.138 A 
ATOM     16  C   UNL d   1     -41.690-122.738 -50.367  0.00  0.00     0.118 A 
ATOM     17  C   UNL d   1     -41.503-122.675 -51.166  0.00  0.00     0.027 A 
BRANCH  14  18
ATOM     18  O   UNL d   1     -43.778-122.051 -50.378  0.00  0.00    -0.326 OA
ATOM     19  C   UNL d   1     -44.426-122.099 -50.894  0.00  0.00     0.181 C 
ENDBRANCH  14  18
BRANCH  15  20
ATOM     20  O   UNL d   1     -42.633-122.595 -49.291  0.00  0.00    -0.324 OA
ATOM     21  C   UNL d   1     -43.055-121.992 -48.908  0.00  0.00     0.182 C 
ENDBRANCH  15  20
BRANCH  16  22
ATOM     22  O   UNL d   1     -41.124-123.006 -49.830  0.00  0.00    -0.326 OA
ATOM     23  C   UNL d   1     -41.303-123.627 -49.318  0.00  0.00     0.181 C 
ENDBRANCH  16  22
ENDBRANCH   1  12
BRANCH   2  24
ATOM     24  N   UNL d   1     -41.442-120.989 -52.296  0.00  0.00    -0.182 NA
ATOM     25  C   UNL d   1     -41.473-120.219 -52.600  0.00  0.00     0.304 C 
ATOM     26  O   UNL d   1     -41.630-120.089 -53.398  0.00  0.00    -0.263 OA
BRANCH  25  27
ATOM     27  C   UNL d   1     -41.345-119.576 -52.091  0.00  0.00     0.158 A 
ATOM     28  O   UNL d   1     -41.293-118.769 -52.227  0.00  0.00    -0.300 OA
ATOM     29  C   UNL d   1     -41.157-118.395 -51.504  0.00  0.00     0.123 A 
ATOM     30  C   UNL d   1     -41.126-118.979 -50.917  0.00  0.00     0.029 A 
ATOM     31  C   UNL d   1     -41.242-119.706 -51.283  0.00  0.00     0.032 A 
ENDBRANCH  25  27
ENDBRANCH   2  24
TORSDOF 6
ENDMDL
