MODEL 1
REMARK VINA RESULT:      62.9      0.000      0.000
REMARK  5 active torsions:
REMARK  status: ('A' for Active; 'I' for Inactive)
REMARK    1  A    between atoms: S_10  and  C_6 
REMARK    2  A    between atoms: C_15  and  S_10 
REMARK    3  A    between atoms: C_11  and  C_15 
REMARK       I    between atoms: N_13  and  C_11 
REMARK    4  A    between atoms: C_17  and  N_13 
REMARK    5  A    between atoms: O_25  and  C_18 
ROOT
ATOM      1  C   UNL d   1      58.454  49.707  51.542  0.00  0.00     0.155 A 
ATOM      2  C   UNL d   1      58.560  49.706  50.720  0.00  0.00     0.107 A 
ATOM      3  N   UNL d   1      59.872  49.707  51.721  0.00  0.00    -0.250 N 
ATOM      4  C   UNL d   1      59.105  49.707  52.040  0.00  0.00     0.285 A 
ATOM      5  N   UNL d   1      59.326  49.706  50.401  0.00  0.00    -0.220 NA
ATOM      6  C   UNL d   1      59.973  49.706  50.909  0.00  0.00     0.182 A 
ATOM      7  N   UNL d   1      57.644  49.707  51.696  0.00  0.00    -0.239 NA
ATOM      8  C   UNL d   1      57.820  49.706  50.363  0.00  0.00     0.037 A 
ATOM      9  C   UNL d   1      57.246  49.706  50.968  0.00  0.00     0.083 A 
ATOM     10  O   UNL d   1      59.008  49.708  52.864  0.00  0.00    -0.265 OA
ATOM     11  C   UNL d   1      60.531  49.707  52.223  0.00  0.00     0.104 C 
ATOM     12  C   UNL d   1      57.582  49.705  49.575  0.00  0.00     0.003 A 
ATOM     13  C   UNL d   1      56.441  49.706  50.778  0.00  0.00     0.019 A 
ATOM     14  C   UNL d   1      56.777  49.705  49.385  0.00  0.00     0.000 A 
ATOM     15  C   UNL d   1      56.212  49.706  49.985  0.00  0.00     0.002 A 
ENDROOT
BRANCH   6  16
ATOM     16  S   UNL d   1      60.737  49.706  50.594  0.00  0.00    -0.044 SA
BRANCH  16  17
ATOM     17  C   UNL d   1      61.318  49.214  50.911  0.00  0.00     0.101 C 
BRANCH  17  18
ATOM     18  C   UNL d   1      61.525  48.518  50.524  0.00  0.00     0.286 C 
ATOM     19  N   UNL d   1      61.074  47.845  50.640  0.00  0.00    -0.208 NA
ATOM     20  O   UNL d   1      62.174  48.488  50.026  0.00  0.00    -0.265 OA
BRANCH  19  21
ATOM     21  C   UNL d   1      61.277  47.140  50.253  0.00  0.00     0.085 A 
ATOM     22  C   UNL d   1      61.688  47.166  49.552  0.00  0.00     0.021 A 
ATOM     23  C   UNL d   1      61.892  46.461  49.165  0.00  0.00     0.026 A 
ATOM     24  C   UNL d   1      61.678  45.734  49.491  0.00  0.00     0.094 A 
ATOM     25  C   UNL d   1      61.255  45.720  50.214  0.00  0.00     0.026 A 
ATOM     26  C   UNL d   1      61.058  46.421  50.589  0.00  0.00     0.021 A 
BRANCH  24  27
ATOM     27  O   UNL d   1      61.888  45.036  49.094  0.00  0.00    -0.328 OA
ATOM     28  C   UNL d   1      61.324  44.458  48.946  0.00  0.00     0.181 C 
ENDBRANCH  24  27
ENDBRANCH  19  21
ENDBRANCH  17  18
ENDBRANCH  16  17
ENDBRANCH   6  16
TORSDOF 5
ENDMDL
