MODEL 1
REMARK VINA RESULT:      -5.3      0.000      0.000
REMARK  6 active torsions:
REMARK  status: ('A' for Active; 'I' for Inactive)
REMARK    1  A    between atoms: C_7  and  C_2 
REMARK    2  A    between atoms: C_16  and  N_3 
REMARK    3  A    between atoms: O_17  and  C_9 
REMARK    4  A    between atoms: O_19  and  C_10 
REMARK    5  A    between atoms: O_18  and  C_11 
REMARK    6  A    between atoms: C_25  and  C_16 
ROOT
ATOM      1  N   UNL d   1     -46.709  13.435  21.984  0.00  0.00    -0.206 NA
ATOM      2  C   UNL d   1     -47.222  13.092  22.539  0.00  0.00     0.151 A 
ATOM      3  N   UNL d   1     -46.789  12.532  22.973  0.00  0.00    -0.273 N 
ATOM      4  C   UNL d   1     -46.018  12.537  22.681  0.00  0.00     0.185 A 
ATOM      5  C   UNL d   1     -45.966  13.091  22.073  0.00  0.00     0.199 A 
ATOM      6  N   UNL d   1     -45.340  12.101  22.894  0.00  0.00    -0.224 NA
ATOM      7  N   UNL d   1     -45.254  13.211  21.680  0.00  0.00    -0.223 NA
ATOM      8  C   UNL d   1     -44.628  12.225  22.497  0.00  0.00     0.101 A 
ATOM      9  C   UNL d   1     -44.587  12.782  21.889  0.00  0.00     0.101 A 
ATOM     10  C   UNL d   1     -43.959  11.787  22.714  0.00  0.00     0.021 A 
ATOM     11  C   UNL d   1     -43.879  12.903  21.497  0.00  0.00     0.021 A 
ATOM     12  C   UNL d   1     -43.209  12.471  21.707  0.00  0.00     0.002 A 
ATOM     13  C   UNL d   1     -43.250  11.914  22.315  0.00  0.00     0.002 A 
ENDROOT
BRANCH   2  14
ATOM     14  C   UNL d   1     -48.015  13.273  22.641  0.00  0.00     0.039 A 
ATOM     15  C   UNL d   1     -48.605  12.788  22.273  0.00  0.00     0.029 A 
ATOM     16  C   UNL d   1     -49.414  12.957  22.366  0.00  0.00     0.118 A 
ATOM     17  C   UNL d   1     -49.634  13.617  22.831  0.00  0.00     0.138 A 
ATOM     18  C   UNL d   1     -49.045  14.101  23.198  0.00  0.00     0.118 A 
ATOM     19  C   UNL d   1     -48.229  13.933  23.106  0.00  0.00     0.029 A 
BRANCH  16  20
ATOM     20  O   UNL d   1     -49.991  12.483  22.006  0.00  0.00    -0.326 OA
ATOM     21  C   UNL d   1     -49.858  12.157  21.021  0.00  0.00     0.181 C 
ENDBRANCH  16  20
BRANCH  17  22
ATOM     22  O   UNL d   1     -50.424  13.802  22.936  0.00  0.00    -0.324 OA
ATOM     23  C   UNL d   1     -51.029  13.327  23.698  0.00  0.00     0.182 C 
ENDBRANCH  17  22
BRANCH  18  24
ATOM     24  O   UNL d   1     -49.258  14.761  23.663  0.00  0.00    -0.326 OA
ATOM     25  C   UNL d   1     -49.358  15.770  23.214  0.00  0.00     0.181 C 
ENDBRANCH  18  24
ENDBRANCH   2  14
BRANCH   3  26
ATOM     26  C   UNL d   1     -47.077  12.063  23.579  0.00  0.00     0.083 C 
BRANCH  26  27
ATOM     27  C   UNL d   1     -46.861  11.272  23.628  0.00  0.00     0.019 C 
ATOM     28  C   UNL d   1     -47.439  10.691  23.698  0.00  0.00     0.002 C 
ENDBRANCH  26  27
ENDBRANCH   3  26
TORSDOF 6
ENDMDL
MODEL 2
REMARK VINA RESULT:      -5.0      0.953      1.812
REMARK  6 active torsions:
REMARK  status: ('A' for Active; 'I' for Inactive)
REMARK    1  A    between atoms: C_7  and  C_2 
REMARK    2  A    between atoms: C_16  and  N_3 
REMARK    3  A    between atoms: O_17  and  C_9 
REMARK    4  A    between atoms: O_19  and  C_10 
REMARK    5  A    between atoms: O_18  and  C_11 
REMARK    6  A    between atoms: C_25  and  C_16 
ROOT
ATOM      1  N   UNL d   1     -47.440  11.614  23.383  0.00  0.00    -0.206 NA
ATOM      2  C   UNL d   1     -47.535  12.391  23.110  0.00  0.00     0.151 A 
ATOM      3  N   UNL d   1     -46.782  12.688  22.922  0.00  0.00    -0.273 N 
ATOM      4  C   UNL d   1     -46.235  12.092  23.082  0.00  0.00     0.185 A 
ATOM      5  C   UNL d   1     -46.637  11.431  23.365  0.00  0.00     0.199 A 
ATOM      6  N   UNL d   1     -45.406  12.064  23.004  0.00  0.00    -0.224 NA
ATOM      7  N   UNL d   1     -46.223  10.749  23.570  0.00  0.00    -0.223 NA
ATOM      8  C   UNL d   1     -44.996  11.378  23.211  0.00  0.00     0.101 A 
ATOM      9  C   UNL d   1     -45.407  10.721  23.494  0.00  0.00     0.101 A 
ATOM     10  C   UNL d   1     -44.171  11.358  23.131  0.00  0.00     0.021 A 
ATOM     11  C   UNL d   1     -44.997  10.044  23.698  0.00  0.00     0.021 A 
ATOM     12  C   UNL d   1     -44.177  10.015  23.621  0.00  0.00     0.002 A 
ATOM     13  C   UNL d   1     -43.766  10.672  23.338  0.00  0.00     0.002 A 
ENDROOT
BRANCH   2  14
ATOM     14  C   UNL d   1     -48.245  12.795  23.038  0.00  0.00     0.039 A 
ATOM     15  C   UNL d   1     -48.875  12.454  22.587  0.00  0.00     0.029 A 
ATOM     16  C   UNL d   1     -49.602  12.850  22.503  0.00  0.00     0.118 A 
ATOM     17  C   UNL d   1     -49.698  13.593  22.873  0.00  0.00     0.138 A 
ATOM     18  C   UNL d   1     -49.067  13.935  23.325  0.00  0.00     0.118 A 
ATOM     19  C   UNL d   1     -48.334  13.537  23.410  0.00  0.00     0.029 A 
BRANCH  16  20
ATOM     20  O   UNL d   1     -50.219  12.516  22.061  0.00  0.00    -0.326 OA
ATOM     21  C   UNL d   1     -50.032  12.146  21.100  0.00  0.00     0.181 C 
ENDBRANCH  16  20
BRANCH  17  22
ATOM     22  O   UNL d   1     -50.404  14.001  22.804  0.00  0.00    -0.324 OA
ATOM     23  C   UNL d   1     -51.064  14.153  23.649  0.00  0.00     0.182 C 
ENDBRANCH  17  22
BRANCH  18  24
ATOM     24  O   UNL d   1     -49.157  14.676  23.697  0.00  0.00    -0.326 OA
ATOM     25  C   UNL d   1     -48.794  15.607  23.215  0.00  0.00     0.181 C 
ENDBRANCH  18  24
ENDBRANCH   2  14
BRANCH   3  26
ATOM     26  C   UNL d   1     -46.617  13.436  22.632  0.00  0.00     0.083 C 
BRANCH  26  27
ATOM     27  C   UNL d   1     -45.933  13.568  22.197  0.00  0.00     0.019 C 
ATOM     28  C   UNL d   1     -45.578  14.310  22.204  0.00  0.00     0.002 C 
ENDBRANCH  26  27
ENDBRANCH   3  26
TORSDOF 6
ENDMDL
MODEL 3
REMARK VINA RESULT:      -4.9      2.086      4.791
REMARK  6 active torsions:
REMARK  status: ('A' for Active; 'I' for Inactive)
REMARK    1  A    between atoms: C_7  and  C_2 
REMARK    2  A    between atoms: C_16  and  N_3 
REMARK    3  A    between atoms: O_17  and  C_9 
REMARK    4  A    between atoms: O_19  and  C_10 
REMARK    5  A    between atoms: O_18  and  C_11 
REMARK    6  A    between atoms: C_25  and  C_16 
ROOT
ATOM      1  N   UNL d   1     -47.513  14.037  23.258  0.00  0.00    -0.206 NA
ATOM      2  C   UNL d   1     -47.378  13.355  22.806  0.00  0.00     0.151 A 
ATOM      3  N   UNL d   1     -48.076  13.184  22.389  0.00  0.00    -0.273 N 
ATOM      4  C   UNL d   1     -48.630  13.761  22.589  0.00  0.00     0.185 A 
ATOM      5  C   UNL d   1     -48.286  14.287  23.123  0.00  0.00     0.199 A 
ATOM      6  N   UNL d   1     -49.419  13.880  22.350  0.00  0.00    -0.224 NA
ATOM      7  N   UNL d   1     -48.718  14.922  23.417  0.00  0.00    -0.223 NA
ATOM      8  C   UNL d   1     -49.848  14.519  22.648  0.00  0.00     0.101 A 
ATOM      9  C   UNL d   1     -49.495  15.040  23.182  0.00  0.00     0.101 A 
ATOM     10  C   UNL d   1     -50.633  14.630  22.405  0.00  0.00     0.021 A 
ATOM     11  C   UNL d   1     -49.924  15.672  23.474  0.00  0.00     0.021 A 
ATOM     12  C   UNL d   1     -50.704  15.790  23.238  0.00  0.00     0.002 A 
ATOM     13  C   UNL d   1     -51.058  15.269  22.704  0.00  0.00     0.002 A 
ENDROOT
BRANCH   2  14
ATOM     14  C   UNL d   1     -46.680  12.925  22.775  0.00  0.00     0.039 A 
ATOM     15  C   UNL d   1     -46.598  12.228  23.250  0.00  0.00     0.029 A 
ATOM     16  C   UNL d   1     -45.897  11.780  23.231  0.00  0.00     0.118 A 
ATOM     17  C   UNL d   1     -45.275  12.032  22.734  0.00  0.00     0.138 A 
ATOM     18  C   UNL d   1     -45.357  12.728  22.259  0.00  0.00     0.118 A 
ATOM     19  C   UNL d   1     -46.062  13.181  22.276  0.00  0.00     0.029 A 
BRANCH  16  20
ATOM     20  O   UNL d   1     -45.817  11.098  23.696  0.00  0.00    -0.326 OA
ATOM     21  C   UNL d   1     -46.538  10.341  23.641  0.00  0.00     0.181 C 
ENDBRANCH  16  20
BRANCH  17  22
ATOM     22  O   UNL d   1     -44.576  11.607  22.699  0.00  0.00    -0.324 OA
ATOM     23  C   UNL d   1     -44.317  10.867  23.446  0.00  0.00     0.182 C 
ENDBRANCH  17  22
BRANCH  18  24
ATOM     24  O   UNL d   1     -44.738  12.985  21.760  0.00  0.00    -0.326 OA
ATOM     25  C   UNL d   1     -44.477  14.060  21.678  0.00  0.00     0.181 C 
ENDBRANCH  18  24
ENDBRANCH   2  14
BRANCH   3  26
ATOM     26  C   UNL d   1     -48.189  12.556  21.875  0.00  0.00     0.083 C 
BRANCH  26  27
ATOM     27  C   UNL d   1     -48.916  12.174  21.845  0.00  0.00     0.019 C 
ATOM     28  C   UNL d   1     -49.029  11.546  21.327  0.00  0.00     0.002 C 
ENDBRANCH  26  27
ENDBRANCH   3  26
TORSDOF 6
ENDMDL
MODEL 4
REMARK VINA RESULT:      -4.0      7.067      9.577
REMARK  6 active torsions:
REMARK  status: ('A' for Active; 'I' for Inactive)
REMARK    1  A    between atoms: C_7  and  C_2 
REMARK    2  A    between atoms: C_16  and  N_3 
REMARK    3  A    between atoms: O_17  and  C_9 
REMARK    4  A    between atoms: O_19  and  C_10 
REMARK    5  A    between atoms: O_18  and  C_11 
REMARK    6  A    between atoms: C_25  and  C_16 
ROOT
ATOM      1  N   UNL d   1     -39.387  15.505  18.356  0.00  0.00    -0.206 NA
ATOM      2  C   UNL d   1     -39.173  14.876  18.852  0.00  0.00     0.151 A 
ATOM      3  N   UNL d   1     -38.731  14.335  18.402  0.00  0.00    -0.273 N 
ATOM      4  C   UNL d   1     -38.678  14.638  17.637  0.00  0.00     0.185 A 
ATOM      5  C   UNL d   1     -39.081  15.357  17.606  0.00  0.00     0.199 A 
ATOM      6  N   UNL d   1     -38.309  14.348  16.949  0.00  0.00    -0.224 NA
ATOM      7  N   UNL d   1     -39.117  15.783  16.903  0.00  0.00    -0.223 NA
ATOM      8  C   UNL d   1     -38.348  14.778  16.246  0.00  0.00     0.101 A 
ATOM      9  C   UNL d   1     -38.753  15.497  16.226  0.00  0.00     0.101 A 
ATOM     10  C   UNL d   1     -37.978  14.482  15.566  0.00  0.00     0.021 A 
ATOM     11  C   UNL d   1     -38.790  15.922  15.527  0.00  0.00     0.021 A 
ATOM     12  C   UNL d   1     -38.425  15.635  14.847  0.00  0.00     0.002 A 
ATOM     13  C   UNL d   1     -38.019  14.915  14.867  0.00  0.00     0.002 A 
ENDROOT
BRANCH   2  14
ATOM     14  C   UNL d   1     -39.364  14.799  19.646  0.00  0.00     0.039 A 
ATOM     15  C   UNL d   1     -40.163  14.627  19.869  0.00  0.00     0.029 A 
ATOM     16  C   UNL d   1     -40.375  14.547  20.669  0.00  0.00     0.118 A 
ATOM     17  C   UNL d   1     -39.781  14.639  21.251  0.00  0.00     0.138 A 
ATOM     18  C   UNL d   1     -38.982  14.810  21.028  0.00  0.00     0.118 A 
ATOM     19  C   UNL d   1     -38.767  14.892  20.222  0.00  0.00     0.029 A 
BRANCH  16  20
ATOM     20  O   UNL d   1     -41.157  14.378  20.887  0.00  0.00    -0.326 OA
ATOM     21  C   UNL d   1     -41.900  15.106  20.768  0.00  0.00     0.181 C 
ENDBRANCH  16  20
BRANCH  17  22
ATOM     22  O   UNL d   1     -39.966  14.564  22.044  0.00  0.00    -0.324 OA
ATOM     23  C   UNL d   1     -40.208  13.607  22.490  0.00  0.00     0.182 C 
ENDBRANCH  17  22
BRANCH  18  24
ATOM     24  O   UNL d   1     -38.385  14.903  21.604  0.00  0.00    -0.326 OA
ATOM     25  C   UNL d   1     -37.940  15.898  21.812  0.00  0.00     0.181 C 
ENDBRANCH  18  24
ENDBRANCH   2  14
BRANCH   3  26
ATOM     26  C   UNL d   1     -38.409  13.633  18.671  0.00  0.00     0.083 C 
BRANCH  26  27
ATOM     27  C   UNL d   1     -38.632  12.919  18.331  0.00  0.00     0.019 C 
ATOM     28  C   UNL d   1     -38.091  12.302  18.277  0.00  0.00     0.002 C 
ENDBRANCH  26  27
ENDBRANCH   3  26
TORSDOF 6
ENDMDL
MODEL 5
REMARK VINA RESULT:      -3.1      2.202      4.975
REMARK  6 active torsions:
REMARK  status: ('A' for Active; 'I' for Inactive)
REMARK    1  A    between atoms: C_7  and  C_2 
REMARK    2  A    between atoms: C_16  and  N_3 
REMARK    3  A    between atoms: O_17  and  C_9 
REMARK    4  A    between atoms: O_19  and  C_10 
REMARK    5  A    between atoms: O_18  and  C_11 
REMARK    6  A    between atoms: C_25  and  C_16 
ROOT
ATOM      1  N   UNL d   1     -47.681  12.349  21.953  0.00  0.00    -0.206 NA
ATOM      2  C   UNL d   1     -47.098  12.787  22.349  0.00  0.00     0.151 A 
ATOM      3  N   UNL d   1     -47.433  13.514  22.571  0.00  0.00    -0.273 N 
ATOM      4  C   UNL d   1     -48.215  13.515  22.311  0.00  0.00     0.185 A 
ATOM      5  C   UNL d   1     -48.370  12.800  21.931  0.00  0.00     0.199 A 
ATOM      6  N   UNL d   1     -48.820  14.084  22.370  0.00  0.00    -0.224 NA
ATOM      7  N   UNL d   1     -49.115  12.650  21.614  0.00  0.00    -0.223 NA
ATOM      8  C   UNL d   1     -49.565  13.930  22.051  0.00  0.00     0.101 A 
ATOM      9  C   UNL d   1     -49.711  13.211  21.673  0.00  0.00     0.101 A 
ATOM     10  C   UNL d   1     -50.162  14.502  22.115  0.00  0.00     0.021 A 
ATOM     11  C   UNL d   1     -50.450  13.061  21.357  0.00  0.00     0.021 A 
ATOM     12  C   UNL d   1     -51.049  13.625  21.416  0.00  0.00     0.002 A 
ATOM     13  C   UNL d   1     -50.904  14.344  21.795  0.00  0.00     0.002 A 
ENDROOT
BRANCH   2  14
ATOM     14  C   UNL d   1     -46.328  12.546  22.495  0.00  0.00     0.039 A 
ATOM     15  C   UNL d   1     -45.687  12.937  22.103  0.00  0.00     0.029 A 
ATOM     16  C   UNL d   1     -44.899  12.705  22.239  0.00  0.00     0.118 A 
ATOM     17  C   UNL d   1     -44.753  12.078  22.772  0.00  0.00     0.138 A 
ATOM     18  C   UNL d   1     -45.394  11.688  23.165  0.00  0.00     0.118 A 
ATOM     19  C   UNL d   1     -46.188  11.919  23.029  0.00  0.00     0.029 A 
BRANCH  16  20
ATOM     20  O   UNL d   1     -44.272  13.088  21.855  0.00  0.00    -0.326 OA
ATOM     21  C   UNL d   1     -44.281  13.189  20.813  0.00  0.00     0.181 C 
ENDBRANCH  16  20
BRANCH  17  22
ATOM     22  O   UNL d   1     -43.987  11.834  22.921  0.00  0.00    -0.324 OA
ATOM     23  C   UNL d   1     -43.639  10.843  22.660  0.00  0.00     0.182 C 
ENDBRANCH  17  22
BRANCH  18  24
ATOM     24  O   UNL d   1     -45.255  11.061  23.698  0.00  0.00    -0.326 OA
ATOM     25  C   UNL d   1     -45.889  10.151  23.690  0.00  0.00     0.181 C 
ENDBRANCH  18  24
ENDBRANCH   2  14
BRANCH   3  26
ATOM     26  C   UNL d   1     -47.053  14.117  22.975  0.00  0.00     0.083 C 
BRANCH  26  27
ATOM     27  C   UNL d   1     -47.210  14.901  22.788  0.00  0.00     0.019 C 
ATOM     28  C   UNL d   1     -46.652  15.483  22.950  0.00  0.00     0.002 C 
ENDBRANCH  26  27
ENDBRANCH   3  26
TORSDOF 6
ENDMDL
