MODEL 1
REMARK VINA RESULT:      -2.8      0.000      0.000
REMARK  8 active torsions:
REMARK  status: ('A' for Active; 'I' for Inactive)
REMARK    1  A    between atoms: N_3  and  S_1 
REMARK    2  A    between atoms: C_5  and  S_1 
REMARK    3  A    between atoms: N_2  and  C_7 
REMARK    4  A    between atoms: C_6  and  N_3 
REMARK    5  A    between atoms: C_18  and  N_4 
REMARK    6  A    between atoms: C_7  and  C_6 
REMARK    7  A    between atoms: C_12  and  C_7 
REMARK    8  A    between atoms: O_23  and  C_17 
ROOT
ATOM      1  C   UNL d   1     -47.068  12.778  22.978  0.00  0.00     0.086 C 
ENDROOT
BRANCH   1   2
ATOM      2  N   UNL d   1     -46.289  12.771  22.685  0.00  0.00    -0.300 N 
ATOM      3  C   UNL d   1     -45.699  12.386  23.109  0.00  0.00     0.100 A 
ATOM      4  C   UNL d   1     -44.925  12.376  22.823  0.00  0.00     0.100 A 
ATOM      5  N   UNL d   1     -44.745  12.752  22.113  0.00  0.00    -0.301 N 
ATOM      6  C   UNL d   1     -45.338  13.137  21.688  0.00  0.00     0.100 A 
ATOM      7  C   UNL d   1     -46.109  13.146  21.975  0.00  0.00     0.100 A 
BRANCH   5   8
ATOM      8  C   UNL d   1     -43.976  12.743  21.826  0.00  0.00     0.064 A 
ATOM      9  C   UNL d   1     -43.474  12.111  22.003  0.00  0.00     0.018 A 
ATOM     10  C   UNL d   1     -42.704  12.103  21.716  0.00  0.00     0.002 A 
ATOM     11  C   UNL d   1     -42.429  12.728  21.248  0.00  0.00     0.000 A 
ATOM     12  C   UNL d   1     -42.931  13.361  21.070  0.00  0.00     0.002 A 
ATOM     13  C   UNL d   1     -43.701  13.369  21.358  0.00  0.00     0.018 A 
ENDBRANCH   5   8
ENDBRANCH   1   2
BRANCH   1  14
ATOM     14  C   UNL d   1     -47.395  13.483  23.255  0.00  0.00     0.130 C 
BRANCH  14  15
ATOM     15  N   UNL d   1     -47.936  13.903  22.784  0.00  0.00    -0.155 NA
BRANCH  15  16
ATOM     16  S   UNL d   1     -48.157  14.667  22.993  0.00  0.00     0.285 S 
ATOM     17  O   UNL d   1     -47.362  14.785  23.424  0.00  0.00    -0.198 OA
ATOM     18  O   UNL d   1     -48.379  15.372  23.176  0.00  0.00    -0.198 OA
BRANCH  16  19
ATOM     19  C   UNL d   1     -48.878  14.564  22.602  0.00  0.00     0.105 A 
ATOM     20  C   UNL d   1     -49.561  14.421  23.036  0.00  0.00     0.015 A 
ATOM     21  C   UNL d   1     -50.286  14.317  22.650  0.00  0.00     0.023 A 
ATOM     22  C   UNL d   1     -50.972  14.173  23.087  0.00  0.00     0.002 C 
ATOM     23  C   UNL d   1     -50.321  14.358  21.819  0.00  0.00     0.094 A 
ATOM     24  C   UNL d   1     -49.631  14.502  21.385  0.00  0.00     0.025 A 
ATOM     25  C   UNL d   1     -48.913  14.605  21.772  0.00  0.00     0.015 A 
BRANCH  23  26
ATOM     26  O   UNL d   1     -51.042  14.255  21.429  0.00  0.00    -0.328 OA
ATOM     27  C   UNL d   1     -51.064  14.188  20.600  0.00  0.00     0.181 C 
ENDBRANCH  23  26
ENDBRANCH  16  19
ENDBRANCH  15  16
ENDBRANCH  14  15
ENDBRANCH   1  14
BRANCH   1  28
ATOM     28  C   UNL d   1     -47.513  12.085  22.991  0.00  0.00     0.037 A 
ATOM     29  C   UNL d   1     -47.894  11.828  22.306  0.00  0.00     0.100 A 
ATOM     30  N   UNL d   1     -48.342  11.132  22.320  0.00  0.00    -0.242 NA
ATOM     31  C   UNL d   1     -48.405  10.697  23.018  0.00  0.00     0.099 A 
ATOM     32  C   UNL d   1     -48.025  10.955  23.698  0.00  0.00     0.021 A 
ATOM     33  C   UNL d   1     -47.577  11.652  23.684  0.00  0.00     0.005 A 
ENDBRANCH   1  28
TORSDOF 8
ENDMDL
MODEL 2
REMARK VINA RESULT:      -2.1      1.455      2.005
REMARK  8 active torsions:
REMARK  status: ('A' for Active; 'I' for Inactive)
REMARK    1  A    between atoms: N_3  and  S_1 
REMARK    2  A    between atoms: C_5  and  S_1 
REMARK    3  A    between atoms: N_2  and  C_7 
REMARK    4  A    between atoms: C_6  and  N_3 
REMARK    5  A    between atoms: C_18  and  N_4 
REMARK    6  A    between atoms: C_7  and  C_6 
REMARK    7  A    between atoms: C_12  and  C_7 
REMARK    8  A    between atoms: O_23  and  C_17 
ROOT
ATOM      1  C   UNL d   1     -47.574  12.566  22.988  0.00  0.00     0.086 C 
ENDROOT
BRANCH   1   2
ATOM      2  N   UNL d   1     -46.862  12.138  23.046  0.00  0.00    -0.300 N 
ATOM      3  C   UNL d   1     -46.261  12.274  22.502  0.00  0.00     0.100 A 
ATOM      4  C   UNL d   1     -45.554  11.853  22.555  0.00  0.00     0.100 A 
ATOM      5  N   UNL d   1     -45.451  11.296  23.153  0.00  0.00    -0.301 N 
ATOM      6  C   UNL d   1     -46.056  11.161  23.698  0.00  0.00     0.100 A 
ATOM      7  C   UNL d   1     -46.759  11.582  23.643  0.00  0.00     0.100 A 
BRANCH   5   8
ATOM      8  C   UNL d   1     -44.748  10.875  23.207  0.00  0.00     0.064 A 
ATOM      9  C   UNL d   1     -44.757  10.080  23.435  0.00  0.00     0.018 A 
ATOM     10  C   UNL d   1     -44.054   9.659  23.490  0.00  0.00     0.002 A 
ATOM     11  C   UNL d   1     -43.333  10.030  23.317  0.00  0.00     0.000 A 
ATOM     12  C   UNL d   1     -43.324  10.825  23.089  0.00  0.00     0.002 A 
ATOM     13  C   UNL d   1     -44.028  11.246  23.035  0.00  0.00     0.018 A 
ENDBRANCH   5   8
ENDBRANCH   1   2
BRANCH   1  14
ATOM     14  C   UNL d   1     -47.583  13.372  23.167  0.00  0.00     0.130 C 
BRANCH  14  15
ATOM     15  N   UNL d   1     -47.792  13.924  22.582  0.00  0.00    -0.155 NA
BRANCH  15  16
ATOM     16  S   UNL d   1     -47.521  14.698  22.631  0.00  0.00     0.285 S 
ATOM     17  O   UNL d   1     -46.662  14.410  22.533  0.00  0.00    -0.198 OA
ATOM     18  O   UNL d   1     -47.289  15.422  22.678  0.00  0.00    -0.198 OA
BRANCH  16  19
ATOM     19  C   UNL d   1     -48.299  14.964  22.720  0.00  0.00     0.105 A 
ATOM     20  C   UNL d   1     -48.790  15.019  22.064  0.00  0.00     0.015 A 
ATOM     21  C   UNL d   1     -49.570  15.284  22.148  0.00  0.00     0.023 A 
ATOM     22  C   UNL d   1     -50.063  15.339  21.487  0.00  0.00     0.002 C 
ATOM     23  C   UNL d   1     -49.855  15.497  22.900  0.00  0.00     0.094 A 
ATOM     24  C   UNL d   1     -49.357  15.441  23.559  0.00  0.00     0.025 A 
ATOM     25  C   UNL d   1     -48.584  15.177  23.472  0.00  0.00     0.015 A 
BRANCH  23  26
ATOM     26  O   UNL d   1     -50.633  15.763  22.989  0.00  0.00    -0.328 OA
ATOM     27  C   UNL d   1     -51.064  15.574  23.675  0.00  0.00     0.181 C 
ENDBRANCH  23  26
ENDBRANCH  16  19
ENDBRANCH  15  16
ENDBRANCH  14  15
ENDBRANCH   1  14
BRANCH   1  28
ATOM     28  C   UNL d   1     -48.267  12.189  22.754  0.00  0.00     0.037 A 
ATOM     29  C   UNL d   1     -48.810  11.938  23.322  0.00  0.00     0.100 A 
ATOM     30  N   UNL d   1     -49.508  11.559  23.087  0.00  0.00    -0.242 NA
ATOM     31  C   UNL d   1     -49.657  11.434  22.285  0.00  0.00     0.099 A 
ATOM     32  C   UNL d   1     -49.115  11.684  21.722  0.00  0.00     0.021 A 
ATOM     33  C   UNL d   1     -48.418  12.063  21.958  0.00  0.00     0.005 A 
ENDBRANCH   1  28
TORSDOF 8
ENDMDL
MODEL 3
REMARK VINA RESULT:      -1.8      1.743      2.431
REMARK  8 active torsions:
REMARK  status: ('A' for Active; 'I' for Inactive)
REMARK    1  A    between atoms: N_3  and  S_1 
REMARK    2  A    between atoms: C_5  and  S_1 
REMARK    3  A    between atoms: N_2  and  C_7 
REMARK    4  A    between atoms: C_6  and  N_3 
REMARK    5  A    between atoms: C_18  and  N_4 
REMARK    6  A    between atoms: C_7  and  C_6 
REMARK    7  A    between atoms: C_12  and  C_7 
REMARK    8  A    between atoms: O_23  and  C_17 
ROOT
ATOM      1  C   UNL d   1     -47.119  12.792  23.182  0.00  0.00     0.086 C 
ENDROOT
BRANCH   1   2
ATOM      2  N   UNL d   1     -46.453  12.294  23.210  0.00  0.00    -0.300 N 
ATOM      3  C   UNL d   1     -46.514  11.553  23.560  0.00  0.00     0.100 A 
ATOM      4  C   UNL d   1     -45.856  11.055  23.589  0.00  0.00     0.100 A 
ATOM      5  N   UNL d   1     -45.140  11.302  23.267  0.00  0.00    -0.301 N 
ATOM      6  C   UNL d   1     -45.081  12.046  22.916  0.00  0.00     0.100 A 
ATOM      7  C   UNL d   1     -45.737  12.540  22.887  0.00  0.00     0.100 A 
BRANCH   5   8
ATOM      8  C   UNL d   1     -44.485  10.808  23.295  0.00  0.00     0.064 A 
ATOM      9  C   UNL d   1     -44.540  10.064  23.652  0.00  0.00     0.018 A 
ATOM     10  C   UNL d   1     -43.883   9.571  23.680  0.00  0.00     0.002 A 
ATOM     11  C   UNL d   1     -43.164   9.818  23.350  0.00  0.00     0.000 A 
ATOM     12  C   UNL d   1     -43.109  10.562  22.993  0.00  0.00     0.002 A 
ATOM     13  C   UNL d   1     -43.765  11.055  22.966  0.00  0.00     0.018 A 
ENDBRANCH   5   8
ENDBRANCH   1   2
BRANCH   1  14
ATOM     14  C   UNL d   1     -47.845  12.522  23.467  0.00  0.00     0.130 C 
BRANCH  14  15
ATOM     15  N   UNL d   1     -48.493  12.450  22.952  0.00  0.00    -0.155 NA
BRANCH  15  16
ATOM     16  S   UNL d   1     -49.156  12.022  23.180  0.00  0.00     0.285 S 
ATOM     17  O   UNL d   1     -48.635  11.481  23.697  0.00  0.00    -0.198 OA
ATOM     18  O   UNL d   1     -49.781  11.636  23.380  0.00  0.00    -0.198 OA
BRANCH  16  19
ATOM     19  C   UNL d   1     -49.631  12.510  22.712  0.00  0.00     0.105 A 
ATOM     20  C   UNL d   1     -50.060  13.118  23.059  0.00  0.00     0.015 A 
ATOM     21  C   UNL d   1     -50.538  13.609  22.595  0.00  0.00     0.023 A 
ATOM     22  C   UNL d   1     -50.969  14.221  22.946  0.00  0.00     0.002 C 
ATOM     23  C   UNL d   1     -50.583  13.485  21.773  0.00  0.00     0.094 A 
ATOM     24  C   UNL d   1     -50.149  12.871  21.426  0.00  0.00     0.025 A 
ATOM     25  C   UNL d   1     -49.676  12.385  21.890  0.00  0.00     0.015 A 
BRANCH  23  26
ATOM     26  O   UNL d   1     -51.059  13.973  21.305  0.00  0.00    -0.328 OA
ATOM     27  C   UNL d   1     -50.841  14.143  20.521  0.00  0.00     0.181 C 
ENDBRANCH  23  26
ENDBRANCH  16  19
ENDBRANCH  15  16
ENDBRANCH  14  15
ENDBRANCH   1  14
BRANCH   1  28
ATOM     28  C   UNL d   1     -47.057  13.552  22.873  0.00  0.00     0.037 A 
ATOM     29  C   UNL d   1     -46.926  13.658  22.065  0.00  0.00     0.100 A 
ATOM     30  N   UNL d   1     -46.863  14.422  21.754  0.00  0.00    -0.242 NA
ATOM     31  C   UNL d   1     -46.931  15.076  22.252  0.00  0.00     0.099 A 
ATOM     32  C   UNL d   1     -47.061  14.969  23.055  0.00  0.00     0.021 A 
ATOM     33  C   UNL d   1     -47.124  14.204  23.367  0.00  0.00     0.005 A 
ENDBRANCH   1  28
TORSDOF 8
ENDMDL
MODEL 4
REMARK VINA RESULT:      -1.5      1.593      2.379
REMARK  8 active torsions:
REMARK  status: ('A' for Active; 'I' for Inactive)
REMARK    1  A    between atoms: N_3  and  S_1 
REMARK    2  A    between atoms: C_5  and  S_1 
REMARK    3  A    between atoms: N_2  and  C_7 
REMARK    4  A    between atoms: C_6  and  N_3 
REMARK    5  A    between atoms: C_18  and  N_4 
REMARK    6  A    between atoms: C_7  and  C_6 
REMARK    7  A    between atoms: C_12  and  C_7 
REMARK    8  A    between atoms: O_23  and  C_17 
ROOT
ATOM      1  C   UNL d   1     -46.618  13.375  22.701  0.00  0.00     0.086 C 
ENDROOT
BRANCH   1   2
ATOM      2  N   UNL d   1     -45.842  13.331  22.404  0.00  0.00    -0.300 N 
ATOM      3  C   UNL d   1     -45.655  12.766  21.836  0.00  0.00     0.100 A 
ATOM      4  C   UNL d   1     -44.887  12.719  21.539  0.00  0.00     0.100 A 
ATOM      5  N   UNL d   1     -44.308  13.236  21.812  0.00  0.00    -0.301 N 
ATOM      6  C   UNL d   1     -44.497  13.803  22.382  0.00  0.00     0.100 A 
ATOM      7  C   UNL d   1     -45.263  13.849  22.677  0.00  0.00     0.100 A 
BRANCH   5   8
ATOM      8  C   UNL d   1     -43.543  13.191  21.518  0.00  0.00     0.064 A 
ATOM      9  C   UNL d   1     -43.244  13.799  21.044  0.00  0.00     0.018 A 
ATOM     10  C   UNL d   1     -42.478  13.753  20.750  0.00  0.00     0.002 A 
ATOM     11  C   UNL d   1     -42.003  13.097  20.928  0.00  0.00     0.000 A 
ATOM     12  C   UNL d   1     -42.303  12.489  21.401  0.00  0.00     0.002 A 
ATOM     13  C   UNL d   1     -43.069  12.535  21.696  0.00  0.00     0.018 A 
ENDBRANCH   5   8
ENDBRANCH   1   2
BRANCH   1  14
ATOM     14  C   UNL d   1     -46.918  12.757  23.158  0.00  0.00     0.130 C 
BRANCH  14  15
ATOM     15  N   UNL d   1     -47.648  12.412  22.962  0.00  0.00    -0.155 NA
BRANCH  15  16
ATOM     16  S   UNL d   1     -47.898  11.731  23.348  0.00  0.00     0.285 S 
ATOM     17  O   UNL d   1     -47.064  11.614  23.696  0.00  0.00    -0.198 OA
ATOM     18  O   UNL d   1     -48.148  11.102  23.697  0.00  0.00    -0.198 OA
BRANCH  16  19
ATOM     19  C   UNL d   1     -48.656  11.833  23.034  0.00  0.00     0.105 A 
ATOM     20  C   UNL d   1     -49.261  12.115  23.512  0.00  0.00     0.015 A 
ATOM     21  C   UNL d   1     -50.023  12.219  23.203  0.00  0.00     0.023 A 
ATOM     22  C   UNL d   1     -50.631  12.504  23.685  0.00  0.00     0.002 C 
ATOM     23  C   UNL d   1     -50.173  12.036  22.405  0.00  0.00     0.094 A 
ATOM     24  C   UNL d   1     -49.560  11.751  21.927  0.00  0.00     0.025 A 
ATOM     25  C   UNL d   1     -48.807  11.649  22.237  0.00  0.00     0.015 A 
BRANCH  23  26
ATOM     26  O   UNL d   1     -50.931  12.137  22.092  0.00  0.00    -0.328 OA
ATOM     27  C   UNL d   1     -51.064  12.696  21.490  0.00  0.00     0.181 C 
ENDBRANCH  23  26
ENDBRANCH  16  19
ENDBRANCH  15  16
ENDBRANCH  14  15
ENDBRANCH   1  14
BRANCH   1  28
ATOM     28  C   UNL d   1     -47.087  14.032  22.540  0.00  0.00     0.037 A 
ATOM     29  C   UNL d   1     -47.379  14.152  21.777  0.00  0.00     0.100 A 
ATOM     30  N   UNL d   1     -47.851  14.813  21.615  0.00  0.00    -0.242 NA
ATOM     31  C   UNL d   1     -48.028  15.349  22.216  0.00  0.00     0.099 A 
ATOM     32  C   UNL d   1     -47.736  15.228  22.974  0.00  0.00     0.021 A 
ATOM     33  C   UNL d   1     -47.265  14.567  23.136  0.00  0.00     0.005 A 
ENDBRANCH   1  28
TORSDOF 8
ENDMDL
MODEL 5
REMARK VINA RESULT:      -0.6      5.506      8.283
REMARK  8 active torsions:
REMARK  status: ('A' for Active; 'I' for Inactive)
REMARK    1  A    between atoms: N_3  and  S_1 
REMARK    2  A    between atoms: C_5  and  S_1 
REMARK    3  A    between atoms: N_2  and  C_7 
REMARK    4  A    between atoms: C_6  and  N_3 
REMARK    5  A    between atoms: C_18  and  N_4 
REMARK    6  A    between atoms: C_7  and  C_6 
REMARK    7  A    between atoms: C_12  and  C_7 
REMARK    8  A    between atoms: O_23  and  C_17 
ROOT
ATOM      1  C   UNL d   1     -41.480  14.372  20.331  0.00  0.00     0.086 C 
ENDROOT
BRANCH   1   2
ATOM      2  N   UNL d   1     -40.895  14.546  20.897  0.00  0.00    -0.300 N 
ATOM      3  C   UNL d   1     -40.413  13.944  21.182  0.00  0.00     0.100 A 
ATOM      4  C   UNL d   1     -39.832  14.112  21.743  0.00  0.00     0.100 A 
ATOM      5  N   UNL d   1     -39.736  14.882  22.017  0.00  0.00    -0.301 N 
ATOM      6  C   UNL d   1     -40.221  15.485  21.730  0.00  0.00     0.100 A 
ATOM      7  C   UNL d   1     -40.799  15.316  21.172  0.00  0.00     0.100 A 
BRANCH   5   8
ATOM      8  C   UNL d   1     -39.158  15.051  22.575  0.00  0.00     0.064 A 
ATOM      9  C   UNL d   1     -39.214  15.736  23.035  0.00  0.00     0.018 A 
ATOM     10  C   UNL d   1     -38.635  15.905  23.594  0.00  0.00     0.002 A 
ATOM     11  C   UNL d   1     -37.995  15.390  23.698  0.00  0.00     0.000 A 
ATOM     12  C   UNL d   1     -37.940  14.705  23.238  0.00  0.00     0.002 A 
ATOM     13  C   UNL d   1     -38.518  14.535  22.680  0.00  0.00     0.018 A 
ENDBRANCH   5   8
ENDBRANCH   1   2
BRANCH   1  14
ATOM     14  C   UNL d   1     -41.446  14.723  19.585  0.00  0.00     0.130 C 
BRANCH  14  15
ATOM     15  N   UNL d   1     -40.767  14.633  19.115  0.00  0.00    -0.155 NA
BRANCH  15  16
ATOM     16  S   UNL d   1     -40.700  15.043  18.406  0.00  0.00     0.285 S 
ATOM     17  O   UNL d   1     -41.366  15.610  18.664  0.00  0.00    -0.198 OA
ATOM     18  O   UNL d   1     -40.624  15.410  17.743  0.00  0.00    -0.198 OA
BRANCH  16  19
ATOM     19  C   UNL d   1     -40.096  14.531  18.168  0.00  0.00     0.105 A 
ATOM     20  C   UNL d   1     -39.363  14.565  18.537  0.00  0.00     0.015 A 
ATOM     21  C   UNL d   1     -38.755  14.054  18.302  0.00  0.00     0.023 A 
ATOM     22  C   UNL d   1     -38.017  14.090  18.674  0.00  0.00     0.002 C 
ATOM     23  C   UNL d   1     -38.888  13.506  17.691  0.00  0.00     0.094 A 
ATOM     24  C   UNL d   1     -39.629  13.475  17.321  0.00  0.00     0.025 A 
ATOM     25  C   UNL d   1     -40.230  13.983  17.557  0.00  0.00     0.015 A 
BRANCH  23  26
ATOM     26  O   UNL d   1     -38.284  12.994  17.453  0.00  0.00    -0.328 OA
ATOM     27  C   UNL d   1     -38.461  12.212  17.231  0.00  0.00     0.181 C 
ENDBRANCH  23  26
ENDBRANCH  16  19
ENDBRANCH  15  16
ENDBRANCH  14  15
ENDBRANCH   1  14
BRANCH   1  28
ATOM     28  C   UNL d   1     -42.092  13.851  20.512  0.00  0.00     0.037 A 
ATOM     29  C   UNL d   1     -42.095  13.093  20.188  0.00  0.00     0.100 A 
ATOM     30  N   UNL d   1     -42.710  12.569  20.370  0.00  0.00    -0.242 NA
ATOM     31  C   UNL d   1     -43.317  12.807  20.876  0.00  0.00     0.099 A 
ATOM     32  C   UNL d   1     -43.311  13.562  21.197  0.00  0.00     0.021 A 
ATOM     33  C   UNL d   1     -42.696  14.085  21.015  0.00  0.00     0.005 A 
ENDBRANCH   1  28
TORSDOF 8
ENDMDL
