MODEL 1
REMARK VINA RESULT:      -8.4      0.000      0.000
REMARK  5 active torsions:
REMARK  status: ('A' for Active; 'I' for Inactive)
REMARK       I    between atoms: N_3  and  C_1 
REMARK    1  A    between atoms: C_4  and  C_1 
REMARK    2  A    between atoms: N_2  and  C_4 
REMARK       I    between atoms: C_5  and  N_2 
REMARK    3  A    between atoms: C_18  and  C_4 
REMARK    4  A    between atoms: C_9  and  C_5 
REMARK    5  A    between atoms: C_7  and  N_6 
ROOT
ATOM      1  C   UNL d   1      53.431  33.707  53.460  0.00  0.00     0.283 C 
ATOM      2  N   UNL d   1      52.653  33.929  53.296  0.00  0.00    -0.268 N 
ATOM      3  N   UNL d   1      51.106  34.371  52.967  0.00  0.00    -0.286 N 
ATOM      4  O   UNL d   1      54.056  34.023  53.025  0.00  0.00    -0.265 OA
ATOM      5  C   UNL d   1      52.034  33.610  53.734  0.00  0.00     0.102 A 
ATOM      6  C   UNL d   1      52.505  34.470  52.691  0.00  0.00     0.102 A 
ATOM      7  C   UNL d   1      51.724  34.692  52.527  0.00  0.00     0.101 A 
ATOM      8  C   UNL d   1      51.260  33.835  53.564  0.00  0.00     0.101 A 
ENDROOT
BRANCH   1   9
ATOM      9  C   UNL d   1      53.579  33.166  54.065  0.00  0.00     0.141 C 
BRANCH   9  10
ATOM     10  N   UNL d   1      53.298  32.387  54.003  0.00  0.00    -0.203 NA
ATOM     11  C   UNL d   1      53.790  31.797  53.711  0.00  0.00     0.279 C 
ATOM     12  O   UNL d   1      54.557  31.975  53.481  0.00  0.00    -0.265 OA
BRANCH  11  13
ATOM     13  C   UNL d   1      53.509  31.023  53.650  0.00  0.00     0.058 A 
ATOM     14  C   UNL d   1      53.156  30.764  52.956  0.00  0.00     0.005 A 
ATOM     15  C   UNL d   1      52.874  29.998  52.889  0.00  0.00     0.000 A 
ATOM     16  C   UNL d   1      52.947  29.480  53.527  0.00  0.00     0.000 A 
ATOM     17  C   UNL d   1      53.300  29.727  54.233  0.00  0.00     0.000 A 
ATOM     18  C   UNL d   1      52.666  28.701  53.472  0.00  0.00     0.000 C 
ATOM     19  C   UNL d   1      53.581  30.505  54.288  0.00  0.00     0.005 A 
ENDBRANCH  11  13
ENDBRANCH   9  10
BRANCH   9  20
ATOM     20  C   UNL d   1      54.002  33.388  54.731  0.00  0.00     0.022 C 
ATOM     21  C   UNL d   1      53.644  33.328  55.481  0.00  0.00     0.002 C 
ATOM     22  C   UNL d   1      54.774  33.669  54.666  0.00  0.00     0.002 C 
ENDBRANCH   9  20
ENDBRANCH   1   9
BRANCH   3  23
ATOM     23  C   UNL d   1      50.327  34.594  52.800  0.00  0.00     0.148 A 
ATOM     24  N   UNL d   1      49.915  35.076  53.328  0.00  0.00    -0.227 NA
ATOM     25  C   UNL d   1      49.139  35.297  53.158  0.00  0.00     0.101 A 
ATOM     26  C   UNL d   1      48.774  35.041  52.469  0.00  0.00     0.021 A 
ATOM     27  C   UNL d   1      49.194  34.554  51.939  0.00  0.00     0.005 A 
ATOM     28  C   UNL d   1      49.968  34.333  52.106  0.00  0.00     0.037 A 
ENDBRANCH   3  23
TORSDOF 5
ENDMDL
MODEL 2
REMARK VINA RESULT:      -7.1      1.001      4.630
REMARK  5 active torsions:
REMARK  status: ('A' for Active; 'I' for Inactive)
REMARK       I    between atoms: N_3  and  C_1 
REMARK    1  A    between atoms: C_4  and  C_1 
REMARK    2  A    between atoms: N_2  and  C_4 
REMARK       I    between atoms: C_5  and  N_2 
REMARK    3  A    between atoms: C_18  and  C_4 
REMARK    4  A    between atoms: C_9  and  C_5 
REMARK    5  A    between atoms: C_7  and  N_6 
ROOT
ATOM      1  C   UNL d   1      53.773  33.218  53.519  0.00  0.00     0.283 C 
ATOM      2  N   UNL d   1      53.658  32.411  53.645  0.00  0.00    -0.268 N 
ATOM      3  N   UNL d   1      53.430  30.804  53.897  0.00  0.00    -0.286 N 
ATOM      4  O   UNL d   1      54.421  33.485  53.084  0.00  0.00    -0.265 OA
ATOM      5  C   UNL d   1      53.009  32.152  54.080  0.00  0.00     0.102 A 
ATOM      6  C   UNL d   1      54.197  31.871  53.333  0.00  0.00     0.102 A 
ATOM      7  C   UNL d   1      54.080  31.061  53.461  0.00  0.00     0.101 A 
ATOM      8  C   UNL d   1      52.900  31.346  54.203  0.00  0.00     0.101 A 
ENDROOT
BRANCH   1   9
ATOM      9  C   UNL d   1      53.233  33.759  53.831  0.00  0.00     0.141 C 
BRANCH   9  10
ATOM     10  N   UNL d   1      52.457  33.789  53.536  0.00  0.00    -0.203 NA
ATOM     11  C   UNL d   1      52.244  34.377  53.003  0.00  0.00     0.279 C 
ATOM     12  O   UNL d   1      52.795  34.935  52.762  0.00  0.00    -0.265 OA
BRANCH  11  13
ATOM     13  C   UNL d   1      51.473  34.405  52.712  0.00  0.00     0.058 A 
ATOM     14  C   UNL d   1      50.848  34.591  53.210  0.00  0.00     0.005 A 
ATOM     15  C   UNL d   1      50.080  34.620  52.927  0.00  0.00     0.000 A 
ATOM     16  C   UNL d   1      49.932  34.459  52.132  0.00  0.00     0.000 A 
ATOM     17  C   UNL d   1      50.552  34.270  51.617  0.00  0.00     0.000 A 
ATOM     18  C   UNL d   1      49.159  34.485  51.833  0.00  0.00     0.000 C 
ATOM     19  C   UNL d   1      51.325  34.244  51.916  0.00  0.00     0.005 A 
ENDBRANCH  11  13
ENDBRANCH   9  10
BRANCH   9  20
ATOM     20  C   UNL d   1      53.454  34.270  54.433  0.00  0.00     0.022 C 
ATOM     21  C   UNL d   1      53.039  34.255  55.154  0.00  0.00     0.002 C 
ATOM     22  C   UNL d   1      54.080  34.796  54.331  0.00  0.00     0.002 C 
ENDBRANCH   9  20
ENDBRANCH   1   9
BRANCH   3  23
ATOM     23  C   UNL d   1      53.317  29.995  54.022  0.00  0.00     0.148 A 
ATOM     24  N   UNL d   1      52.897  29.547  53.471  0.00  0.00    -0.227 NA
ATOM     25  C   UNL d   1      52.786  28.741  53.600  0.00  0.00     0.101 A 
ATOM     26  C   UNL d   1      53.089  28.379  54.272  0.00  0.00     0.021 A 
ATOM     27  C   UNL d   1      53.513  28.836  54.826  0.00  0.00     0.005 A 
ATOM     28  C   UNL d   1      53.625  29.641  54.700  0.00  0.00     0.037 A 
ENDBRANCH   3  23
TORSDOF 5
ENDMDL
MODEL 3
REMARK VINA RESULT:      -6.0      1.241      2.686
REMARK  5 active torsions:
REMARK  status: ('A' for Active; 'I' for Inactive)
REMARK       I    between atoms: N_3  and  C_1 
REMARK    1  A    between atoms: C_4  and  C_1 
REMARK    2  A    between atoms: N_2  and  C_4 
REMARK       I    between atoms: C_5  and  N_2 
REMARK    3  A    between atoms: C_18  and  C_4 
REMARK    4  A    between atoms: C_9  and  C_5 
REMARK    5  A    between atoms: C_7  and  N_6 
ROOT
ATOM      1  C   UNL d   1      52.167  33.009  52.459  0.00  0.00     0.283 C 
ATOM      2  N   UNL d   1      51.499  33.483  52.558  0.00  0.00    -0.268 N 
ATOM      3  N   UNL d   1      50.168  34.426  52.754  0.00  0.00    -0.286 N 
ATOM      4  O   UNL d   1      52.590  33.026  51.750  0.00  0.00    -0.265 OA
ATOM      5  C   UNL d   1      51.081  33.461  53.267  0.00  0.00     0.102 A 
ATOM      6  C   UNL d   1      51.255  33.975  51.942  0.00  0.00     0.102 A 
ATOM      7  C   UNL d   1      50.584  34.450  52.043  0.00  0.00     0.101 A 
ATOM      8  C   UNL d   1      50.415  33.936  53.359  0.00  0.00     0.101 A 
ENDROOT
BRANCH   1   9
ATOM      9  C   UNL d   1      52.410  32.517  53.074  0.00  0.00     0.141 C 
BRANCH   9  10
ATOM     10  N   UNL d   1      52.858  32.827  53.702  0.00  0.00    -0.203 NA
ATOM     11  C   UNL d   1      53.674  32.732  53.708  0.00  0.00     0.279 C 
ATOM     12  O   UNL d   1      54.048  32.332  53.097  0.00  0.00    -0.265 OA
BRANCH  11  13
ATOM     13  C   UNL d   1      54.117  33.041  54.332  0.00  0.00     0.058 A 
ATOM     14  C   UNL d   1      53.976  32.794  55.102  0.00  0.00     0.005 A 
ATOM     15  C   UNL d   1      54.411  33.097  55.726  0.00  0.00     0.000 A 
ATOM     16  C   UNL d   1      54.999  33.657  55.580  0.00  0.00     0.000 A 
ATOM     17  C   UNL d   1      55.153  33.915  54.808  0.00  0.00     0.000 A 
ATOM     18  C   UNL d   1      55.447  33.971  56.203  0.00  0.00     0.000 C 
ATOM     19  C   UNL d   1      54.704  33.601  54.185  0.00  0.00     0.005 A 
ENDBRANCH  11  13
ENDBRANCH   9  10
BRANCH   9  20
ATOM     20  C   UNL d   1      52.215  31.720  53.076  0.00  0.00     0.022 C 
ATOM     21  C   UNL d   1      52.561  31.215  52.512  0.00  0.00     0.002 C 
ATOM     22  C   UNL d   1      51.682  31.418  53.626  0.00  0.00     0.002 C 
ENDBRANCH   9  20
ENDBRANCH   1   9
BRANCH   3  23
ATOM     23  C   UNL d   1      49.499  34.901  52.851  0.00  0.00     0.148 A 
ATOM     24  N   UNL d   1      49.415  35.361  53.531  0.00  0.00    -0.227 NA
ATOM     25  C   UNL d   1      48.746  35.833  53.625  0.00  0.00     0.101 A 
ATOM     26  C   UNL d   1      48.163  35.851  53.047  0.00  0.00     0.021 A 
ATOM     27  C   UNL d   1      48.252  35.385  52.361  0.00  0.00     0.005 A 
ATOM     28  C   UNL d   1      48.919  34.913  52.266  0.00  0.00     0.037 A 
ENDBRANCH   3  23
TORSDOF 5
ENDMDL
