MODEL 1
REMARK VINA RESULT:      82.3      0.000      0.000
REMARK  5 active torsions:
REMARK  status: ('A' for Active; 'I' for Inactive)
REMARK    1  A    between atoms: C_10  and  N_1 
REMARK    2  A    between atoms: C_7  and  C_2 
REMARK    3  A    between atoms: C_3  and  C_11 
REMARK    4  A    between atoms: O_14  and  C_10 
REMARK    5  A    between atoms: C_11  and  O_14 
ROOT
ATOM      1  C   UNL d   1     -48.166  29.314  34.586  0.00  0.00     0.305 C 
ATOM      2  O   UNL d   1     -47.655  29.467  33.951  0.00  0.00    -0.259 OA
ENDROOT
BRANCH   1   3
ATOM      3  C   UNL d   1     -48.014  29.638  35.325  0.00  0.00     0.108 A 
ATOM      4  C   UNL d   1     -47.862  30.437  35.487  0.00  0.00     0.118 A 
ATOM      5  N   UNL d   1     -47.740  30.523  36.292  0.00  0.00    -0.126 NA
ATOM      6  O   UNL d   1     -47.819  29.767  36.633  0.00  0.00    -0.211 OA
ATOM      7  C   UNL d   1     -47.987  29.228  36.034  0.00  0.00     0.132 A 
ATOM      8  C   UNL d   1     -48.105  28.425  36.134  0.00  0.00     0.029 C 
BRANCH   4   9
ATOM      9  C   UNL d   1     -47.835  31.047  34.934  0.00  0.00     0.058 A 
ATOM     10  C   UNL d   1     -48.523  31.297  34.561  0.00  0.00     0.061 A 
ATOM     11 CL   UNL d   1     -49.384  31.207  34.465  0.00  0.00    -0.082 Cl
ATOM     12  C   UNL d   1     -48.502  31.904  34.010  0.00  0.00     0.012 A 
ATOM     13  C   UNL d   1     -47.785  32.262  33.831  0.00  0.00     0.003 A 
ATOM     14  C   UNL d   1     -47.080  32.013  34.207  0.00  0.00     0.030 A 
ATOM     15  C   UNL d   1     -47.114  31.409  34.753  0.00  0.00     0.142 A 
ATOM     16  F   UNL d   1     -46.430  31.152  35.130  0.00  0.00    -0.204 F 
ENDBRANCH   4   9
ENDBRANCH   1   3
BRANCH   1  17
ATOM     17  O   UNL d   1     -48.833  28.830  34.472  0.00  0.00    -0.252 OA
BRANCH  17  18
ATOM     18  C   UNL d   1     -48.964  28.476  33.733  0.00  0.00     0.216 C 
BRANCH  18  19
ATOM     19  N   UNL d   1     -49.560  27.908  33.649  0.00  0.00    -0.218 N 
ATOM     20  C   UNL d   1     -49.466  27.096  33.708  0.00  0.00     0.269 A 
ATOM     21  C   UNL d   1     -50.200  26.738  33.587  0.00  0.00     0.061 A 
ATOM     22  O   UNL d   1     -48.752  26.699  33.863  0.00  0.00    -0.267 OA
ATOM     23  C   UNL d   1     -50.441  25.948  33.581  0.00  0.00     0.005 A 
ATOM     24  C   UNL d   1     -50.756  27.342  33.451  0.00  0.00     0.061 A 
ATOM     25  C   UNL d   1     -51.228  25.759  33.442  0.00  0.00     0.000 A 
ATOM     26  C   UNL d   1     -51.784  26.363  33.305  0.00  0.00     0.000 A 
ATOM     27  C   UNL d   1     -51.547  27.150  33.310  0.00  0.00     0.005 A 
ATOM     28  C   UNL d   1     -50.364  28.072  33.488  0.00  0.00     0.269 A 
ATOM     29  O   UNL d   1     -50.699  28.814  33.387  0.00  0.00    -0.267 OA
ENDBRANCH  18  19
ENDBRANCH  17  18
ENDBRANCH   1  17
TORSDOF 5
ENDMDL
