MODEL 1
REMARK VINA RESULT:      71.9      0.000      0.000
REMARK  5 active torsions:
REMARK  status: ('A' for Active; 'I' for Inactive)
REMARK    1  A    between atoms: C_2  and  S_1 
REMARK    2  A    between atoms: N_3  and  S_1 
REMARK    3  A    between atoms: C_5  and  C_6 
REMARK       I    between atoms: N_10  and  C_5 
REMARK    4  A    between atoms: C_25  and  N_10 
REMARK    5  A    between atoms: C_24  and  C_25 
ROOT
ATOM      1  C   UNL d   1      59.078  49.439  50.840  0.00  0.00     0.104 A 
ATOM      2  C   UNL d   1      59.752  49.293  50.394  0.00  0.00     0.018 A 
ATOM      3  C   UNL d   1      60.486  49.226  50.766  0.00  0.00     0.059 A 
ATOM      4  C   UNL d   1      59.129  49.520  51.662  0.00  0.00     0.012 A 
ATOM      5  C   UNL d   1      60.546  49.305  51.587  0.00  0.00     0.005 A 
ATOM      6  C   UNL d   1      59.863  49.453  52.034  0.00  0.00     0.001 A 
ATOM      7  C   UNL d   1      58.440  49.669  52.115  0.00  0.00     0.001 C 
ENDROOT
BRANCH   3   8
ATOM      8  C   UNL d   1      61.162  49.080  50.325  0.00  0.00     0.279 C 
ATOM      9  N   UNL d   1      61.347  48.305  50.101  0.00  0.00    -0.206 NA
ATOM     10  O   UNL d   1      61.650  49.701  50.107  0.00  0.00    -0.265 OA
BRANCH   9  11
ATOM     11  C   UNL d   1      60.860  47.685  50.318  0.00  0.00     0.102 C 
BRANCH  11  12
ATOM     12  C   UNL d   1      61.098  46.895  50.172  0.00  0.00     0.021 A 
ATOM     13  C   UNL d   1      61.002  46.308  50.746  0.00  0.00     0.028 A 
ATOM     14  C   UNL d   1      61.240  45.540  50.587  0.00  0.00     0.119 A 
ATOM     15  O   UNL d   1      61.217  44.845  51.041  0.00  0.00    -0.300 OA
ATOM     16  C   UNL d   1      61.578  45.347  49.854  0.00  0.00     0.119 A 
ATOM     17  C   UNL d   1      61.534  44.239  50.595  0.00  0.00     0.304 A 
ATOM     18  O   UNL d   1      61.758  44.550  49.859  0.00  0.00    -0.300 OA
ATOM     19  C   UNL d   1      61.671  45.937  49.288  0.00  0.00     0.026 A 
ATOM     20  C   UNL d   1      61.432  46.705  49.447  0.00  0.00     0.004 A 
ENDBRANCH  11  12
ENDBRANCH   9  11
ENDBRANCH   3   8
BRANCH   1  21
ATOM     21  S   UNL d   1      58.346  49.505  50.459  0.00  0.00     0.272 S 
ATOM     22  O   UNL d   1      57.964  49.391  51.182  0.00  0.00    -0.200 OA
ATOM     23  O   UNL d   1      58.732  49.618  49.740  0.00  0.00    -0.200 OA
BRANCH  21  24
ATOM     24  N   UNL d   1      57.618  49.570  50.083  0.00  0.00    -0.225 N 
ATOM     25  C   UNL d   1      56.932  49.620  50.526  0.00  0.00     0.118 A 
ATOM     26  C   UNL d   1      56.197  49.686  50.157  0.00  0.00     0.142 A 
ATOM     27  O   UNL d   1      56.159  49.701  49.329  0.00  0.00    -0.300 OA
ATOM     28  C   UNL d   1      56.845  49.651  48.885  0.00  0.00     0.142 A 
ATOM     29  C   UNL d   1      57.580  49.585  49.255  0.00  0.00     0.118 A 
ENDBRANCH  21  24
ENDBRANCH   1  21
TORSDOF 5
ENDMDL
MODEL 2
REMARK VINA RESULT:      72.5      1.347      4.902
REMARK  5 active torsions:
REMARK  status: ('A' for Active; 'I' for Inactive)
REMARK    1  A    between atoms: C_2  and  S_1 
REMARK    2  A    between atoms: N_3  and  S_1 
REMARK    3  A    between atoms: C_5  and  C_6 
REMARK       I    between atoms: N_10  and  C_5 
REMARK    4  A    between atoms: C_25  and  N_10 
REMARK    5  A    between atoms: C_24  and  C_25 
ROOT
ATOM      1  C   UNL d   1      61.288  48.093  50.396  0.00  0.00     0.104 A 
ATOM      2  C   UNL d   1      60.783  48.354  50.989  0.00  0.00     0.018 A 
ATOM      3  C   UNL d   1      60.726  49.159  51.159  0.00  0.00     0.059 A 
ATOM      4  C   UNL d   1      61.743  48.636  49.965  0.00  0.00     0.012 A 
ATOM      5  C   UNL d   1      61.177  49.707  50.734  0.00  0.00     0.005 A 
ATOM      6  C   UNL d   1      61.686  49.441  50.135  0.00  0.00     0.001 A 
ATOM      7  C   UNL d   1      62.258  48.368  49.360  0.00  0.00     0.001 C 
ENDROOT
BRANCH   3   8
ATOM      8  C   UNL d   1      60.223  49.423  51.750  0.00  0.00     0.279 C 
ATOM      9  N   UNL d   1      59.468  49.698  51.555  0.00  0.00    -0.206 NA
ATOM     10  O   UNL d   1      60.470  49.413  52.531  0.00  0.00    -0.265 OA
BRANCH   9  11
ATOM     11  C   UNL d   1      59.221  49.707  50.774  0.00  0.00     0.102 C 
BRANCH  11  12
ATOM     12  C   UNL d   1      58.402  49.703  50.595  0.00  0.00     0.021 A 
ATOM     13  C   UNL d   1      58.139  49.694  49.811  0.00  0.00     0.028 A 
ATOM     14  C   UNL d   1      57.335  49.689  49.652  0.00  0.00     0.119 A 
ATOM     15  O   UNL d   1      56.908  49.681  48.939  0.00  0.00    -0.300 OA
ATOM     16  C   UNL d   1      56.782  49.693  50.272  0.00  0.00     0.119 A 
ATOM     17  C   UNL d   1      56.112  49.680  49.119  0.00  0.00     0.304 A 
ATOM     18  O   UNL d   1      56.033  49.687  49.946  0.00  0.00    -0.300 OA
ATOM     19  C   UNL d   1      57.054  49.702  51.049  0.00  0.00     0.026 A 
ATOM     20  C   UNL d   1      57.858  49.706  51.208  0.00  0.00     0.004 A 
ENDBRANCH  11  12
ENDBRANCH   9  11
ENDBRANCH   3   8
BRANCH   1  21
ATOM     21  S   UNL d   1      61.340  47.284  50.232  0.00  0.00     0.272 S 
ATOM     22  O   UNL d   1      61.812  47.450  49.576  0.00  0.00    -0.200 OA
ATOM     23  O   UNL d   1      60.867  47.123  50.888  0.00  0.00    -0.200 OA
BRANCH  21  24
ATOM     24  N   UNL d   1      61.391  46.480  50.068  0.00  0.00    -0.225 N 
ATOM     25  C   UNL d   1      61.769  46.226  49.388  0.00  0.00     0.118 A 
ATOM     26  C   UNL d   1      61.826  45.420  49.215  0.00  0.00     0.142 A 
ATOM     27  O   UNL d   1      61.495  44.868  49.738  0.00  0.00    -0.300 OA
ATOM     28  C   UNL d   1      61.117  45.123  50.418  0.00  0.00     0.142 A 
ATOM     29  C   UNL d   1      61.060  45.928  50.590  0.00  0.00     0.118 A 
ENDBRANCH  21  24
ENDBRANCH   1  21
TORSDOF 5
ENDMDL
