MODEL 1
REMARK VINA RESULT:       5.9      0.000      0.000
REMARK  6 active torsions:
REMARK  status: ('A' for Active; 'I' for Inactive)
REMARK    1  A    between atoms: N_8  and  C_2 
REMARK    2  A    between atoms: N_7  and  C_3 
REMARK    3  A    between atoms: N_10  and  C_6 
REMARK    4  A    between atoms: C_9  and  N_11 
REMARK    5  A    between atoms: N_13  and  C_9 
REMARK    6  A    between atoms: N_11  and  N_10 
ROOT
ATOM      1  N   UNL d   1     -41.890-122.814 -51.689  0.00  0.00     0.133 NA
ATOM      2  C   UNL d   1     -41.885-122.442 -50.991  0.00  0.00     0.766 A 
ATOM      3  C   UNL d   1     -41.649-122.446 -52.374  0.00  0.00     0.766 A 
ATOM      4  N   UNL d   1     -41.393-121.663 -52.333  0.00  0.00     0.135 NA
ATOM      5  N   UNL d   1     -41.617-121.624 -50.948  0.00  0.00     0.135 NA
ATOM      6  C   UNL d   1     -41.374-121.243 -51.620  0.00  0.00     0.798 A 
ENDROOT
BRANCH   2   7
ATOM      7  N   UNL d   1     -42.126-122.810 -50.306  0.00  0.00    -0.132 N 
ATOM      8  C   UNL d   1     -42.902-123.088 -50.259  0.00  0.00     0.125 A 
ATOM      9  C   UNL d   1     -43.164-123.464 -49.573  0.00  0.00     0.142 A 
ATOM     10  O   UNL d   1     -42.652-123.561 -48.933  0.00  0.00    -0.300 OA
ATOM     11  C   UNL d   1     -41.877-123.283 -48.980  0.00  0.00     0.142 A 
ATOM     12  C   UNL d   1     -41.613-122.907 -49.666  0.00  0.00     0.125 A 
ENDBRANCH   2   7
BRANCH   3  13
ATOM     13  N   UNL d   1     -41.650-122.818 -53.099  0.00  0.00    -0.132 N 
ATOM     14  C   UNL d   1     -41.129-123.415 -53.288  0.00  0.00     0.125 A 
ATOM     15  C   UNL d   1     -41.130-123.787 -54.013  0.00  0.00     0.142 A 
ATOM     16  O   UNL d   1     -41.682-123.550 -54.578  0.00  0.00    -0.300 OA
ATOM     17  C   UNL d   1     -42.233-122.940 -54.419  0.00  0.00     0.142 A 
ATOM     18  C   UNL d   1     -42.202-122.580 -53.664  0.00  0.00     0.125 A 
ENDBRANCH   3  13
BRANCH   6  19
ATOM     19  N   UNL d   1     -41.123-120.477 -51.579  0.00  0.00     0.050 NA
BRANCH  19  20
ATOM     20  N   UNL d   1     -41.137-119.998 -52.235  0.00  0.00    -0.101 NA
BRANCH  20  21
ATOM     21  C   UNL d   1     -41.223-119.181 -52.161  0.00  0.00     0.241 C 
ATOM     22  S   UNL d   1     -41.204-118.820 -51.436  0.00  0.00    -0.035 SA
BRANCH  21  23
ATOM     23  N   UNL d   1     -41.329-118.719 -52.834  0.00  0.00    -0.213 NA
ATOM     24  C   UNL d   1     -41.332-117.896 -52.784  0.00  0.00     0.122 C 
ENDBRANCH  21  23
ENDBRANCH  20  21
ENDBRANCH  19  20
ENDBRANCH   6  19
TORSDOF 6
ENDMDL
MODEL 2
REMARK VINA RESULT:       5.9      1.813      3.622
REMARK  6 active torsions:
REMARK  status: ('A' for Active; 'I' for Inactive)
REMARK    1  A    between atoms: N_8  and  C_2 
REMARK    2  A    between atoms: N_7  and  C_3 
REMARK    3  A    between atoms: N_10  and  C_6 
REMARK    4  A    between atoms: C_9  and  N_11 
REMARK    5  A    between atoms: N_13  and  C_9 
REMARK    6  A    between atoms: N_11  and  N_10 
ROOT
ATOM      1  N   UNL d   1     -41.609-121.233 -52.957  0.00  0.00     0.133 NA
ATOM      2  C   UNL d   1     -41.425-121.027 -52.215  0.00  0.00     0.766 A 
ATOM      3  C   UNL d   1     -41.708-122.012 -53.174  0.00  0.00     0.766 A 
ATOM      4  N   UNL d   1     -41.614-122.597 -52.600  0.00  0.00     0.135 NA
ATOM      5  N   UNL d   1     -41.327-121.639 -51.616  0.00  0.00     0.135 NA
ATOM      6  C   UNL d   1     -41.422-122.417 -51.816  0.00  0.00     0.798 A 
ENDROOT
BRANCH   2   7
ATOM      7  N   UNL d   1     -41.325-120.248 -51.998  0.00  0.00    -0.132 N 
ATOM      8  C   UNL d   1     -41.277-119.676 -52.590  0.00  0.00     0.125 A 
ATOM      9  C   UNL d   1     -41.175-118.882 -52.388  0.00  0.00     0.142 A 
ATOM     10  O   UNL d   1     -41.123-118.660 -51.595  0.00  0.00    -0.300 OA
ATOM     11  C   UNL d   1     -41.172-119.233 -51.003  0.00  0.00     0.142 A 
ATOM     12  C   UNL d   1     -41.273-120.027 -51.204  0.00  0.00     0.125 A 
ENDBRANCH   2   7
BRANCH   3  13
ATOM     13  N   UNL d   1     -41.897-122.236 -53.934  0.00  0.00    -0.132 N 
ATOM     14  C   UNL d   1     -42.450-121.844 -54.385  0.00  0.00     0.125 A 
ATOM     15  C   UNL d   1     -42.639-122.069 -55.145  0.00  0.00     0.142 A 
ATOM     16  O   UNL d   1     -42.255-122.722 -55.471  0.00  0.00    -0.300 OA
ATOM     17  C   UNL d   1     -41.681-123.150 -55.037  0.00  0.00     0.142 A 
ATOM     18  C   UNL d   1     -41.513-122.890 -54.259  0.00  0.00     0.125 A 
ENDBRANCH   3  13
BRANCH   6  19
ATOM     19  N   UNL d   1     -41.330-122.990 -51.255  0.00  0.00     0.050 NA
BRANCH  19  20
ATOM     20  N   UNL d   1     -41.971-123.290 -50.856  0.00  0.00    -0.101 NA
BRANCH  20  21
ATOM     21  C   UNL d   1     -41.892-123.587 -50.090  0.00  0.00     0.241 C 
ATOM     22  S   UNL d   1     -41.166-123.778 -49.785  0.00  0.00    -0.035 SA
BRANCH  21  23
ATOM     23  N   UNL d   1     -42.561-123.693 -49.623  0.00  0.00    -0.213 NA
ATOM     24  C   UNL d   1     -42.503-123.701 -48.800  0.00  0.00     0.122 C 
ENDBRANCH  21  23
ENDBRANCH  20  21
ENDBRANCH  19  20
ENDBRANCH   6  19
TORSDOF 6
ENDMDL
