MODEL 1
REMARK VINA RESULT:      29.4      0.000      0.000
REMARK  4 active torsions:
REMARK  status: ('A' for Active; 'I' for Inactive)
REMARK    1  A    between atoms: C_2  and  S_1 
REMARK    2  A    between atoms: N_4  and  S_1 
REMARK    3  A    between atoms: C_16  and  N_4 
REMARK    4  A    between atoms: C_17  and  C_16 
ROOT
ATOM      1  S   UNL d   1     -57.048 -98.769 -44.250  0.00  0.00     0.287 S 
ATOM      2  O   UNL d   1     -56.848 -98.781 -45.051  0.00  0.00    -0.198 OA
ATOM      3  O   UNL d   1     -57.241 -98.756 -43.447  0.00  0.00    -0.198 OA
ENDROOT
BRANCH   1   4
ATOM      4  C   UNL d   1     -57.849 -98.782 -44.450  0.00  0.00     0.123 A 
ATOM      5  C   UNL d   1     -58.430 -98.779 -43.859  0.00  0.00     0.094 A 
ATOM      6  N   UNL d   1     -58.204 -98.763 -43.066  0.00  0.00    -0.243 NA
ATOM      7  C   UNL d   1     -59.219 -98.793 -44.048  0.00  0.00     0.018 A 
ATOM      8  C   UNL d   1     -58.764 -98.760 -42.484  0.00  0.00     0.099 A 
ATOM      9  C   UNL d   1     -59.564 -98.774 -42.683  0.00  0.00     0.021 A 
ATOM     10  C   UNL d   1     -59.807 -98.790 -43.461  0.00  0.00     0.003 A 
ATOM     11  C   UNL d   1     -59.451 -98.809 -44.845  0.00  0.00     0.002 A 
ATOM     12  C   UNL d   1     -58.885 -98.812 -45.423  0.00  0.00     0.001 A 
ATOM     13  C   UNL d   1     -58.084 -98.798 -45.224  0.00  0.00     0.015 A 
ENDBRANCH   1   4
BRANCH   1  14
ATOM     14  N   UNL d   1     -56.244 -98.755 -44.057  0.00  0.00    -0.157 NA
BRANCH  14  15
ATOM     15  C   UNL d   1     -55.697 -99.147 -44.544  0.00  0.00     0.112 C 
BRANCH  15  16
ATOM     16  C   UNL d   1     -55.467 -99.908 -44.378  0.00  0.00     0.022 A 
ATOM     17  C   UNL d   1     -55.338-100.466 -44.985  0.00  0.00     0.028 A 
ATOM     18  C   UNL d   1     -55.109-101.219 -44.802  0.00  0.00     0.119 A 
ATOM     19  O   UNL d   1     -54.948-101.862 -45.265  0.00  0.00    -0.300 OA
ATOM     20  C   UNL d   1     -55.001-101.444 -44.001  0.00  0.00     0.119 A 
ATOM     21  C   UNL d   1     -54.737-102.496 -44.766  0.00  0.00     0.304 A 
ATOM     22  O   UNL d   1     -54.775-102.222 -43.996  0.00  0.00    -0.300 OA
ATOM     23  C   UNL d   1     -55.126-100.907 -43.421  0.00  0.00     0.026 A 
ATOM     24  C   UNL d   1     -55.363-100.124 -43.607  0.00  0.00     0.004 A 
ENDBRANCH  15  16
ENDBRANCH  14  15
ENDBRANCH   1  14
TORSDOF 4
ENDMDL
