MODEL 1
REMARK VINA RESULT:     -11.1      0.000      0.000
REMARK  4 active torsions:
REMARK  status: ('A' for Active; 'I' for Inactive)
REMARK    1  A    between atoms: C_4  and  C_1 
REMARK    2  A    between atoms: C_12  and  N_2 
REMARK    3  A    between atoms: C_11  and  N_5 
REMARK    4  A    between atoms: C_14  and  C_12 
ROOT
ATOM      1  C   UNL d   1      52.593  32.081  53.239  0.00  0.00     0.149 A 
ATOM      2  N   UNL d   1      53.131  32.722  53.298  0.00  0.00    -0.289 N 
ATOM      3  N   UNL d   1      51.833  32.391  53.140  0.00  0.00    -0.227 NA
ATOM      4  C   UNL d   1      52.689  33.424  53.233  0.00  0.00     0.083 A 
ATOM      5  C   UNL d   1      51.891  33.226  53.136  0.00  0.00     0.099 A 
ATOM      6  C   UNL d   1      52.917  34.226  53.250  0.00  0.00     0.019 A 
ATOM      7  C   UNL d   1      51.321  33.814  53.056  0.00  0.00     0.021 A 
ATOM      8  C   UNL d   1      52.338  34.814  53.170  0.00  0.00     0.002 A 
ATOM      9  C   UNL d   1      51.542  34.609  53.073  0.00  0.00     0.002 A 
ENDROOT
BRANCH   1  10
ATOM     10  C   UNL d   1      52.795  31.283  53.276  0.00  0.00     0.057 A 
ATOM     11  C   UNL d   1      52.916  30.842  53.958  0.00  0.00     0.081 A 
ATOM     12  N   UNL d   1      53.107  30.068  53.731  0.00  0.00    -0.298 N 
ATOM     13  C   UNL d   1      53.104  30.034  52.908  0.00  0.00     0.261 A 
ATOM     14  C   UNL d   1      52.911  30.785  52.623  0.00  0.00     0.065 A 
ATOM     15  O   UNL d   1      53.264  29.371  52.450  0.00  0.00    -0.267 OA
BRANCH  12  16
ATOM     16  C   UNL d   1      53.273  29.441  54.242  0.00  0.00     0.071 C 
ATOM     17  C   UNL d   1      53.315  28.842  54.798  0.00  0.00     0.023 C 
ATOM     18  C   UNL d   1      52.714  29.205  54.794  0.00  0.00     0.023 C 
ATOM     19  C   UNL d   1      54.001  29.057  54.192  0.00  0.00     0.023 C 
ENDBRANCH  12  16
ENDBRANCH   1  10
BRANCH   2  20
ATOM     20  C   UNL d   1      53.942  32.665  53.400  0.00  0.00     0.082 C 
BRANCH  20  21
ATOM     21  C   UNL d   1      54.298  32.972  54.082  0.00  0.00     0.018 A 
ATOM     22  C   UNL d   1      54.961  33.459  54.013  0.00  0.00     0.002 A 
ATOM     23  C   UNL d   1      55.317  33.766  54.687  0.00  0.00     0.000 A 
ATOM     24  C   UNL d   1      55.012  33.585  55.430  0.00  0.00     0.000 A 
ATOM     25  C   UNL d   1      54.347  33.096  55.494  0.00  0.00     0.000 A 
ATOM     26  C   UNL d   1      53.997  32.794  54.822  0.00  0.00     0.002 A 
ENDBRANCH  20  21
ENDBRANCH   2  20
TORSDOF 4
ENDMDL
MODEL 2
REMARK VINA RESULT:     -10.6      1.433      3.707
REMARK  4 active torsions:
REMARK  status: ('A' for Active; 'I' for Inactive)
REMARK    1  A    between atoms: C_4  and  C_1 
REMARK    2  A    between atoms: C_12  and  N_2 
REMARK    3  A    between atoms: C_11  and  N_5 
REMARK    4  A    between atoms: C_14  and  C_12 
ROOT
ATOM      1  C   UNL d   1      52.334  32.210  52.975  0.00  0.00     0.149 A 
ATOM      2  N   UNL d   1      53.146  32.157  53.180  0.00  0.00    -0.289 N 
ATOM      3  N   UNL d   1      52.010  31.449  53.010  0.00  0.00    -0.227 NA
ATOM      4  C   UNL d   1      53.311  31.357  53.340  0.00  0.00     0.083 A 
ATOM      5  C   UNL d   1      52.616  30.918  53.237  0.00  0.00     0.099 A 
ATOM      6  C   UNL d   1      54.013  30.971  53.568  0.00  0.00     0.019 A 
ATOM      7  C   UNL d   1      52.613  30.104  53.358  0.00  0.00     0.021 A 
ATOM      8  C   UNL d   1      54.005  30.150  53.689  0.00  0.00     0.002 A 
ATOM      9  C   UNL d   1      53.306  29.718  53.584  0.00  0.00     0.002 A 
ENDROOT
BRANCH   1  10
ATOM     10  C   UNL d   1      51.936  32.903  52.775  0.00  0.00     0.057 A 
ATOM     11  C   UNL d   1      51.261  33.198  53.139  0.00  0.00     0.081 A 
ATOM     12  N   UNL d   1      51.055  33.904  52.757  0.00  0.00    -0.298 N 
ATOM     13  C   UNL d   1      51.604  34.043  52.158  0.00  0.00     0.261 A 
ATOM     14  C   UNL d   1      52.150  33.424  52.168  0.00  0.00     0.065 A 
ATOM     15  O   UNL d   1      51.608  34.682  51.643  0.00  0.00    -0.267 OA
BRANCH  12  16
ATOM     16  C   UNL d   1      50.410  34.385  52.945  0.00  0.00     0.071 C 
ATOM     17  C   UNL d   1      49.717  34.812  53.021  0.00  0.00     0.023 C 
ATOM     18  C   UNL d   1      49.749  34.390  52.460  0.00  0.00     0.023 C 
ATOM     19  C   UNL d   1      50.439  34.857  53.620  0.00  0.00     0.023 C 
ENDBRANCH  12  16
ENDBRANCH   1  10
BRANCH   2  20
ATOM     20  C   UNL d   1      53.677  32.780  53.217  0.00  0.00     0.082 C 
BRANCH  20  21
ATOM     21  C   UNL d   1      54.016  32.996  53.941  0.00  0.00     0.018 A 
ATOM     22  C   UNL d   1      54.830  33.126  53.988  0.00  0.00     0.002 A 
ATOM     23  C   UNL d   1      55.170  33.342  54.705  0.00  0.00     0.000 A 
ATOM     24  C   UNL d   1      54.697  33.427  55.374  0.00  0.00     0.000 A 
ATOM     25  C   UNL d   1      53.882  33.295  55.321  0.00  0.00     0.000 A 
ATOM     26  C   UNL d   1      53.549  33.081  54.607  0.00  0.00     0.002 A 
ENDBRANCH  20  21
ENDBRANCH   2  20
TORSDOF 4
ENDMDL
MODEL 3
REMARK VINA RESULT:     -10.3      1.111      2.538
REMARK  4 active torsions:
REMARK  status: ('A' for Active; 'I' for Inactive)
REMARK    1  A    between atoms: C_4  and  C_1 
REMARK    2  A    between atoms: C_12  and  N_2 
REMARK    3  A    between atoms: C_11  and  N_5 
REMARK    4  A    between atoms: C_14  and  C_12 
ROOT
ATOM      1  C   UNL d   1      53.506  32.925  54.067  0.00  0.00     0.149 A 
ATOM      2  N   UNL d   1      53.122  33.527  53.626  0.00  0.00    -0.289 N 
ATOM      3  N   UNL d   1      53.776  33.256  54.775  0.00  0.00    -0.227 NA
ATOM      4  C   UNL d   1      53.162  34.227  54.074  0.00  0.00     0.083 A 
ATOM      5  C   UNL d   1      53.562  34.066  54.781  0.00  0.00     0.099 A 
ATOM      6  C   UNL d   1      52.881  34.997  53.925  0.00  0.00     0.019 A 
ATOM      7  C   UNL d   1      53.685  34.660  55.337  0.00  0.00     0.021 A 
ATOM      8  C   UNL d   1      53.007  35.592  54.489  0.00  0.00     0.002 A 
ATOM      9  C   UNL d   1      53.409  35.424  55.193  0.00  0.00     0.002 A 
ENDROOT
BRANCH   1  10
ATOM     10  C   UNL d   1      53.595  32.141  53.828  0.00  0.00     0.057 A 
ATOM     11  C   UNL d   1      53.137  31.504  54.072  0.00  0.00     0.081 A 
ATOM     12  N   UNL d   1      53.424  30.824  53.693  0.00  0.00    -0.298 N 
ATOM     13  C   UNL d   1      54.058  31.045  53.216  0.00  0.00     0.261 A 
ATOM     14  C   UNL d   1      54.166  31.860  53.298  0.00  0.00     0.065 A 
ATOM     15  O   UNL d   1      54.505  30.545  52.742  0.00  0.00    -0.267 OA
BRANCH  12  16
ATOM     16  C   UNL d   1      53.124  30.060  53.779  0.00  0.00     0.071 C 
ATOM     17  C   UNL d   1      52.903  29.297  53.974  0.00  0.00     0.023 C 
ATOM     18  C   UNL d   1      53.360  29.598  54.414  0.00  0.00     0.023 C 
ATOM     19  C   UNL d   1      52.590  29.768  53.223  0.00  0.00     0.023 C 
ENDBRANCH  12  16
ENDBRANCH   1  10
BRANCH   2  20
ATOM     20  C   UNL d   1      52.773  33.440  52.890  0.00  0.00     0.082 C 
BRANCH  20  21
ATOM     21  C   UNL d   1      51.968  33.606  52.789  0.00  0.00     0.018 A 
ATOM     22  C   UNL d   1      51.732  34.139  52.203  0.00  0.00     0.002 A 
ATOM     23  C   UNL d   1      50.934  34.307  52.099  0.00  0.00     0.000 A 
ATOM     24  C   UNL d   1      50.373  33.944  52.580  0.00  0.00     0.000 A 
ATOM     25  C   UNL d   1      50.614  33.411  53.166  0.00  0.00     0.000 A 
ATOM     26  C   UNL d   1      51.408  33.247  53.265  0.00  0.00     0.002 A 
ENDBRANCH  20  21
ENDBRANCH   2  20
TORSDOF 4
ENDMDL
MODEL 4
REMARK VINA RESULT:      -9.8      1.633      4.116
REMARK  4 active torsions:
REMARK  status: ('A' for Active; 'I' for Inactive)
REMARK    1  A    between atoms: C_4  and  C_1 
REMARK    2  A    between atoms: C_12  and  N_2 
REMARK    3  A    between atoms: C_11  and  N_5 
REMARK    4  A    between atoms: C_14  and  C_12 
ROOT
ATOM      1  C   UNL d   1      52.596  33.838  53.521  0.00  0.00     0.149 A 
ATOM      2  N   UNL d   1      53.112  33.182  53.446  0.00  0.00    -0.289 N 
ATOM      3  N   UNL d   1      52.808  34.257  54.202  0.00  0.00    -0.227 NA
ATOM      4  C   UNL d   1      53.640  33.206  54.089  0.00  0.00     0.083 A 
ATOM      5  C   UNL d   1      53.458  33.865  54.556  0.00  0.00     0.099 A 
ATOM      6  C   UNL d   1      54.270  32.706  54.308  0.00  0.00     0.019 A 
ATOM      7  C   UNL d   1      53.892  34.030  55.235  0.00  0.00     0.021 A 
ATOM      8  C   UNL d   1      54.705  32.877  54.993  0.00  0.00     0.002 A 
ATOM      9  C   UNL d   1      54.517  33.538  55.455  0.00  0.00     0.002 A 
ENDROOT
BRANCH   1  10
ATOM     10  C   UNL d   1      51.984  34.027  53.002  0.00  0.00     0.057 A 
ATOM     11  C   UNL d   1      51.192  34.120  53.197  0.00  0.00     0.081 A 
ATOM     12  N   UNL d   1      50.779  34.308  52.503  0.00  0.00    -0.298 N 
ATOM     13  C   UNL d   1      51.319  34.330  51.881  0.00  0.00     0.261 A 
ATOM     14  C   UNL d   1      52.066  34.157  52.187  0.00  0.00     0.065 A 
ATOM     15  O   UNL d   1      51.147  34.496  51.095  0.00  0.00    -0.267 OA
BRANCH  12  16
ATOM     16  C   UNL d   1      49.968  34.448  52.446  0.00  0.00     0.071 C 
ATOM     17  C   UNL d   1      49.181  34.666  52.494  0.00  0.00     0.023 C 
ATOM     18  C   UNL d   1      49.601  34.953  52.978  0.00  0.00     0.023 C 
ATOM     19  C   UNL d   1      49.532  34.078  51.851  0.00  0.00     0.023 C 
ENDBRANCH  12  16
ENDBRANCH   1  10
BRANCH   2  20
ATOM     20  C   UNL d   1      53.098  32.620  52.849  0.00  0.00     0.082 C 
BRANCH  20  21
ATOM     21  C   UNL d   1      52.945  31.826  53.029  0.00  0.00     0.018 A 
ATOM     22  C   UNL d   1      53.542  31.264  52.930  0.00  0.00     0.002 A 
ATOM     23  C   UNL d   1      53.396  30.475  53.106  0.00  0.00     0.000 A 
ATOM     24  C   UNL d   1      52.654  30.247  53.382  0.00  0.00     0.000 A 
ATOM     25  C   UNL d   1      52.059  30.815  53.480  0.00  0.00     0.000 A 
ATOM     26  C   UNL d   1      52.210  31.597  53.303  0.00  0.00     0.002 A 
ENDBRANCH  20  21
ENDBRANCH   2  20
TORSDOF 4
ENDMDL
