MODEL 1
REMARK VINA RESULT:      -3.2      0.000      0.000
REMARK  0 active torsions:
REMARK  status: ('A' for Active; 'I' for Inactive)
ROOT
ATOM      1  C   UNL d   1      30.915  16.339 -23.909  0.00  0.00     0.094 A 
ATOM      2  C   UNL d   1      31.091  16.927 -24.461  0.00  0.00     0.143 A 
ATOM      3  S   UNL d   1      30.483  17.365 -24.805  0.00  0.00    -0.055 SA
ATOM      4  C   UNL d   1      30.132  16.190 -23.701  0.00  0.00     0.013 A 
ATOM      5  C   UNL d   1      29.698  17.216 -24.596  0.00  0.00     0.086 A 
ATOM      6  C   UNL d   1      29.522  16.628 -24.045  0.00  0.00     0.017 A 
ATOM      7  C   UNL d   1      31.525  15.901 -23.566  0.00  0.00     0.103 C 
ATOM      8  N   UNL d   1      32.129  15.465 -23.224  0.00  0.00    -0.191 NA
ATOM      9  S   UNL d   1      29.084  17.655 -24.941  0.00  0.00    -0.071 SA
ATOM     10  N   UNL d   1      31.870  17.078 -24.670  0.00  0.00    -0.140 N 
ATOM     11  C   UNL d   1      29.957  15.603 -23.150  0.00  0.00     0.001 A 
ATOM     12  C   UNL d   1      28.738  16.479 -23.837  0.00  0.00     0.001 A 
ATOM     13  C   UNL d   1      29.172  15.453 -22.942  0.00  0.00     0.000 A 
ATOM     14  C   UNL d   1      28.563  15.892 -23.286  0.00  0.00     0.000 A 
ENDROOT
TORSDOF 0
ENDMDL
MODEL 2
REMARK VINA RESULT:      -3.0      1.507      2.265
REMARK  0 active torsions:
REMARK  status: ('A' for Active; 'I' for Inactive)
ROOT
ATOM      1  C   UNL d   1      29.499  16.804 -24.175  0.00  0.00     0.094 A 
ATOM      2  C   UNL d   1      29.519  17.425 -24.718  0.00  0.00     0.143 A 
ATOM      3  S   UNL d   1      30.241  17.682 -25.025  0.00  0.00    -0.055 SA
ATOM      4  C   UNL d   1      30.199  16.439 -23.940  0.00  0.00     0.013 A 
ATOM      5  C   UNL d   1      30.942  17.316 -24.789  0.00  0.00     0.086 A 
ATOM      6  C   UNL d   1      30.922  16.695 -24.247  0.00  0.00     0.017 A 
ATOM      7  C   UNL d   1      28.776  16.549 -23.868  0.00  0.00     0.103 C 
ATOM      8  N   UNL d   1      28.060  16.294 -23.562  0.00  0.00    -0.191 NA
ATOM      9  S   UNL d   1      31.670  17.571 -25.097  0.00  0.00    -0.071 SA
ATOM     10  N   UNL d   1      28.824  17.791 -24.954  0.00  0.00    -0.140 N 
ATOM     11  C   UNL d   1      30.179  15.819 -23.398  0.00  0.00     0.001 A 
ATOM     12  C   UNL d   1      31.623  16.330 -24.011  0.00  0.00     0.001 A 
ATOM     13  C   UNL d   1      30.881  15.453 -23.162  0.00  0.00     0.000 A 
ATOM     14  C   UNL d   1      31.603  15.709 -23.469  0.00  0.00     0.000 A 
ENDROOT
TORSDOF 0
ENDMDL
MODEL 3
REMARK VINA RESULT:      -2.9      1.161      1.944
REMARK  0 active torsions:
REMARK  status: ('A' for Active; 'I' for Inactive)
ROOT
ATOM      1  C   UNL d   1      31.160  16.846 -24.232  0.00  0.00     0.094 A 
ATOM      2  C   UNL d   1      31.412  16.250 -23.720  0.00  0.00     0.143 A 
ATOM      3  S   UNL d   1      30.859  15.786 -23.322  0.00  0.00    -0.055 SA
ATOM      4  C   UNL d   1      30.355  16.977 -24.347  0.00  0.00     0.013 A 
ATOM      5  C   UNL d   1      30.052  15.918 -23.437  0.00  0.00     0.086 A 
ATOM      6  C   UNL d   1      29.800  16.513 -23.949  0.00  0.00     0.017 A 
ATOM      7  C   UNL d   1      31.716  17.309 -24.630  0.00  0.00     0.103 C 
ATOM      8  N   UNL d   1      32.265  17.771 -25.025  0.00  0.00    -0.191 NA
ATOM      9  S   UNL d   1      29.492  15.453 -23.038  0.00  0.00    -0.071 SA
ATOM     10  N   UNL d   1      32.214  16.117 -23.604  0.00  0.00    -0.140 N 
ATOM     11  C   UNL d   1      30.103  17.572 -24.859  0.00  0.00     0.001 A 
ATOM     12  C   UNL d   1      28.993  16.645 -24.064  0.00  0.00     0.001 A 
ATOM     13  C   UNL d   1      29.296  17.704 -24.974  0.00  0.00     0.000 A 
ATOM     14  C   UNL d   1      28.741  17.239 -24.576  0.00  0.00     0.000 A 
ENDROOT
TORSDOF 0
ENDMDL
MODEL 4
REMARK VINA RESULT:      -2.4      6.182      6.917
REMARK  0 active torsions:
REMARK  status: ('A' for Active; 'I' for Inactive)
ROOT
ATOM      1  C   UNL d   1      32.881  21.330 -21.654  0.00  0.00     0.094 A 
ATOM      2  C   UNL d   1      32.642  21.384 -20.866  0.00  0.00     0.143 A 
ATOM      3  S   UNL d   1      32.462  22.119 -20.539  0.00  0.00    -0.055 SA
ATOM      4  C   UNL d   1      32.941  22.011 -22.114  0.00  0.00     0.013 A 
ATOM      5  C   UNL d   1      32.521  22.801 -21.000  0.00  0.00     0.086 A 
ATOM      6  C   UNL d   1      32.761  22.747 -21.788  0.00  0.00     0.017 A 
ATOM      7  C   UNL d   1      33.061  20.594 -21.980  0.00  0.00     0.103 C 
ATOM      8  N   UNL d   1      33.240  19.863 -22.306  0.00  0.00    -0.191 NA
ATOM      9  S   UNL d   1      32.341  23.543 -20.673  0.00  0.00    -0.071 SA
ATOM     10  N   UNL d   1      32.582  20.707 -20.406  0.00  0.00    -0.140 N 
ATOM     11  C   UNL d   1      33.180  21.957 -22.901  0.00  0.00     0.001 A 
ATOM     12  C   UNL d   1      32.820  23.430 -22.248  0.00  0.00     0.001 A 
ATOM     13  C   UNL d   1      33.240  22.640 -23.362  0.00  0.00     0.000 A 
ATOM     14  C   UNL d   1      33.060  23.376 -23.034  0.00  0.00     0.000 A 
ENDROOT
TORSDOF 0
ENDMDL
MODEL 5
REMARK VINA RESULT:      -2.3      1.492      2.612
REMARK  0 active torsions:
REMARK  status: ('A' for Active; 'I' for Inactive)
ROOT
ATOM      1  C   UNL d   1      31.951  16.528 -23.660  0.00  0.00     0.094 A 
ATOM      2  C   UNL d   1      31.231  16.128 -23.618  0.00  0.00     0.143 A 
ATOM      3  S   UNL d   1      30.584  16.395 -24.054  0.00  0.00    -0.055 SA
ATOM      4  C   UNL d   1      32.025  17.195 -24.139  0.00  0.00     0.013 A 
ATOM      5  C   UNL d   1      30.658  17.064 -24.534  0.00  0.00     0.086 A 
ATOM      6  C   UNL d   1      31.378  17.463 -24.576  0.00  0.00     0.017 A 
ATOM      7  C   UNL d   1      32.598  16.260 -23.223  0.00  0.00     0.103 C 
ATOM      8  N   UNL d   1      33.241  15.995 -22.790  0.00  0.00    -0.191 NA
ATOM      9  S   UNL d   1      30.009  17.335 -24.974  0.00  0.00    -0.071 SA
ATOM     10  N   UNL d   1      31.155  15.464 -23.143  0.00  0.00    -0.140 N 
ATOM     11  C   UNL d   1      32.744  17.595 -24.181  0.00  0.00     0.001 A 
ATOM     12  C   UNL d   1      31.452  18.131 -25.055  0.00  0.00     0.001 A 
ATOM     13  C   UNL d   1      32.818  18.263 -24.660  0.00  0.00     0.000 A 
ATOM     14  C   UNL d   1      32.171  18.531 -25.097  0.00  0.00     0.000 A 
ENDROOT
TORSDOF 0
ENDMDL
MODEL 6
REMARK VINA RESULT:      -2.3      6.128      6.727
REMARK  0 active torsions:
REMARK  status: ('A' for Active; 'I' for Inactive)
ROOT
ATOM      1  C   UNL d   1      32.840  22.297 -21.062  0.00  0.00     0.094 A 
ATOM      2  C   UNL d   1      32.839  22.945 -21.573  0.00  0.00     0.143 A 
ATOM      3  S   UNL d   1      32.972  22.835 -22.379  0.00  0.00    -0.055 SA
ATOM      4  C   UNL d   1      32.973  21.539 -21.359  0.00  0.00     0.013 A 
ATOM      5  C   UNL d   1      33.105  22.076 -22.676  0.00  0.00     0.086 A 
ATOM      6  C   UNL d   1      33.106  21.428 -22.165  0.00  0.00     0.017 A 
ATOM      7  C   UNL d   1      32.706  22.407 -20.255  0.00  0.00     0.103 C 
ATOM      8  N   UNL d   1      32.575  22.515 -19.454  0.00  0.00    -0.191 NA
ATOM      9  S   UNL d   1      33.239  21.963 -23.487  0.00  0.00    -0.071 SA
ATOM     10  N   UNL d   1      32.707  23.700 -21.281  0.00  0.00    -0.140 N 
ATOM     11  C   UNL d   1      32.973  20.892 -20.849  0.00  0.00     0.001 A 
ATOM     12  C   UNL d   1      33.239  20.670 -22.463  0.00  0.00     0.001 A 
ATOM     13  C   UNL d   1      33.106  20.133 -21.145  0.00  0.00     0.000 A 
ATOM     14  C   UNL d   1      33.239  20.023 -21.953  0.00  0.00     0.000 A 
ENDROOT
TORSDOF 0
ENDMDL
MODEL 7
REMARK VINA RESULT:      -2.2      5.906      6.648
REMARK  0 active torsions:
REMARK  status: ('A' for Active; 'I' for Inactive)
ROOT
ATOM      1  C   UNL d   1      32.942  22.296 -22.568  0.00  0.00     0.094 A 
ATOM      2  C   UNL d   1      32.744  22.948 -22.104  0.00  0.00     0.143 A 
ATOM      3  S   UNL d   1      32.594  22.852 -21.299  0.00  0.00    -0.055 SA
ATOM      4  C   UNL d   1      32.990  21.547 -22.228  0.00  0.00     0.013 A 
ATOM      5  C   UNL d   1      32.643  22.101 -20.958  0.00  0.00     0.086 A 
ATOM      6  C   UNL d   1      32.841  21.449 -21.422  0.00  0.00     0.017 A 
ATOM      7  C   UNL d   1      33.092  22.394 -23.374  0.00  0.00     0.103 C 
ATOM      8  N   UNL d   1      33.241  22.489 -24.174  0.00  0.00    -0.191 NA
ATOM      9  S   UNL d   1      32.493  22.001 -20.147  0.00  0.00    -0.071 SA
ATOM     10  N   UNL d   1      32.695  23.695 -22.440  0.00  0.00    -0.140 N 
ATOM     11  C   UNL d   1      33.188  20.895 -22.692  0.00  0.00     0.001 A 
ATOM     12  C   UNL d   1      32.889  20.699 -21.081  0.00  0.00     0.001 A 
ATOM     13  C   UNL d   1      33.237  20.145 -22.351  0.00  0.00     0.000 A 
ATOM     14  C   UNL d   1      33.087  20.048 -21.545  0.00  0.00     0.000 A 
ENDROOT
TORSDOF 0
ENDMDL
MODEL 8
REMARK VINA RESULT:      -2.1      6.535      7.332
REMARK  0 active torsions:
REMARK  status: ('A' for Active; 'I' for Inactive)
ROOT
ATOM      1  C   UNL d   1      32.768  22.458 -20.946  0.00  0.00     0.094 A 
ATOM      2  C   UNL d   1      32.766  21.662 -20.729  0.00  0.00     0.143 A 
ATOM      3  S   UNL d   1      32.921  21.080 -21.294  0.00  0.00    -0.055 SA
ATOM      4  C   UNL d   1      32.924  22.673 -21.726  0.00  0.00     0.013 A 
ATOM      5  C   UNL d   1      33.078  21.296 -22.075  0.00  0.00     0.086 A 
ATOM      6  C   UNL d   1      33.080  22.092 -22.291  0.00  0.00     0.017 A 
ATOM      7  C   UNL d   1      32.613  23.039 -20.380  0.00  0.00     0.103 C 
ATOM      8  N   UNL d   1      32.459  23.617 -19.820  0.00  0.00    -0.191 NA
ATOM      9  S   UNL d   1      33.234  20.713 -22.645  0.00  0.00    -0.071 SA
ATOM     10  N   UNL d   1      32.610  21.445 -19.954  0.00  0.00    -0.140 N 
ATOM     11  C   UNL d   1      32.926  23.468 -21.942  0.00  0.00     0.001 A 
ATOM     12  C   UNL d   1      33.237  22.306 -23.073  0.00  0.00     0.001 A 
ATOM     13  C   UNL d   1      33.083  23.683 -22.723  0.00  0.00     0.000 A 
ATOM     14  C   UNL d   1      33.238  23.102 -23.288  0.00  0.00     0.000 A 
ENDROOT
TORSDOF 0
ENDMDL
MODEL 9
REMARK VINA RESULT:      -1.8      3.691      4.500
REMARK  0 active torsions:
REMARK  status: ('A' for Active; 'I' for Inactive)
ROOT
ATOM      1  C   UNL d   1      33.235  18.597 -23.474  0.00  0.00     0.094 A 
ATOM      2  C   UNL d   1      33.232  18.759 -24.283  0.00  0.00     0.143 A 
ATOM      3  S   UNL d   1      33.232  19.540 -24.548  0.00  0.00    -0.055 SA
ATOM      4  C   UNL d   1      33.237  19.216 -22.930  0.00  0.00     0.013 A 
ATOM      5  C   UNL d   1      33.234  20.160 -24.003  0.00  0.00     0.086 A 
ATOM      6  C   UNL d   1      33.237  19.998 -23.194  0.00  0.00     0.017 A 
ATOM      7  C   UNL d   1      33.235  17.815 -23.210  0.00  0.00     0.103 C 
ATOM      8  N   UNL d   1      33.235  17.039 -22.947  0.00  0.00    -0.191 NA
ATOM      9  S   UNL d   1      33.234  20.947 -24.266  0.00  0.00    -0.071 SA
ATOM     10  N   UNL d   1      33.230  18.145 -24.827  0.00  0.00    -0.140 N 
ATOM     11  C   UNL d   1      33.239  19.055 -22.122  0.00  0.00     0.001 A 
ATOM     12  C   UNL d   1      33.239  20.619 -22.649  0.00  0.00     0.001 A 
ATOM     13  C   UNL d   1      33.241  19.675 -21.577  0.00  0.00     0.000 A 
ATOM     14  C   UNL d   1      33.241  20.457 -21.841  0.00  0.00     0.000 A 
ENDROOT
TORSDOF 0
ENDMDL
