MODEL 1
REMARK VINA RESULT:      53.7      0.000      0.000
REMARK  4 active torsions:
REMARK  status: ('A' for Active; 'I' for Inactive)
REMARK    1  A    between atoms: C_8  and  N_2 
REMARK    2  A    between atoms: C_13  and  C_8 
REMARK    3  A    between atoms: O_17  and  C_13 
REMARK    4  A    between atoms: O_18  and  C_15 
ROOT
ATOM      1  C   UNL d   1      59.430  49.675  50.633  0.00  0.00     0.166 A 
ATOM      2  N   UNL d   1      60.251  49.680  50.552  0.00  0.00    -0.285 N 
ATOM      3  C   UNL d   1      59.256  49.653  51.443  0.00  0.00     0.117 A 
ATOM      4  C   UNL d   1      59.966  49.644  51.862  0.00  0.00     0.039 A 
ATOM      5  C   UNL d   1      60.580  49.660  51.311  0.00  0.00     0.067 A 
ATOM      6  N   UNL d   1      58.830  49.688  50.077  0.00  0.00    -0.225 NA
ATOM      7  N   UNL d   1      58.473  49.644  51.692  0.00  0.00    -0.241 NA
ATOM      8  C   UNL d   1      58.036  49.680  50.319  0.00  0.00     0.101 A 
ATOM      9  C   UNL d   1      57.863  49.658  51.129  0.00  0.00     0.099 A 
ATOM     10  C   UNL d   1      61.375  49.656  51.562  0.00  0.00     0.020 A 
ATOM     11  C   UNL d   1      60.138  49.623  52.658  0.00  0.00     0.027 A 
ATOM     12  C   UNL d   1      60.923  49.618  52.917  0.00  0.00     0.094 A 
ATOM     13  C   UNL d   1      61.537  49.634  52.367  0.00  0.00     0.026 A 
ATOM     14  C   UNL d   1      57.079  49.649  51.377  0.00  0.00     0.021 A 
ATOM     15  C   UNL d   1      57.431  49.693  49.773  0.00  0.00     0.021 A 
ATOM     16  C   UNL d   1      56.639  49.684  50.017  0.00  0.00     0.002 A 
ATOM     17  C   UNL d   1      56.466  49.662  50.827  0.00  0.00     0.002 A 
ENDROOT
BRANCH   2  18
ATOM     18  C   UNL d   1      60.669  49.700  49.843  0.00  0.00     0.150 C 
BRANCH  18  19
ATOM     19  C   UNL d   1      61.268  49.144  49.701  0.00  0.00     0.314 C 
ATOM     20  O   UNL d   1      61.742  49.221  49.025  0.00  0.00    -0.257 OA
BRANCH  19  21
ATOM     21  O   UNL d   1      61.387  48.532  50.220  0.00  0.00    -0.295 OA
ATOM     22  C   UNL d   1      61.708  47.815  49.957  0.00  0.00     0.185 C 
ENDBRANCH  19  21
ENDBRANCH  18  19
ENDBRANCH   2  18
BRANCH  12  23
ATOM     23  O   UNL d   1      61.085  49.597  53.723  0.00  0.00    -0.328 OA
ATOM     24  C   UNL d   1      61.805  49.304  53.998  0.00  0.00     0.181 C 
ENDBRANCH  12  23
TORSDOF 4
ENDMDL
