MODEL 1
REMARK VINA RESULT:      44.9      0.000      0.000
REMARK  4 active torsions:
REMARK  status: ('A' for Active; 'I' for Inactive)
REMARK    1  A    between atoms: C_11  and  C_3 
REMARK    2  A    between atoms: N_10  and  C_4 
REMARK    3  A    between atoms: C_13  and  N_10 
REMARK    4  A    between atoms: C_14  and  C_13 
ROOT
ATOM      1  C   UNL d   1     -57.195 -98.769 -44.492  0.00  0.00     0.167 A 
ATOM      2  N   UNL d   1     -56.374 -98.765 -44.558  0.00  0.00    -0.195 N 
ATOM      3  C   UNL d   1     -57.508 -98.774 -45.248  0.00  0.00     0.057 A 
ATOM      4  C   UNL d   1     -55.906 -98.760 -43.882  0.00  0.00     0.167 A 
ATOM      5  N   UNL d   1     -56.187 -98.768 -45.355  0.00  0.00    -0.161 NA
ATOM      6  N   UNL d   1     -57.548 -98.767 -43.749  0.00  0.00    -0.227 NA
ATOM      7  C   UNL d   1     -56.264 -98.758 -43.135  0.00  0.00     0.058 A 
ATOM      8  C   UNL d   1     -56.876 -98.773 -45.780  0.00  0.00     0.124 A 
ATOM      9  C   UNL d   1     -57.076 -98.762 -43.069  0.00  0.00     0.086 A 
ATOM     10  C   UNL d   1     -57.411 -98.760 -42.314  0.00  0.00     0.021 C 
ENDROOT
BRANCH   4  11
ATOM     11  N   UNL d   1     -55.084 -98.756 -43.948  0.00  0.00    -0.224 NA
BRANCH  11  12
ATOM     12  C   UNL d   1     -54.711 -99.279 -44.461  0.00  0.00     0.120 C 
BRANCH  12  13
ATOM     13  C   UNL d   1     -54.723-100.096 -44.303  0.00  0.00     0.101 A 
ATOM     14  N   UNL d   1     -54.743-100.370 -43.521  0.00  0.00    -0.242 NA
ATOM     15  C   UNL d   1     -54.755-101.174 -43.366  0.00  0.00     0.099 A 
ATOM     16  C   UNL d   1     -54.746-101.719 -43.990  0.00  0.00     0.021 A 
ATOM     17  C   UNL d   1     -54.726-101.445 -44.768  0.00  0.00     0.003 A 
ATOM     18  C   UNL d   1     -54.714-100.632 -44.925  0.00  0.00     0.021 A 
ENDBRANCH  12  13
ENDBRANCH  11  12
ENDBRANCH   4  11
BRANCH   3  19
ATOM     19  C   UNL d   1     -58.326 -98.778 -45.367  0.00  0.00     0.004 A 
ATOM     20  C   UNL d   1     -58.623 -98.757 -46.139  0.00  0.00     0.000 A 
ATOM     21  C   UNL d   1     -59.434 -98.762 -46.265  0.00  0.00     0.000 A 
ATOM     22  C   UNL d   1     -59.957 -98.787 -45.618  0.00  0.00     0.000 A 
ATOM     23  C   UNL d   1     -59.652 -98.808 -44.853  0.00  0.00     0.000 A 
ATOM     24  C   UNL d   1     -58.836 -98.804 -44.729  0.00  0.00     0.000 A 
ENDBRANCH   3  19
TORSDOF 4
ENDMDL
