MODEL 1
REMARK VINA RESULT:      54.9      0.000      0.000
REMARK  3 active torsions:
REMARK  status: ('A' for Active; 'I' for Inactive)
REMARK    1  A    between atoms: N_7  and  C_2 
REMARK    2  A    between atoms: C_10  and  N_7 
REMARK    3  A    between atoms: C_12  and  C_10 
ROOT
ATOM      1  C   UNL d   1      58.163  49.528  51.347  0.00  0.00     0.184 A 
ATOM      2  C   UNL d   1      58.943  49.614  51.190  0.00  0.00     0.108 A 
ATOM      3  C   UNL d   1      57.612  49.434  50.713  0.00  0.00     0.321 A 
ATOM      4  O   UNL d   1      57.867  49.430  49.950  0.00  0.00    -0.272 OA
ATOM      5  C   UNL d   1      59.211  49.611  50.407  0.00  0.00     0.042 A 
ATOM      6  C   UNL d   1      58.669  49.518  49.783  0.00  0.00     0.105 A 
ATOM      7  O   UNL d   1      56.790  49.343  50.873  0.00  0.00    -0.257 OA
ATOM      8  N   UNL d   1      57.903  49.534  52.155  0.00  0.00    -0.141 N 
ATOM      9  C   UNL d   1      60.009  49.699  50.252  0.00  0.00     0.004 A 
ATOM     10  C   UNL d   1      58.932  49.514  49.012  0.00  0.00     0.025 A 
ATOM     11  C   UNL d   1      60.284  49.697  49.479  0.00  0.00     0.000 A 
ATOM     12  C   UNL d   1      59.734  49.603  48.845  0.00  0.00     0.002 A 
ENDROOT
BRANCH   2  13
ATOM     13  N   UNL d   1      59.482  49.706  51.809  0.00  0.00    -0.242 NA
BRANCH  13  14
ATOM     14  C   UNL d   1      60.275  49.704  51.632  0.00  0.00     0.099 C 
BRANCH  14  15
ATOM     15  C   UNL d   1      60.827  49.667  52.271  0.00  0.00     0.019 A 
ATOM     16  C   UNL d   1      61.616  49.626  52.107  0.00  0.00     0.002 A 
ATOM     17  C   UNL d   1      62.155  49.589  52.732  0.00  0.00     0.000 A 
ATOM     18  C   UNL d   1      61.892  49.594  53.506  0.00  0.00     0.000 A 
ATOM     19  C   UNL d   1      61.078  49.637  53.664  0.00  0.00     0.000 A 
ATOM     20  C   UNL d   1      60.541  49.673  53.037  0.00  0.00     0.002 A 
ENDBRANCH  14  15
ENDBRANCH  13  14
ENDBRANCH   2  13
TORSDOF 3
ENDMDL
