MODEL 1
REMARK VINA RESULT:      60.8      0.000      0.000
REMARK  7 active torsions:
REMARK  status: ('A' for Active; 'I' for Inactive)
REMARK    1  A    between atoms: C_8  and  C_1 
REMARK    2  A    between atoms: N_7  and  C_2 
REMARK    3  A    between atoms: C_5  and  N_7 
REMARK    4  A    between atoms: N_9  and  C_5 
REMARK    5  A    between atoms: O_12  and  C_8 
REMARK    6  A    between atoms: C_13  and  N_9 
REMARK    7  A    between atoms: C_16  and  O_12 
ROOT
ATOM      1  C   UNL d   1      61.031  47.875  50.725  0.00  0.00     0.162 A 
ATOM      2  C   UNL d   1      60.424  48.398  50.890  0.00  0.00     0.108 A 
ATOM      3  N   UNL d   1      61.599  47.940  51.321  0.00  0.00    -0.239 NA
ATOM      4  C   UNL d   1      60.607  48.793  51.586  0.00  0.00     0.037 A 
ATOM      5  C   UNL d   1      61.333  48.513  51.857  0.00  0.00     0.083 A 
ATOM      6  C   UNL d   1      60.206  49.374  52.012  0.00  0.00     0.003 A 
ATOM      7  C   UNL d   1      61.662  48.813  52.555  0.00  0.00     0.019 A 
ATOM      8  C   UNL d   1      60.527  49.678  52.708  0.00  0.00     0.000 A 
ATOM      9  C   UNL d   1      61.260  49.392  52.976  0.00  0.00     0.002 A 
ENDROOT
BRANCH   2  10
ATOM     10  N   UNL d   1      59.735  48.515  50.432  0.00  0.00    -0.216 NA
BRANCH  10  11
ATOM     11  C   UNL d   1      59.556  49.273  50.151  0.00  0.00     0.221 C 
ATOM     12  S   UNL d   1      59.999  49.613  49.538  0.00  0.00    -0.037 SA
BRANCH  11  13
ATOM     13  N   UNL d   1      58.927  49.690  50.491  0.00  0.00    -0.217 NA
BRANCH  13  14
ATOM     14  C   UNL d   1      58.169  49.612  50.173  0.00  0.00     0.084 A 
ATOM     15  C   UNL d   1      58.053  49.695  49.362  0.00  0.00     0.019 A 
ATOM     16  C   UNL d   1      57.293  49.617  49.034  0.00  0.00     0.002 A 
ATOM     17  C   UNL d   1      56.652  49.454  49.533  0.00  0.00     0.000 A 
ATOM     18  C   UNL d   1      56.762  49.369  50.349  0.00  0.00     0.002 A 
ATOM     19  C   UNL d   1      57.519  49.448  50.661  0.00  0.00     0.019 A 
ENDBRANCH  13  14
ENDBRANCH  11  13
ENDBRANCH  10  11
ENDBRANCH   2  10
BRANCH   1  20
ATOM     20  C   UNL d   1      61.071  47.366  50.074  0.00  0.00     0.320 C 
ATOM     21  O   UNL d   1      60.565  47.485  49.430  0.00  0.00    -0.257 OA
BRANCH  20  22
ATOM     22  O   UNL d   1      61.606  46.744  50.056  0.00  0.00    -0.270 OA
BRANCH  22  23
ATOM     23  C   UNL d   1      61.824  46.415  49.328  0.00  0.00     0.126 C 
ATOM     24  C   UNL d   1      61.765  45.606  49.213  0.00  0.00     0.029 C 
ENDBRANCH  22  23
ENDBRANCH  20  22
ENDBRANCH   1  20
TORSDOF 7
ENDMDL
MODEL 2
REMARK VINA RESULT:      61.0      1.277      3.622
REMARK  7 active torsions:
REMARK  status: ('A' for Active; 'I' for Inactive)
REMARK    1  A    between atoms: C_8  and  C_1 
REMARK    2  A    between atoms: N_7  and  C_2 
REMARK    3  A    between atoms: C_5  and  N_7 
REMARK    4  A    between atoms: N_9  and  C_5 
REMARK    5  A    between atoms: O_12  and  C_8 
REMARK    6  A    between atoms: C_13  and  N_9 
REMARK    7  A    between atoms: C_16  and  O_12 
ROOT
ATOM      1  C   UNL d   1      59.569  49.540  50.964  0.00  0.00     0.162 A 
ATOM      2  C   UNL d   1      60.370  49.412  50.863  0.00  0.00     0.108 A 
ATOM      3  N   UNL d   1      59.426  49.672  51.766  0.00  0.00    -0.239 NA
ATOM      4  C   UNL d   1      60.733  49.463  51.598  0.00  0.00     0.037 A 
ATOM      5  C   UNL d   1      60.154  49.623  52.160  0.00  0.00     0.083 A 
ATOM      6  C   UNL d   1      61.520  49.383  51.830  0.00  0.00     0.003 A 
ATOM      7  C   UNL d   1      60.357  49.706  52.958  0.00  0.00     0.019 A 
ATOM      8  C   UNL d   1      61.732  49.463  52.623  0.00  0.00     0.000 A 
ATOM      9  C   UNL d   1      61.142  49.626  53.186  0.00  0.00     0.002 A 
ENDROOT
BRANCH   2  10
ATOM     10  N   UNL d   1      60.757  49.256  50.139  0.00  0.00    -0.216 NA
BRANCH  10  11
ATOM     11  C   UNL d   1      61.257  48.598  50.078  0.00  0.00     0.221 C 
ATOM     12  S   UNL d   1      62.000  48.663  49.717  0.00  0.00    -0.037 SA
BRANCH  11  13
ATOM     13  N   UNL d   1      61.004  47.871  50.383  0.00  0.00    -0.217 NA
BRANCH  13  14
ATOM     14  C   UNL d   1      61.327  47.172  50.085  0.00  0.00     0.084 A 
ATOM     15  C   UNL d   1      61.946  47.204  49.543  0.00  0.00     0.019 A 
ATOM     16  C   UNL d   1      62.277  46.505  49.238  0.00  0.00     0.002 A 
ATOM     17  C   UNL d   1      61.977  45.773  49.488  0.00  0.00     0.000 A 
ATOM     18  C   UNL d   1      61.356  45.734  50.034  0.00  0.00     0.002 A 
ATOM     19  C   UNL d   1      61.037  46.434  50.327  0.00  0.00     0.019 A 
ENDBRANCH  13  14
ENDBRANCH  11  13
ENDBRANCH  10  11
ENDBRANCH   2  10
BRANCH   1  20
ATOM     20  C   UNL d   1      58.996  49.538  50.367  0.00  0.00     0.320 C 
ATOM     21  O   UNL d   1      59.219  49.700  49.586  0.00  0.00    -0.257 OA
BRANCH  20  22
ATOM     22  O   UNL d   1      58.209  49.378  50.536  0.00  0.00    -0.270 OA
BRANCH  22  23
ATOM     23  C   UNL d   1      57.628  49.561  49.975  0.00  0.00     0.126 C 
ATOM     24  C   UNL d   1      56.859  49.708  50.220  0.00  0.00     0.029 C 
ENDBRANCH  22  23
ENDBRANCH  20  22
ENDBRANCH   1  20
TORSDOF 7
ENDMDL
