MODEL 1
REMARK VINA RESULT:      -1.4      0.000      0.000
REMARK  4 active torsions:
REMARK  status: ('A' for Active; 'I' for Inactive)
REMARK    1  A    between atoms: N_2  and  C_1 
REMARK    2  A    between atoms: C_16  and  N_6 
REMARK    3  A    between atoms: C_14  and  C_7 
REMARK    4  A    between atoms: N_8  and  C_12 
ROOT
ATOM      1  N   UNL d   1      31.644  16.461 -24.211  0.00  0.00    -0.288 N 
ATOM      2  C   UNL d   1      30.859  16.341 -24.095  0.00  0.00     0.196 A 
ATOM      3  S   UNL d   1      30.607  15.726 -24.583  0.00  0.00    -0.092 SA
ATOM      4  C   UNL d   1      31.914  15.933 -24.770  0.00  0.00     0.268 A 
ATOM      5  C   UNL d   1      31.277  15.476 -25.004  0.00  0.00     0.093 A 
ATOM      6  O   UNL d   1      32.703  15.862 -25.062  0.00  0.00    -0.266 OA
ENDROOT
BRANCH   1   7
ATOM      7  C   UNL d   1      32.054  17.050 -23.791  0.00  0.00     0.139 A 
ATOM      8  C   UNL d   1      32.099  17.845 -24.037  0.00  0.00     0.296 A 
ATOM      9  N   UNL d   1      32.556  18.268 -23.475  0.00  0.00    -0.209 N 
ATOM     10  O   UNL d   1      31.735  18.132 -24.733  0.00  0.00    -0.264 OA
ATOM     11  N   UNL d   1      32.789  17.742 -22.894  0.00  0.00    -0.238 N 
ATOM     12  C   UNL d   1      32.478  16.987 -23.088  0.00  0.00     0.102 A 
ATOM     13  C   UNL d   1      33.241  17.908 -22.238  0.00  0.00     0.120 C 
ATOM     14  C   UNL d   1      32.585  16.300 -22.643  0.00  0.00     0.022 C 
BRANCH   9  15
ATOM     15  C   UNL d   1      32.783  19.056 -23.428  0.00  0.00     0.085 A 
ATOM     16  C   UNL d   1      32.831  19.439 -22.717  0.00  0.00     0.019 A 
ATOM     17  C   UNL d   1      33.058  20.227 -22.669  0.00  0.00     0.002 A 
ATOM     18  C   UNL d   1      33.241  20.639 -23.356  0.00  0.00     0.000 A 
ATOM     19  C   UNL d   1      33.195  20.264 -24.071  0.00  0.00     0.002 A 
ATOM     20  C   UNL d   1      32.967  19.466 -24.135  0.00  0.00     0.019 A 
ENDBRANCH   9  15
ENDBRANCH   1   7
BRANCH   2  21
ATOM     21  C   UNL d   1      30.053  16.274 -23.924  0.00  0.00    -0.001 A 
ATOM     22  C   UNL d   1      29.516  16.842 -24.214  0.00  0.00    -0.001 A 
ATOM     23  C   UNL d   1      28.702  16.772 -24.041  0.00  0.00     0.023 A 
ATOM     24  C   UNL d   1      28.434  16.145 -23.585  0.00  0.00     0.127 A 
ATOM     25  C   UNL d   1      28.970  15.580 -23.297  0.00  0.00     0.023 A 
ATOM     26  C   UNL d   1      29.784  15.650 -23.470  0.00  0.00    -0.001 A 
BRANCH  24  27
ATOM     27  N   UNL d   1      27.637  16.091 -23.424  0.00  0.00    -0.114 N 
ATOM     28  O   UNL d   1      27.223  16.631 -22.956  0.00  0.00    -0.532 OA
ATOM     29  O   UNL d   1      27.133  15.502 -23.699  0.00  0.00    -0.532 OA
ENDBRANCH  24  27
ENDBRANCH   2  21
TORSDOF 4
ENDMDL
MODEL 2
REMARK VINA RESULT:       0.5      1.150      1.696
REMARK  4 active torsions:
REMARK  status: ('A' for Active; 'I' for Inactive)
REMARK    1  A    between atoms: N_2  and  C_1 
REMARK    2  A    between atoms: C_16  and  N_6 
REMARK    3  A    between atoms: C_14  and  C_7 
REMARK    4  A    between atoms: N_8  and  C_12 
ROOT
ATOM      1  N   UNL d   1      32.089  18.084 -24.001  0.00  0.00    -0.288 N 
ATOM      2  C   UNL d   1      31.358  17.753 -23.976  0.00  0.00     0.196 A 
ATOM      3  S   UNL d   1      31.247  17.298 -24.654  0.00  0.00    -0.092 SA
ATOM      4  C   UNL d   1      32.463  17.852 -24.687  0.00  0.00     0.268 A 
ATOM      5  C   UNL d   1      31.947  17.366 -25.096  0.00  0.00     0.093 A 
ATOM      6  O   UNL d   1      33.239  18.068 -24.941  0.00  0.00    -0.266 OA
ENDROOT
BRANCH   1   7
ATOM      7  C   UNL d   1      32.358  18.575 -23.387  0.00  0.00     0.139 A 
ATOM      8  C   UNL d   1      32.299  19.407 -23.402  0.00  0.00     0.296 A 
ATOM      9  N   UNL d   1      32.628  19.706 -22.691  0.00  0.00    -0.209 N 
ATOM     10  O   UNL d   1      31.963  19.832 -24.038  0.00  0.00    -0.264 OA
ATOM     11  N   UNL d   1      32.885  19.070 -22.245  0.00  0.00    -0.238 N 
ATOM     12  C   UNL d   1      32.718  18.368 -22.675  0.00  0.00     0.102 A 
ATOM     13  C   UNL d   1      33.240  19.097 -21.514  0.00  0.00     0.120 C 
ATOM     14  C   UNL d   1      32.890  17.602 -22.420  0.00  0.00     0.022 C 
BRANCH   9  15
ATOM     15  C   UNL d   1      32.721  20.470 -22.403  0.00  0.00     0.085 A 
ATOM     16  C   UNL d   1      33.119  21.033 -22.825  0.00  0.00     0.019 A 
ATOM     17  C   UNL d   1      33.212  21.797 -22.537  0.00  0.00     0.002 A 
ATOM     18  C   UNL d   1      32.895  21.997 -21.806  0.00  0.00     0.000 A 
ATOM     19  C   UNL d   1      32.496  21.439 -21.378  0.00  0.00     0.002 A 
ATOM     20  C   UNL d   1      32.394  20.662 -21.656  0.00  0.00     0.019 A 
ENDBRANCH   9  15
ENDBRANCH   1   7
BRANCH   2  21
ATOM     21  C   UNL d   1      30.595  17.449 -23.883  0.00  0.00    -0.001 A 
ATOM     22  C   UNL d   1      29.943  17.847 -24.216  0.00  0.00    -0.001 A 
ATOM     23  C   UNL d   1      29.174  17.537 -24.121  0.00  0.00     0.023 A 
ATOM     24  C   UNL d   1      29.062  16.841 -23.701  0.00  0.00     0.127 A 
ATOM     25  C   UNL d   1      29.713  16.446 -23.370  0.00  0.00     0.023 A 
ATOM     26  C   UNL d   1      30.482  16.755 -23.465  0.00  0.00    -0.001 A 
BRANCH  24  27
ATOM     27  N   UNL d   1      28.305  16.551 -23.617  0.00  0.00    -0.114 N 
ATOM     28  O   UNL d   1      27.932  16.069 -24.174  0.00  0.00    -0.532 OA
ATOM     29  O   UNL d   1      27.808  16.693 -22.978  0.00  0.00    -0.532 OA
ENDBRANCH  24  27
ENDBRANCH   2  21
TORSDOF 4
ENDMDL
