MODEL 1
REMARK VINA RESULT:      -4.1      0.000      0.000
REMARK  3 active torsions:
REMARK  status: ('A' for Active; 'I' for Inactive)
REMARK    1  A    between atoms: S_6  and  C_1 
REMARK    2  A    between atoms: C_9  and  S_6 
REMARK    3  A    between atoms: C_7  and  C_9 
REMARK       I    between atoms: N_8  and  C_7 
ROOT
ATOM      1  C   UNL d   1     -41.551-122.383 -51.287  0.00  0.00     0.049 A 
ATOM      2  N   UNL d   1     -41.821-121.485 -50.334  0.00  0.00    -0.245 NA
ATOM      3  C   UNL d   1     -41.478-121.590 -51.079  0.00  0.00     0.087 A 
ATOM      4  C   UNL d   1     -41.938-122.779 -50.679  0.00  0.00     0.025 A 
ATOM      5  C   UNL d   1     -42.107-122.230 -50.087  0.00  0.00     0.082 A 
ATOM      6  C   UNL d   1     -41.123-121.006 -51.540  0.00  0.00     0.021 C 
ATOM      7  C   UNL d   1     -42.160-123.564 -50.580  0.00  0.00     0.002 A 
ATOM      8  C   UNL d   1     -42.498-122.465 -49.398  0.00  0.00     0.019 A 
ATOM      9  C   UNL d   1     -42.550-123.812 -49.898  0.00  0.00     0.000 A 
ATOM     10  C   UNL d   1     -42.718-123.249 -49.303  0.00  0.00     0.002 A 
ENDROOT
BRANCH   1  11
ATOM     11  S   UNL d   1     -41.281-122.731 -51.994  0.00  0.00    -0.080 SA
BRANCH  11  12
ATOM     12  C   UNL d   1     -41.624-122.506 -52.714  0.00  0.00     0.097 C 
BRANCH  12  13
ATOM     13  C   UNL d   1     -41.497-122.975 -53.386  0.00  0.00     0.272 C 
ATOM     14  N   UNL d   1     -41.750-122.695 -54.128  0.00  0.00    -0.267 N 
ATOM     15  C   UNL d   1     -41.625-123.160 -54.800  0.00  0.00     0.110 A 
ATOM     16  C   UNL d   1     -42.125-121.958 -54.195  0.00  0.00     0.110 A 
ATOM     17  C   UNL d   1     -41.877-122.883 -55.539  0.00  0.00     0.142 A 
ATOM     18  O   UNL d   1     -42.252-122.146 -55.610  0.00  0.00    -0.300 OA
ATOM     19  C   UNL d   1     -42.373-121.685 -54.929  0.00  0.00     0.142 A 
ATOM     20  O   UNL d   1     -41.123-123.713 -53.324  0.00  0.00    -0.266 OA
ENDBRANCH  12  13
ENDBRANCH  11  12
ENDBRANCH   1  11
TORSDOF 3
ENDMDL
MODEL 2
REMARK VINA RESULT:      -3.8      1.239      1.716
REMARK  3 active torsions:
REMARK  status: ('A' for Active; 'I' for Inactive)
REMARK    1  A    between atoms: S_6  and  C_1 
REMARK    2  A    between atoms: C_9  and  S_6 
REMARK    3  A    between atoms: C_7  and  C_9 
REMARK       I    between atoms: N_8  and  C_7 
ROOT
ATOM      1  C   UNL d   1     -42.308-122.412 -50.332  0.00  0.00     0.049 A 
ATOM      2  N   UNL d   1     -43.343-122.722 -49.544  0.00  0.00    -0.245 NA
ATOM      3  C   UNL d   1     -43.122-122.328 -50.236  0.00  0.00     0.087 A 
ATOM      4  C   UNL d   1     -42.015-122.855 -49.705  0.00  0.00     0.025 A 
ATOM      5  C   UNL d   1     -42.649-123.050 -49.215  0.00  0.00     0.082 A 
ATOM      6  C   UNL d   1     -43.623-121.920 -50.748  0.00  0.00     0.021 C 
ATOM      7  C   UNL d   1     -41.258-123.110 -49.510  0.00  0.00     0.002 A 
ATOM      8  C   UNL d   1     -42.527-123.499 -48.531  0.00  0.00     0.019 A 
ATOM      9  C   UNL d   1     -41.123-123.558 -48.832  0.00  0.00     0.000 A 
ATOM     10  C   UNL d   1     -41.772-123.751 -48.340  0.00  0.00     0.002 A 
ENDROOT
BRANCH   1  11
ATOM     11  S   UNL d   1     -41.853-122.101 -50.956  0.00  0.00    -0.080 SA
BRANCH  11  12
ATOM     12  C   UNL d   1     -41.783-122.532 -51.660  0.00  0.00     0.097 C 
BRANCH  12  13
ATOM     13  C   UNL d   1     -41.467-122.161 -52.332  0.00  0.00     0.272 C 
ATOM     14  N   UNL d   1     -41.453-122.576 -53.054  0.00  0.00    -0.267 N 
ATOM     15  C   UNL d   1     -41.138-122.209 -53.725  0.00  0.00     0.110 A 
ATOM     16  C   UNL d   1     -41.751-123.349 -53.102  0.00  0.00     0.110 A 
ATOM     17  C   UNL d   1     -41.124-122.620 -54.444  0.00  0.00     0.142 A 
ATOM     18  O   UNL d   1     -41.421-123.393 -54.496  0.00  0.00    -0.300 OA
ATOM     19  C   UNL d   1     -41.735-123.755 -53.816  0.00  0.00     0.142 A 
ATOM     20  O   UNL d   1     -41.167-121.389 -52.288  0.00  0.00    -0.266 OA
ENDBRANCH  12  13
ENDBRANCH  11  12
ENDBRANCH   1  11
TORSDOF 3
ENDMDL
