MODEL 1
REMARK VINA RESULT:      58.9      0.000      0.000
REMARK  3 active torsions:
REMARK  status: ('A' for Active; 'I' for Inactive)
REMARK    1  A    between atoms: C_2  and  C_1 
REMARK       I    between atoms: N_6  and  C_2 
REMARK    2  A    between atoms: C_7  and  N_6 
REMARK    3  A    between atoms: C_18  and  N_6 
ROOT
ATOM      1  C   UNL d   1      46.031 -15.370  43.267  0.00  0.00     0.270 C 
ATOM      2  N   UNL d   1      45.196 -14.502  43.586  0.00  0.00    -0.274 N 
ATOM      3  O   UNL d   1      46.645 -15.060  42.864  0.00  0.00    -0.266 OA
ENDROOT
BRANCH   2   4
ATOM      4  C   UNL d   1      44.572 -14.761  43.985  0.00  0.00     0.079 A 
ATOM      5  C   UNL d   1      43.908 -14.368  44.109  0.00  0.00     0.116 A 
ATOM      6  S   UNL d   1      43.434 -14.824  44.529  0.00  0.00     0.213 S 
ATOM      7  O   UNL d   1      42.960 -15.280  44.948  0.00  0.00    -0.217 OA
ATOM      8  O   UNL d   1      43.035 -14.169  44.415  0.00  0.00    -0.217 OA
ATOM      9  C   UNL d   1      43.808 -15.496  44.660  0.00  0.00     0.100 A 
ATOM     10  C   UNL d   1      44.507 -15.458  44.327  0.00  0.00     0.030 A 
ENDBRANCH   2   4
BRANCH   2  11
ATOM     11  C   UNL d   1      45.294 -13.711  43.390  0.00  0.00     0.067 A 
ATOM     12  C   UNL d   1      45.109 -13.461  42.638  0.00  0.00     0.018 A 
ATOM     13  C   UNL d   1      45.208 -12.656  42.435  0.00  0.00     0.002 A 
ATOM     14  C   UNL d   1      45.490 -12.123  42.992  0.00  0.00     0.000 A 
ATOM     15  C   UNL d   1      45.677 -12.379  43.751  0.00  0.00     0.002 A 
ATOM     16  C   UNL d   1      45.582 -13.168  43.959  0.00  0.00     0.018 A 
ENDBRANCH   2  11
BRANCH   1  17
ATOM     17  C   UNL d   1      45.953 -16.169  43.452  0.00  0.00     0.120 A 
ATOM     18  C   UNL d   1      46.082 -16.426  44.241  0.00  0.00     0.305 A 
ATOM     19  O   UNL d   1      46.004 -17.228  44.429  0.00  0.00    -0.273 OA
ATOM     20  O   UNL d   1      46.285 -15.878  44.823  0.00  0.00    -0.259 OA
ATOM     21  C   UNL d   1      45.800 -17.770  43.839  0.00  0.00     0.103 A 
ATOM     22  C   UNL d   1      45.674 -17.517  43.061  0.00  0.00     0.023 A 
ATOM     23  C   UNL d   1      45.724 -18.573  44.035  0.00  0.00     0.025 A 
ATOM     24  C   UNL d   1      45.750 -16.720  42.871  0.00  0.00     0.012 A 
ATOM     25  C   UNL d   1      45.471 -18.064  42.479  0.00  0.00     0.002 A 
ATOM     26  C   UNL d   1      45.394 -18.865  42.669  0.00  0.00     0.000 A 
ATOM     27  C   UNL d   1      45.521 -19.118  43.448  0.00  0.00     0.002 A 
ENDBRANCH   1  17
TORSDOF 3
ENDMDL
