MODEL 1
REMARK VINA RESULT:      -8.7      0.000      0.000
REMARK  0 active torsions:
REMARK  status: ('A' for Active; 'I' for Inactive)
REMARK       I    between atoms: C_2  and  N_1 
REMARK       I    between atoms: N_7  and  C_2 
ROOT
ATOM      1  N   UNL d   1     -48.394  13.614  23.182  0.00  0.00    -0.241 N 
ATOM      2  C   UNL d   1     -49.224  13.526  23.321  0.00  0.00     0.341 C 
ATOM      3  C   UNL d   1     -47.812  13.054  23.247  0.00  0.00     0.087 A 
ATOM      4  C   UNL d   1     -48.048  14.315  22.949  0.00  0.00     0.186 A 
ATOM      5  N   UNL d   1     -47.240  14.184  22.870  0.00  0.00    -0.224 NA
ATOM      6  C   UNL d   1     -47.096  13.397  23.056  0.00  0.00     0.099 A 
ATOM      7  N   UNL d   1     -49.742  14.160  23.227  0.00  0.00    -0.257 N 
ATOM      8  C   UNL d   1     -47.849  12.259  23.461  0.00  0.00     0.019 A 
ATOM      9  C   UNL d   1     -46.394  12.956  23.074  0.00  0.00     0.021 A 
ATOM     10  C   UNL d   1     -47.157  11.819  23.480  0.00  0.00     0.002 A 
ATOM     11  C   UNL d   1     -46.435  12.153  23.290  0.00  0.00     0.002 A 
ATOM     12  O   UNL d   1     -49.501  12.777  23.557  0.00  0.00    -0.245 OA
ATOM     13  C   UNL d   1     -50.535  14.065  23.364  0.00  0.00     0.085 A 
ATOM     14  C   UNL d   1     -49.445  14.903  22.990  0.00  0.00     0.085 A 
ATOM     15  C   UNL d   1     -47.208  11.015  23.698  0.00  0.00     0.000 C 
ATOM     16  C   UNL d   1     -45.734  11.689  23.314  0.00  0.00     0.000 C 
ATOM     17  C   UNL d   1     -51.053  14.700  23.270  0.00  0.00     0.019 A 
ATOM     18  C   UNL d   1     -49.968  15.545  22.895  0.00  0.00     0.019 A 
ATOM     19  C   UNL d   1     -50.775  15.427  23.039  0.00  0.00     0.003 A 
ENDROOT
TORSDOF 0
ENDMDL
MODEL 2
REMARK VINA RESULT:      -8.6      0.851      1.532
REMARK  0 active torsions:
REMARK  status: ('A' for Active; 'I' for Inactive)
REMARK       I    between atoms: C_2  and  N_1 
REMARK       I    between atoms: N_7  and  C_2 
ROOT
ATOM      1  N   UNL d   1     -48.405  13.641  23.139  0.00  0.00    -0.241 N 
ATOM      2  C   UNL d   1     -48.672  14.422  22.950  0.00  0.00     0.341 C 
ATOM      3  C   UNL d   1     -47.662  13.330  23.050  0.00  0.00     0.087 A 
ATOM      4  C   UNL d   1     -48.888  13.064  23.454  0.00  0.00     0.186 A 
ATOM      5  N   UNL d   1     -48.434  12.386  23.560  0.00  0.00    -0.224 NA
ATOM      6  C   UNL d   1     -47.672  12.555  23.308  0.00  0.00     0.099 A 
ATOM      7  N   UNL d   1     -49.454  14.648  23.077  0.00  0.00    -0.257 N 
ATOM      8  C   UNL d   1     -46.967  13.664  22.761  0.00  0.00     0.019 A 
ATOM      9  C   UNL d   1     -46.985  12.090  23.284  0.00  0.00     0.021 A 
ATOM     10  C   UNL d   1     -46.286  13.209  22.736  0.00  0.00     0.002 A 
ATOM     11  C   UNL d   1     -46.284  12.432  22.991  0.00  0.00     0.002 A 
ATOM     12  O   UNL d   1     -48.117  14.955  22.632  0.00  0.00    -0.245 OA
ATOM     13  C   UNL d   1     -49.699  15.398  22.893  0.00  0.00     0.085 A 
ATOM     14  C   UNL d   1     -49.995  14.099  23.398  0.00  0.00     0.085 A 
ATOM     15  C   UNL d   1     -45.589  13.559  22.441  0.00  0.00     0.000 C 
ATOM     16  C   UNL d   1     -45.578  11.976  22.959  0.00  0.00     0.000 C 
ATOM     17  C   UNL d   1     -50.482  15.624  23.020  0.00  0.00     0.019 A 
ATOM     18  C   UNL d   1     -50.786  14.327  23.526  0.00  0.00     0.019 A 
ATOM     19  C   UNL d   1     -51.017  15.098  23.332  0.00  0.00     0.003 A 
ENDROOT
TORSDOF 0
ENDMDL
MODEL 3
REMARK VINA RESULT:      -8.5      0.658      3.748
REMARK  0 active torsions:
REMARK  status: ('A' for Active; 'I' for Inactive)
REMARK       I    between atoms: C_2  and  N_1 
REMARK       I    between atoms: N_7  and  C_2 
ROOT
ATOM      1  N   UNL d   1     -48.222  13.415  23.142  0.00  0.00    -0.241 N 
ATOM      2  C   UNL d   1     -48.127  12.619  23.416  0.00  0.00     0.341 C 
ATOM      3  C   UNL d   1     -48.903  13.852  23.097  0.00  0.00     0.087 A 
ATOM      4  C   UNL d   1     -47.604  13.874  22.871  0.00  0.00     0.186 A 
ATOM      5  N   UNL d   1     -47.912  14.607  22.656  0.00  0.00    -0.224 NA
ATOM      6  C   UNL d   1     -48.720  14.589  22.798  0.00  0.00     0.099 A 
ATOM      7  N   UNL d   1     -47.387  12.257  23.423  0.00  0.00    -0.257 N 
ATOM      8  C   UNL d   1     -49.680  13.663  23.296  0.00  0.00     0.019 A 
ATOM      9  C   UNL d   1     -49.310  15.162  22.689  0.00  0.00     0.021 A 
ATOM     10  C   UNL d   1     -50.266  14.226  23.189  0.00  0.00     0.002 A 
ATOM     11  C   UNL d   1     -50.094  14.968  22.891  0.00  0.00     0.002 A 
ATOM     12  O   UNL d   1     -48.806  12.215  23.677  0.00  0.00    -0.245 OA
ATOM     13  C   UNL d   1     -47.308  11.494  23.687  0.00  0.00     0.085 A 
ATOM     14  C   UNL d   1     -46.718  12.678  23.158  0.00  0.00     0.085 A 
ATOM     15  C   UNL d   1     -51.049  14.024  23.394  0.00  0.00     0.000 C 
ATOM     16  C   UNL d   1     -50.706  15.536  22.787  0.00  0.00     0.000 C 
ATOM     17  C   UNL d   1     -46.567  11.131  23.695  0.00  0.00     0.019 A 
ATOM     18  C   UNL d   1     -45.970  12.312  23.166  0.00  0.00     0.019 A 
ATOM     19  C   UNL d   1     -45.909  11.533  23.439  0.00  0.00     0.003 A 
ENDROOT
TORSDOF 0
ENDMDL
MODEL 4
REMARK VINA RESULT:      -8.3      0.940      4.039
REMARK  0 active torsions:
REMARK  status: ('A' for Active; 'I' for Inactive)
REMARK       I    between atoms: C_2  and  N_1 
REMARK       I    between atoms: N_7  and  C_2 
ROOT
ATOM      1  N   UNL d   1     -48.440  12.955  23.262  0.00  0.00    -0.241 N 
ATOM      2  C   UNL d   1     -47.603  13.024  23.153  0.00  0.00     0.341 C 
ATOM      3  C   UNL d   1     -49.009  13.520  23.149  0.00  0.00     0.087 A 
ATOM      4  C   UNL d   1     -48.805  12.269  23.511  0.00  0.00     0.186 A 
ATOM      5  N   UNL d   1     -49.614  12.416  23.551  0.00  0.00    -0.224 NA
ATOM      6  C   UNL d   1     -49.737  13.196  23.326  0.00  0.00     0.099 A 
ATOM      7  N   UNL d   1     -47.100  12.387  23.295  0.00  0.00    -0.257 N 
ATOM      8  C   UNL d   1     -48.950  14.304  22.903  0.00  0.00     0.019 A 
ATOM      9  C   UNL d   1     -50.431  13.647  23.261  0.00  0.00     0.021 A 
ATOM     10  C   UNL d   1     -49.633  14.753  22.838  0.00  0.00     0.002 A 
ATOM     11  C   UNL d   1     -50.368  14.439  23.012  0.00  0.00     0.002 A 
ATOM     12  O   UNL d   1     -47.304  13.758  22.897  0.00  0.00    -0.245 OA
ATOM     13  C   UNL d   1     -46.300  12.465  23.186  0.00  0.00     0.085 A 
ATOM     14  C   UNL d   1     -47.418  11.659  23.551  0.00  0.00     0.085 A 
ATOM     15  C   UNL d   1     -49.560  15.546  22.588  0.00  0.00     0.000 C 
ATOM     16  C   UNL d   1     -51.059  14.912  22.940  0.00  0.00     0.000 C 
ATOM     17  C   UNL d   1     -45.797  11.826  23.328  0.00  0.00     0.019 A 
ATOM     18  C   UNL d   1     -46.910  11.015  23.694  0.00  0.00     0.019 A 
ATOM     19  C   UNL d   1     -46.096  11.114  23.578  0.00  0.00     0.003 A 
ENDROOT
TORSDOF 0
ENDMDL
MODEL 5
REMARK VINA RESULT:      -8.1      1.381      3.692
REMARK  0 active torsions:
REMARK  status: ('A' for Active; 'I' for Inactive)
REMARK       I    between atoms: C_2  and  N_1 
REMARK       I    between atoms: N_7  and  C_2 
ROOT
ATOM      1  N   UNL d   1     -47.958  12.673  23.009  0.00  0.00    -0.241 N 
ATOM      2  C   UNL d   1     -47.526  13.389  22.871  0.00  0.00     0.341 C 
ATOM      3  C   UNL d   1     -48.746  12.587  23.175  0.00  0.00     0.087 A 
ATOM      4  C   UNL d   1     -47.617  11.932  22.993  0.00  0.00     0.186 A 
ATOM      5  N   UNL d   1     -48.207  11.381  23.152  0.00  0.00    -0.224 NA
ATOM      6  C   UNL d   1     -48.908  11.792  23.265  0.00  0.00     0.099 A 
ATOM      7  N   UNL d   1     -46.719  13.375  22.708  0.00  0.00    -0.257 N 
ATOM      8  C   UNL d   1     -49.345  13.146  23.257  0.00  0.00     0.019 A 
ATOM      9  C   UNL d   1     -49.677  11.531  23.440  0.00  0.00     0.021 A 
ATOM     10  C   UNL d   1     -50.106  12.893  23.429  0.00  0.00     0.002 A 
ATOM     11  C   UNL d   1     -50.280  12.099  23.521  0.00  0.00     0.002 A 
ATOM     12  O   UNL d   1     -47.946  14.107  22.904  0.00  0.00    -0.245 OA
ATOM     13  C   UNL d   1     -46.316  14.066  22.577  0.00  0.00     0.085 A 
ATOM     14  C   UNL d   1     -46.316  12.644  22.678  0.00  0.00     0.085 A 
ATOM     15  C   UNL d   1     -50.704  13.469  23.509  0.00  0.00     0.000 C 
ATOM     16  C   UNL d   1     -51.064  11.855  23.698  0.00  0.00     0.000 C 
ATOM     17  C   UNL d   1     -45.507  14.052  22.414  0.00  0.00     0.019 A 
ATOM     18  C   UNL d   1     -45.500  12.630  22.514  0.00  0.00     0.019 A 
ATOM     19  C   UNL d   1     -45.105  13.346  22.383  0.00  0.00     0.003 A 
ENDROOT
TORSDOF 0
ENDMDL
MODEL 6
REMARK VINA RESULT:      -7.5      1.805      4.453
REMARK  0 active torsions:
REMARK  status: ('A' for Active; 'I' for Inactive)
REMARK       I    between atoms: C_2  and  N_1 
REMARK       I    between atoms: N_7  and  C_2 
ROOT
ATOM      1  N   UNL d   1     -46.143  12.295  23.043  0.00  0.00    -0.241 N 
ATOM      2  C   UNL d   1     -46.086  11.517  23.372  0.00  0.00     0.341 C 
ATOM      3  C   UNL d   1     -46.797  12.772  22.994  0.00  0.00     0.087 A 
ATOM      4  C   UNL d   1     -45.512  12.691  22.712  0.00  0.00     0.186 A 
ATOM      5  N   UNL d   1     -45.782  13.425  22.455  0.00  0.00    -0.224 NA
ATOM      6  C   UNL d   1     -46.582  13.472  22.633  0.00  0.00     0.099 A 
ATOM      7  N   UNL d   1     -45.371  11.108  23.376  0.00  0.00    -0.257 N 
ATOM      8  C   UNL d   1     -47.574  12.651  23.240  0.00  0.00     0.019 A 
ATOM      9  C   UNL d   1     -47.140  14.073  22.505  0.00  0.00     0.021 A 
ATOM     10  C   UNL d   1     -48.127  13.242  23.116  0.00  0.00     0.002 A 
ATOM     11  C   UNL d   1     -47.924  13.947  22.755  0.00  0.00     0.002 A 
ATOM     12  O   UNL d   1     -46.776  11.179  23.692  0.00  0.00    -0.245 OA
ATOM     13  C   UNL d   1     -45.327  10.363  23.694  0.00  0.00     0.085 A 
ATOM     14  C   UNL d   1     -44.690  11.463  23.050  0.00  0.00     0.085 A 
ATOM     15  C   UNL d   1     -48.911  13.108  23.369  0.00  0.00     0.000 C 
ATOM     16  C   UNL d   1     -48.503  14.545  22.634  0.00  0.00     0.000 C 
ATOM     17  C   UNL d   1     -44.611   9.953  23.697  0.00  0.00     0.019 A 
ATOM     18  C   UNL d   1     -43.967  11.050  23.054  0.00  0.00     0.019 A 
ATOM     19  C   UNL d   1     -43.942  10.290  23.383  0.00  0.00     0.003 A 
ENDROOT
TORSDOF 0
ENDMDL
MODEL 7
REMARK VINA RESULT:      -6.8      8.895     10.379
REMARK  0 active torsions:
REMARK  status: ('A' for Active; 'I' for Inactive)
REMARK       I    between atoms: C_2  and  N_1 
REMARK       I    between atoms: N_7  and  C_2 
ROOT
ATOM      1  N   UNL d   1     -39.641  14.663  18.288  0.00  0.00    -0.241 N 
ATOM      2  C   UNL d   1     -39.733  14.380  19.081  0.00  0.00     0.341 C 
ATOM      3  C   UNL d   1     -39.220  14.330  17.682  0.00  0.00     0.087 A 
ATOM      4  C   UNL d   1     -39.984  15.351  18.013  0.00  0.00     0.186 A 
ATOM      5  N   UNL d   1     -39.770  15.441  17.224  0.00  0.00    -0.224 NA
ATOM      6  C   UNL d   1     -39.294  14.804  17.021  0.00  0.00     0.099 A 
ATOM      7  N   UNL d   1     -40.186  14.793  19.631  0.00  0.00    -0.257 N 
ATOM      8  C   UNL d   1     -38.770  13.640  17.651  0.00  0.00     0.019 A 
ATOM      9  C   UNL d   1     -38.920  14.602  16.308  0.00  0.00     0.021 A 
ATOM     10  C   UNL d   1     -38.399  13.437  16.949  0.00  0.00     0.002 A 
ATOM     11  C   UNL d   1     -38.467  13.904  16.281  0.00  0.00     0.002 A 
ATOM     12  O   UNL d   1     -39.351  13.669  19.285  0.00  0.00    -0.245 OA
ATOM     13  C   UNL d   1     -40.267  14.512  20.387  0.00  0.00     0.085 A 
ATOM     14  C   UNL d   1     -40.561  15.503  19.407  0.00  0.00     0.085 A 
ATOM     15  C   UNL d   1     -37.947  12.736  16.931  0.00  0.00     0.000 C 
ATOM     16  C   UNL d   1     -38.080  13.683  15.568  0.00  0.00     0.000 C 
ATOM     17  C   UNL d   1     -40.720  14.926  20.939  0.00  0.00     0.019 A 
ATOM     18  C   UNL d   1     -41.019  15.921  19.964  0.00  0.00     0.019 A 
ATOM     19  C   UNL d   1     -41.090  15.618  20.731  0.00  0.00     0.003 A 
ENDROOT
TORSDOF 0
ENDMDL
MODEL 8
REMARK VINA RESULT:      -6.5      8.631     10.439
REMARK  0 active torsions:
REMARK  status: ('A' for Active; 'I' for Inactive)
REMARK       I    between atoms: C_2  and  N_1 
REMARK       I    between atoms: N_7  and  C_2 
ROOT
ATOM      1  N   UNL d   1     -39.734  14.814  18.542  0.00  0.00    -0.241 N 
ATOM      2  C   UNL d   1     -39.180  14.205  18.343  0.00  0.00     0.341 C 
ATOM      3  C   UNL d   1     -40.052  14.985  19.267  0.00  0.00     0.087 A 
ATOM      4  C   UNL d   1     -40.038  15.341  17.998  0.00  0.00     0.186 A 
ATOM      5  N   UNL d   1     -40.553  15.844  18.397  0.00  0.00    -0.224 NA
ATOM      6  C   UNL d   1     -40.559  15.619  19.187  0.00  0.00     0.099 A 
ATOM      7  N   UNL d   1     -38.912  14.110  17.569  0.00  0.00    -0.257 N 
ATOM      8  C   UNL d   1     -39.940  14.632  20.003  0.00  0.00     0.019 A 
ATOM      9  C   UNL d   1     -40.970  15.922  19.841  0.00  0.00     0.021 A 
ATOM     10  C   UNL d   1     -40.344  14.928  20.652  0.00  0.00     0.002 A 
ATOM     11  C   UNL d   1     -40.854  15.563  20.583  0.00  0.00     0.002 A 
ATOM     12  O   UNL d   1     -38.915  13.706  18.954  0.00  0.00    -0.245 OA
ATOM     13  C   UNL d   1     -38.381  13.523  17.390  0.00  0.00     0.085 A 
ATOM     14  C   UNL d   1     -39.189  14.620  16.970  0.00  0.00     0.085 A 
ATOM     15  C   UNL d   1     -40.221  14.562  21.392  0.00  0.00     0.000 C 
ATOM     16  C   UNL d   1     -41.261  15.855  21.258  0.00  0.00     0.000 C 
ATOM     17  C   UNL d   1     -38.113  13.428  16.616  0.00  0.00     0.019 A 
ATOM     18  C   UNL d   1     -38.918  14.524  16.188  0.00  0.00     0.019 A 
ATOM     19  C   UNL d   1     -38.376  13.919  16.025  0.00  0.00     0.003 A 
ENDROOT
TORSDOF 0
ENDMDL
MODEL 9
REMARK VINA RESULT:      -6.2      9.230     10.270
REMARK  0 active torsions:
REMARK  status: ('A' for Active; 'I' for Inactive)
REMARK       I    between atoms: C_2  and  N_1 
REMARK       I    between atoms: N_7  and  C_2 
ROOT
ATOM      1  N   UNL d   1     -39.516  14.356  19.785  0.00  0.00    -0.241 N 
ATOM      2  C   UNL d   1     -38.862  13.896  20.066  0.00  0.00     0.341 C 
ATOM      3  C   UNL d   1     -39.727  14.511  19.019  0.00  0.00     0.087 A 
ATOM      4  C   UNL d   1     -40.051  14.725  20.279  0.00  0.00     0.186 A 
ATOM      5  N   UNL d   1     -40.600  15.114  19.806  0.00  0.00    -0.224 NA
ATOM      6  C   UNL d   1     -40.396  14.979  19.023  0.00  0.00     0.099 A 
ATOM      7  N   UNL d   1     -38.728  13.794  20.873  0.00  0.00    -0.257 N 
ATOM      8  C   UNL d   1     -39.385  14.279  18.306  0.00  0.00     0.019 A 
ATOM      9  C   UNL d   1     -40.744  15.230  18.312  0.00  0.00     0.021 A 
ATOM     10  C   UNL d   1     -39.725  14.524  17.602  0.00  0.00     0.002 A 
ATOM     11  C   UNL d   1     -40.395  14.993  17.594  0.00  0.00     0.002 A 
ATOM     12  O   UNL d   1     -38.359  13.550  19.500  0.00  0.00    -0.245 OA
ATOM     13  C   UNL d   1     -38.099  13.352  21.130  0.00  0.00     0.085 A 
ATOM     14  C   UNL d   1     -39.243  14.149  21.425  0.00  0.00     0.085 A 
ATOM     15  C   UNL d   1     -39.369  14.283  16.888  0.00  0.00     0.000 C 
ATOM     16  C   UNL d   1     -40.734  15.237  16.864  0.00  0.00     0.000 C 
ATOM     17  C   UNL d   1     -37.965  13.250  21.938  0.00  0.00     0.019 A 
ATOM     18  C   UNL d   1     -39.107  14.046  22.241  0.00  0.00     0.019 A 
ATOM     19  C   UNL d   1     -38.460  13.591  22.484  0.00  0.00     0.003 A 
ENDROOT
TORSDOF 0
ENDMDL
