MODEL 1
REMARK VINA RESULT:      82.3      0.000      0.000
REMARK  4 active torsions:
REMARK  status: ('A' for Active; 'I' for Inactive)
REMARK    1  A    between atoms: C_12  and  N_3 
REMARK    2  A    between atoms: C_13  and  N_10 
REMARK    3  A    between atoms: C_21  and  C_12 
REMARK    4  A    between atoms: C_16  and  C_13 
ROOT
ATOM      1  C   UNL d   1     -47.982  29.156  35.188  0.00  0.00     0.191 A 
ATOM      2  C   UNL d   1     -48.455  29.649  34.728  0.00  0.00     0.173 A 
ATOM      3  N   UNL d   1     -47.818  30.795  35.290  0.00  0.00    -0.224 N 
ATOM      4  N   UNL d   1     -48.189  28.374  35.019  0.00  0.00    -0.042 NA
ATOM      5  C   UNL d   1     -48.794  28.391  34.450  0.00  0.00     0.722 A 
ATOM      6  N   UNL d   1     -48.956  29.178  34.272  0.00  0.00    -0.131 N 
ATOM      7  N   UNL d   1     -47.422  29.487  35.704  0.00  0.00    -0.240 N 
ATOM      8  C   UNL d   1     -47.341  30.302  35.754  0.00  0.00     0.343 A 
ATOM      9  C   UNL d   1     -48.377  30.472  34.775  0.00  0.00     0.288 A 
ATOM     10  N   UNL d   1     -49.291  27.920  33.998  0.00  0.00    -0.135 N 
ATOM     11  C   UNL d   1     -49.552  29.190  33.712  0.00  0.00     0.118 A 
ATOM     12  O   UNL d   1     -46.782  30.634  36.269  0.00  0.00    -0.245 OA
ATOM     13  O   UNL d   1     -48.854  30.965  34.311  0.00  0.00    -0.265 OA
ATOM     14  C   UNL d   1     -49.765  28.416  33.536  0.00  0.00     0.118 A 
ATOM     15  C   UNL d   1     -46.945  28.995  36.168  0.00  0.00     0.105 C 
ENDROOT
BRANCH   3  16
ATOM     16  C   UNL d   1     -47.738  31.615  35.339  0.00  0.00     0.087 C 
BRANCH  16  17
ATOM     17  C   UNL d   1     -47.581  32.067  34.651  0.00  0.00     0.018 A 
ATOM     18  C   UNL d   1     -48.164  32.525  34.320  0.00  0.00     0.002 A 
ATOM     19  C   UNL d   1     -48.010  32.966  33.647  0.00  0.00     0.000 A 
ATOM     20  C   UNL d   1     -48.596  33.431  33.307  0.00  0.00     0.000 C 
ATOM     21  C   UNL d   1     -47.256  32.943  33.306  0.00  0.00     0.000 A 
ATOM     22  C   UNL d   1     -46.658  32.482  33.633  0.00  0.00     0.000 A 
ATOM     23  C   UNL d   1     -46.820  32.044  34.306  0.00  0.00     0.002 A 
ENDBRANCH  16  17
ENDBRANCH   3  16
BRANCH  10  24
ATOM     24  C   UNL d   1     -49.316  27.095  34.001  0.00  0.00     0.123 C 
BRANCH  24  25
ATOM     25  C   UNL d   1     -50.011  26.705  33.765  0.00  0.00     0.118 A 
ATOM     26  O   UNL d   1     -50.768  27.019  33.758  0.00  0.00    -0.304 OA
ATOM     27  C   UNL d   1     -51.282  26.449  33.488  0.00  0.00     0.123 A 
ATOM     28  C   UNL d   1     -50.841  25.764  33.322  0.00  0.00     0.029 A 
ATOM     29  C   UNL d   1     -50.050  25.927  33.495  0.00  0.00     0.028 A 
ENDBRANCH  24  25
ENDBRANCH  10  24
TORSDOF 4
ENDMDL
