MODEL 1
REMARK VINA RESULT:      10.0      0.000      0.000
REMARK  1 active torsions:
REMARK  status: ('A' for Active; 'I' for Inactive)
REMARK    1  A    between atoms: C_6  and  C_3 
ROOT
ATOM      1  O   UNL d   1     -56.953 -98.792 -43.895  0.00  0.00    -0.260 OA
ATOM      2  N   UNL d   1     -57.189 -98.764 -45.231  0.00  0.00    -0.120 NA
ATOM      3  C   UNL d   1     -57.535 -98.778 -44.454  0.00  0.00     0.205 A 
ATOM      4  N   UNL d   1     -56.404 -98.769 -45.136  0.00  0.00    -0.109 NA
ATOM      5  C   UNL d   1     -56.202 -98.786 -44.356  0.00  0.00     0.262 A 
ATOM      6  S   UNL d   1     -55.436 -98.795 -44.100  0.00  0.00    -0.029 SA
ENDROOT
BRANCH   3   7
ATOM      7  C   UNL d   1     -58.322 -98.778 -44.283  0.00  0.00     0.043 A 
ATOM      8  C   UNL d   1     -58.566 -98.756 -43.481  0.00  0.00     0.004 A 
ATOM      9  C   UNL d   1     -59.369 -98.756 -43.297  0.00  0.00     0.000 A 
ATOM     10  C   UNL d   1     -59.936 -98.777 -43.915  0.00  0.00     0.000 A 
ATOM     11  C   UNL d   1     -59.673 -98.798 -44.697  0.00  0.00     0.000 A 
ATOM     12  C   UNL d   1     -58.880 -98.799 -44.901  0.00  0.00     0.004 A 
ENDBRANCH   3   7
TORSDOF 1
ENDMDL
MODEL 2
REMARK VINA RESULT:      12.0      1.666      2.839
REMARK  1 active torsions:
REMARK  status: ('A' for Active; 'I' for Inactive)
REMARK    1  A    between atoms: C_6  and  C_3 
ROOT
ATOM      1  O   UNL d   1     -58.350 -98.765 -43.582  0.00  0.00    -0.260 OA
ATOM      2  N   UNL d   1     -58.629 -98.756 -44.910  0.00  0.00    -0.120 NA
ATOM      3  C   UNL d   1     -58.018 -98.762 -44.318  0.00  0.00     0.205 A 
ATOM      4  N   UNL d   1     -59.322 -98.755 -44.529  0.00  0.00    -0.109 NA
ATOM      5  C   UNL d   1     -59.218 -98.760 -43.729  0.00  0.00     0.262 A 
ATOM      6  S   UNL d   1     -59.833 -98.760 -43.205  0.00  0.00    -0.029 SA
ENDROOT
BRANCH   3   7
ATOM      7  C   UNL d   1     -57.224 -98.765 -44.453  0.00  0.00     0.043 A 
ATOM      8  C   UNL d   1     -56.699 -98.778 -43.800  0.00  0.00     0.004 A 
ATOM      9  C   UNL d   1     -55.885 -98.781 -43.929  0.00  0.00     0.000 A 
ATOM     10  C   UNL d   1     -55.590 -98.771 -44.714  0.00  0.00     0.000 A 
ATOM     11  C   UNL d   1     -56.125 -98.758 -45.342  0.00  0.00     0.000 A 
ATOM     12  C   UNL d   1     -56.937 -98.755 -45.235  0.00  0.00     0.004 A 
ENDBRANCH   3   7
TORSDOF 1
ENDMDL
