MODEL 1
REMARK VINA RESULT:      16.0      0.000      0.000
REMARK  1 active torsions:
REMARK  status: ('A' for Active; 'I' for Inactive)
REMARK    1  A    between atoms: C_7  and  C_2 
ROOT
ATOM      1  C   UNL d   1      14.361  12.922  -1.772  0.00  0.00     0.070 A 
ATOM      2  C   UNL d   1      14.562  12.759  -1.010  0.00  0.00     0.170 A 
ATOM      3  C   UNL d   1      13.864  12.326  -2.062  0.00  0.00     0.108 A 
ATOM      4  N   UNL d   1      14.186  12.035  -0.793  0.00  0.00    -0.142 NA
ATOM      5  N   UNL d   1      13.758  11.779  -1.455  0.00  0.00    -0.148 NA
ATOM      6  C   UNL d   1      13.584  12.375  -2.840  0.00  0.00     0.042 A 
ATOM      7  C   UNL d   1      14.574  13.558  -2.252  0.00  0.00     0.126 A 
ATOM      8  O   UNL d   1      14.294  13.606  -3.030  0.00  0.00    -0.305 OA
ATOM      9  C   UNL d   1      13.797  13.010  -3.321  0.00  0.00     0.102 A 
ATOM     10  C   UNL d   1      13.087  11.779  -3.131  0.00  0.00     0.004 A 
ATOM     11  C   UNL d   1      13.517  13.059  -4.099  0.00  0.00     0.025 A 
ATOM     12  C   UNL d   1      12.813  11.832  -3.901  0.00  0.00     0.000 A 
ATOM     13  C   UNL d   1      13.026  12.468  -4.381  0.00  0.00     0.002 A 
ENDROOT
BRANCH   2  14
ATOM     14  C   UNL d   1      15.046  13.236  -0.561  0.00  0.00     0.231 C 
ATOM     15  O   UNL d   1      15.857  13.193  -0.646  0.00  0.00    -0.643 OA
ATOM     16  O   UNL d   1      14.717  13.765  -0.018  0.00  0.00    -0.643 OA
ENDBRANCH   2  14
TORSDOF 1
ENDMDL
