MODEL 1
REMARK VINA RESULT:      -6.8      0.000      0.000
REMARK  3 active torsions:
REMARK  status: ('A' for Active; 'I' for Inactive)
REMARK    1  A    between atoms: C_5  and  C_1 
REMARK    2  A    between atoms: N_8  and  C_5 
REMARK    3  A    between atoms: C_10  and  C_5 
ROOT
ATOM      1  C   UNL d   1     -39.664  14.453  18.127  0.00  0.00     0.085 C 
ENDROOT
BRANCH   1   2
ATOM      2  C   UNL d   1     -39.719  14.596  18.944  0.00  0.00     0.059 A 
ATOM      3  C   UNL d   1     -39.171  15.102  19.301  0.00  0.00     0.214 A 
ATOM      4  C   UNL d   1     -39.229  15.241  20.110  0.00  0.00     0.121 A 
ATOM      5  O   UNL d   1     -38.584  15.457  18.858  0.00  0.00    -0.285 OA
ATOM      6  N   UNL d   1     -38.681  15.747  20.467  0.00  0.00    -0.241 NA
ATOM      7  C   UNL d   1     -39.822  14.882  20.558  0.00  0.00     0.032 A 
ATOM      8  C   UNL d   1     -38.738  15.888  21.280  0.00  0.00     0.099 A 
ATOM      9  C   UNL d   1     -39.329  15.532  21.739  0.00  0.00     0.021 A 
ATOM     10  C   UNL d   1     -39.875  15.024  21.368  0.00  0.00     0.004 A 
ATOM     11  C   UNL d   1     -40.365  14.379  20.202  0.00  0.00     0.059 A 
ATOM     12  C   UNL d   1     -40.313  14.235  19.387  0.00  0.00     0.016 A 
ATOM     13 CL   UNL d   1     -40.955  14.022  20.647  0.00  0.00    -0.082 Cl
ENDBRANCH   1   2
BRANCH   1  14
ATOM     14  N   UNL d   1     -40.096  14.903  17.599  0.00  0.00    -0.302 N 
ATOM     15  C   UNL d   1     -40.916  14.793  17.527  0.00  0.00     0.080 A 
ATOM     16  C   UNL d   1     -41.354  15.250  16.992  0.00  0.00     0.019 A 
ATOM     17  C   UNL d   1     -40.967  15.811  16.534  0.00  0.00     0.003 A 
ATOM     18  C   UNL d   1     -40.154  15.922  16.603  0.00  0.00     0.019 A 
ATOM     19  C   UNL d   1     -39.723  15.472  17.130  0.00  0.00     0.080 A 
ENDBRANCH   1  14
BRANCH   1  20
ATOM     20  C   UNL d   1     -39.168  13.849  17.857  0.00  0.00     0.098 A 
ATOM     21  N   UNL d   1     -39.408  13.060  17.915  0.00  0.00    -0.243 NA
ATOM     22  C   UNL d   1     -38.924  12.462  17.650  0.00  0.00     0.099 A 
ATOM     23  C   UNL d   1     -38.185  12.641  17.321  0.00  0.00     0.021 A 
ATOM     24  C   UNL d   1     -37.940  13.427  17.261  0.00  0.00     0.003 A 
ATOM     25  C   UNL d   1     -38.432  14.028  17.529  0.00  0.00     0.021 A 
ENDBRANCH   1  20
TORSDOF 3
ENDMDL
MODEL 2
REMARK VINA RESULT:      -6.6      0.349      2.109
REMARK  3 active torsions:
REMARK  status: ('A' for Active; 'I' for Inactive)
REMARK    1  A    between atoms: C_5  and  C_1 
REMARK    2  A    between atoms: N_8  and  C_5 
REMARK    3  A    between atoms: C_10  and  C_5 
ROOT
ATOM      1  C   UNL d   1     -39.604  14.449  18.080  0.00  0.00     0.085 C 
ENDROOT
BRANCH   1   2
ATOM      2  C   UNL d   1     -39.650  14.606  18.895  0.00  0.00     0.059 A 
ATOM      3  C   UNL d   1     -39.093  15.110  19.240  0.00  0.00     0.214 A 
ATOM      4  C   UNL d   1     -39.143  15.263  20.047  0.00  0.00     0.121 A 
ATOM      5  O   UNL d   1     -38.504  15.450  18.787  0.00  0.00    -0.285 OA
ATOM      6  N   UNL d   1     -38.586  15.767  20.392  0.00  0.00    -0.241 NA
ATOM      7  C   UNL d   1     -39.738  14.920  20.505  0.00  0.00     0.032 A 
ATOM      8  C   UNL d   1     -38.635  15.922  21.203  0.00  0.00     0.099 A 
ATOM      9  C   UNL d   1     -39.228  15.582  21.672  0.00  0.00     0.021 A 
ATOM     10  C   UNL d   1     -39.784  15.076  21.313  0.00  0.00     0.004 A 
ATOM     11  C   UNL d   1     -40.291  14.419  20.161  0.00  0.00     0.059 A 
ATOM     12  C   UNL d   1     -40.247  14.260  19.348  0.00  0.00     0.016 A 
ATOM     13 CL   UNL d   1     -40.883  14.078  20.616  0.00  0.00    -0.082 Cl
ENDBRANCH   1   2
BRANCH   1  14
ATOM     14  N   UNL d   1     -39.094  13.876  17.799  0.00  0.00    -0.302 N 
ATOM     15  C   UNL d   1     -39.218  13.075  17.985  0.00  0.00     0.080 A 
ATOM     16  C   UNL d   1     -38.701  12.494  17.700  0.00  0.00     0.019 A 
ATOM     17  C   UNL d   1     -38.065  12.719  17.231  0.00  0.00     0.003 A 
ATOM     18  C   UNL d   1     -37.940  13.511  17.045  0.00  0.00     0.019 A 
ATOM     19  C   UNL d   1     -38.449  14.083  17.326  0.00  0.00     0.080 A 
ENDBRANCH   1  14
BRANCH   1  20
ATOM     20  C   UNL d   1     -40.079  14.880  17.560  0.00  0.00     0.098 A 
ATOM     21  N   UNL d   1     -40.883  14.696  17.486  0.00  0.00    -0.243 NA
ATOM     22  C   UNL d   1     -41.356  15.117  16.975  0.00  0.00     0.099 A 
ATOM     23  C   UNL d   1     -41.035  15.734  16.525  0.00  0.00     0.021 A 
ATOM     24  C   UNL d   1     -40.234  15.922  16.594  0.00  0.00     0.003 A 
ATOM     25  C   UNL d   1     -39.760  15.494  17.111  0.00  0.00     0.021 A 
ENDBRANCH   1  20
TORSDOF 3
ENDMDL
MODEL 3
REMARK VINA RESULT:      -5.9      9.059     10.190
REMARK  3 active torsions:
REMARK  status: ('A' for Active; 'I' for Inactive)
REMARK    1  A    between atoms: C_5  and  C_1 
REMARK    2  A    between atoms: N_8  and  C_5 
REMARK    3  A    between atoms: C_10  and  C_5 
ROOT
ATOM      1  C   UNL d   1     -49.039  13.718  22.376  0.00  0.00     0.085 C 
ENDROOT
BRANCH   1   2
ATOM      2  C   UNL d   1     -48.290  13.376  22.487  0.00  0.00     0.059 A 
ATOM      3  C   UNL d   1     -48.218  12.715  22.977  0.00  0.00     0.214 A 
ATOM      4  C   UNL d   1     -47.473  12.380  23.084  0.00  0.00     0.121 A 
ATOM      5  O   UNL d   1     -48.874  12.400  23.348  0.00  0.00    -0.285 OA
ATOM      6  N   UNL d   1     -47.401  11.718  23.574  0.00  0.00    -0.241 NA
ATOM      7  C   UNL d   1     -46.811  12.698  22.709  0.00  0.00     0.032 A 
ATOM      8  C   UNL d   1     -46.655  11.380  23.683  0.00  0.00     0.099 A 
ATOM      9  C   UNL d   1     -45.982  11.692  23.311  0.00  0.00     0.021 A 
ATOM     10  C   UNL d   1     -46.067  12.359  22.819  0.00  0.00     0.004 A 
ATOM     11  C   UNL d   1     -46.884  13.355  22.222  0.00  0.00     0.059 A 
ATOM     12  C   UNL d   1     -47.630  13.698  22.110  0.00  0.00     0.016 A 
ATOM     13 CL   UNL d   1     -46.225  13.672  21.849  0.00  0.00    -0.082 Cl
ENDBRANCH   1   2
BRANCH   1  14
ATOM     14  N   UNL d   1     -49.213  14.447  22.700  0.00  0.00    -0.302 N 
ATOM     15  C   UNL d   1     -48.894  15.140  22.370  0.00  0.00     0.080 A 
ATOM     16  C   UNL d   1     -49.070  15.880  22.700  0.00  0.00     0.019 A 
ATOM     17  C   UNL d   1     -49.563  15.919  23.355  0.00  0.00     0.003 A 
ATOM     18  C   UNL d   1     -49.881  15.235  23.684  0.00  0.00     0.019 A 
ATOM     19  C   UNL d   1     -49.707  14.506  23.360  0.00  0.00     0.080 A 
ENDBRANCH   1  14
BRANCH   1  20
ATOM     20  C   UNL d   1     -49.606  13.309  21.934  0.00  0.00     0.098 A 
ATOM     21  N   UNL d   1     -50.225  12.917  22.317  0.00  0.00    -0.243 NA
ATOM     22  C   UNL d   1     -50.786  12.513  21.887  0.00  0.00     0.099 A 
ATOM     23  C   UNL d   1     -50.739  12.492  21.060  0.00  0.00     0.021 A 
ATOM     24  C   UNL d   1     -50.123  12.882  20.672  0.00  0.00     0.003 A 
ATOM     25  C   UNL d   1     -49.560  13.288  21.110  0.00  0.00     0.021 A 
ENDBRANCH   1  20
TORSDOF 3
ENDMDL
MODEL 4
REMARK VINA RESULT:      -5.9      1.734      3.445
REMARK  3 active torsions:
REMARK  status: ('A' for Active; 'I' for Inactive)
REMARK    1  A    between atoms: C_5  and  C_1 
REMARK    2  A    between atoms: N_8  and  C_5 
REMARK    3  A    between atoms: C_10  and  C_5 
ROOT
ATOM      1  C   UNL d   1     -39.482  14.611  20.369  0.00  0.00     0.085 C 
ENDROOT
BRANCH   1   2
ATOM      2  C   UNL d   1     -39.220  14.591  19.581  0.00  0.00     0.059 A 
ATOM      3  C   UNL d   1     -38.839  15.253  19.266  0.00  0.00     0.214 A 
ATOM      4  C   UNL d   1     -38.581  15.228  18.485  0.00  0.00     0.121 A 
ATOM      5  O   UNL d   1     -38.721  15.920  19.723  0.00  0.00    -0.285 OA
ATOM      6  N   UNL d   1     -38.199  15.891  18.170  0.00  0.00    -0.241 NA
ATOM      7  C   UNL d   1     -38.700  14.555  18.023  0.00  0.00     0.032 A 
ATOM      8  C   UNL d   1     -37.940  15.868  17.386  0.00  0.00     0.099 A 
ATOM      9  C   UNL d   1     -38.054  15.196  16.913  0.00  0.00     0.021 A 
ATOM     10  C   UNL d   1     -38.439  14.535  17.241  0.00  0.00     0.004 A 
ATOM     11  C   UNL d   1     -39.078  13.897  18.337  0.00  0.00     0.059 A 
ATOM     12  C   UNL d   1     -39.341  13.915  19.123  0.00  0.00     0.016 A 
ATOM     13 CL   UNL d   1     -39.197  13.227  17.878  0.00  0.00    -0.082 Cl
ENDBRANCH   1   2
BRANCH   1  14
ATOM     14  N   UNL d   1     -40.238  14.866  20.546  0.00  0.00    -0.302 N 
ATOM     15  C   UNL d   1     -40.869  14.326  20.563  0.00  0.00     0.080 A 
ATOM     16  C   UNL d   1     -41.636  14.585  20.743  0.00  0.00     0.019 A 
ATOM     17  C   UNL d   1     -41.763  15.380  20.904  0.00  0.00     0.003 A 
ATOM     18  C   UNL d   1     -41.140  15.917  20.888  0.00  0.00     0.019 A 
ATOM     19  C   UNL d   1     -40.385  15.663  20.711  0.00  0.00     0.080 A 
ENDBRANCH   1  14
BRANCH   1  20
ATOM     20  C   UNL d   1     -38.968  14.371  20.970  0.00  0.00     0.098 A 
ATOM     21  N   UNL d   1     -38.528  14.935  21.387  0.00  0.00    -0.243 NA
ATOM     22  C   UNL d   1     -38.020  14.705  21.979  0.00  0.00     0.099 A 
ATOM     23  C   UNL d   1     -37.941  13.902  22.170  0.00  0.00     0.021 A 
ATOM     24  C   UNL d   1     -38.378  13.335  21.757  0.00  0.00     0.003 A 
ATOM     25  C   UNL d   1     -38.889  13.572  21.160  0.00  0.00     0.021 A 
ENDBRANCH   1  20
TORSDOF 3
ENDMDL
MODEL 5
REMARK VINA RESULT:      -5.8      1.656      3.946
REMARK  3 active torsions:
REMARK  status: ('A' for Active; 'I' for Inactive)
REMARK    1  A    between atoms: C_5  and  C_1 
REMARK    2  A    between atoms: N_8  and  C_5 
REMARK    3  A    between atoms: C_10  and  C_5 
ROOT
ATOM      1  C   UNL d   1     -39.509  14.598  20.240  0.00  0.00     0.085 C 
ENDROOT
BRANCH   1   2
ATOM      2  C   UNL d   1     -39.283  14.598  19.441  0.00  0.00     0.059 A 
ATOM      3  C   UNL d   1     -38.895  15.260  19.133  0.00  0.00     0.214 A 
ATOM      4  C   UNL d   1     -38.673  15.257  18.341  0.00  0.00     0.121 A 
ATOM      5  O   UNL d   1     -38.737  15.906  19.607  0.00  0.00    -0.285 OA
ATOM      6  N   UNL d   1     -38.285  15.919  18.033  0.00  0.00    -0.241 NA
ATOM      7  C   UNL d   1     -38.833  14.604  17.862  0.00  0.00     0.032 A 
ATOM      8  C   UNL d   1     -38.061  15.917  17.237  0.00  0.00     0.099 A 
ATOM      9  C   UNL d   1     -38.217  15.267  16.746  0.00  0.00     0.021 A 
ATOM     10  C   UNL d   1     -38.608  14.605  17.068  0.00  0.00     0.004 A 
ATOM     11  C   UNL d   1     -39.218  13.947  18.169  0.00  0.00     0.059 A 
ATOM     12  C   UNL d   1     -39.445  13.944  18.966  0.00  0.00     0.016 A 
ATOM     13 CL   UNL d   1     -39.377  13.298  17.692  0.00  0.00    -0.082 Cl
ENDBRANCH   1   2
BRANCH   1  14
ATOM     14  N   UNL d   1     -38.989  14.344  20.817  0.00  0.00    -0.302 N 
ATOM     15  C   UNL d   1     -38.849  13.532  20.928  0.00  0.00     0.080 A 
ATOM     16  C   UNL d   1     -38.322  13.274  21.513  0.00  0.00     0.019 A 
ATOM     17  C   UNL d   1     -37.939  13.831  21.981  0.00  0.00     0.003 A 
ATOM     18  C   UNL d   1     -38.076  14.635  21.873  0.00  0.00     0.019 A 
ATOM     19  C   UNL d   1     -38.595  14.889  21.297  0.00  0.00     0.080 A 
ENDBRANCH   1  14
BRANCH   1  20
ATOM     20  C   UNL d   1     -40.267  14.858  20.444  0.00  0.00     0.098 A 
ATOM     21  N   UNL d   1     -40.400  15.660  20.601  0.00  0.00    -0.243 NA
ATOM     22  C   UNL d   1     -41.144  15.922  20.802  0.00  0.00     0.099 A 
ATOM     23  C   UNL d   1     -41.774  15.386  20.850  0.00  0.00     0.021 A 
ATOM     24  C   UNL d   1     -41.647  14.585  20.694  0.00  0.00     0.003 A 
ATOM     25  C   UNL d   1     -40.895  14.325  20.492  0.00  0.00     0.021 A 
ENDBRANCH   1  20
TORSDOF 3
ENDMDL
MODEL 6
REMARK VINA RESULT:      -5.0      8.869     10.048
REMARK  3 active torsions:
REMARK  status: ('A' for Active; 'I' for Inactive)
REMARK    1  A    between atoms: C_5  and  C_1 
REMARK    2  A    between atoms: N_8  and  C_5 
REMARK    3  A    between atoms: C_10  and  C_5 
ROOT
ATOM      1  C   UNL d   1     -47.857  13.033  22.511  0.00  0.00     0.085 C 
ENDROOT
BRANCH   1   2
ATOM      2  C   UNL d   1     -48.514  13.526  22.385  0.00  0.00     0.059 A 
ATOM      3  C   UNL d   1     -48.754  14.038  22.987  0.00  0.00     0.214 A 
ATOM      4  C   UNL d   1     -49.405  14.525  22.858  0.00  0.00     0.121 A 
ATOM      5  O   UNL d   1     -48.351  14.061  23.698  0.00  0.00    -0.285 OA
ATOM      6  N   UNL d   1     -49.645  15.037  23.461  0.00  0.00    -0.241 NA
ATOM      7  C   UNL d   1     -49.812  14.502  22.141  0.00  0.00     0.032 A 
ATOM      8  C   UNL d   1     -50.299  15.527  23.333  0.00  0.00     0.099 A 
ATOM      9  C   UNL d   1     -50.716  15.512  22.617  0.00  0.00     0.021 A 
ATOM     10  C   UNL d   1     -50.464  14.991  22.017  0.00  0.00     0.004 A 
ATOM     11  C   UNL d   1     -49.573  13.992  21.543  0.00  0.00     0.059 A 
ATOM     12  C   UNL d   1     -48.918  13.499  21.666  0.00  0.00     0.016 A 
ATOM     13 CL   UNL d   1     -49.979  13.969  20.830  0.00  0.00    -0.082 Cl
ENDBRANCH   1   2
BRANCH   1  14
ATOM     14  N   UNL d   1     -47.962  12.253  22.730  0.00  0.00    -0.302 N 
ATOM     15  C   UNL d   1     -47.705  11.988  23.475  0.00  0.00     0.080 A 
ATOM     16  C   UNL d   1     -47.811  11.196  23.697  0.00  0.00     0.019 A 
ATOM     17  C   UNL d   1     -48.174  10.679  23.173  0.00  0.00     0.003 A 
ATOM     18  C   UNL d   1     -48.430  10.938  22.435  0.00  0.00     0.019 A 
ATOM     19  C   UNL d   1     -48.325  11.717  22.216  0.00  0.00     0.080 A 
ENDBRANCH   1  14
BRANCH   1  20
ATOM     20  C   UNL d   1     -47.097  13.343  22.411  0.00  0.00     0.098 A 
ATOM     21  N   UNL d   1     -46.690  13.216  21.702  0.00  0.00    -0.243 NA
ATOM     22  C   UNL d   1     -45.941  13.519  21.599  0.00  0.00     0.099 A 
ATOM     23  C   UNL d   1     -45.582  13.956  22.204  0.00  0.00     0.021 A 
ATOM     24  C   UNL d   1     -45.985  14.086  22.914  0.00  0.00     0.003 A 
ATOM     25  C   UNL d   1     -46.740  13.778  23.014  0.00  0.00     0.021 A 
ENDBRANCH   1  20
TORSDOF 3
ENDMDL
MODEL 7
REMARK VINA RESULT:      -4.9      8.938     10.056
REMARK  3 active torsions:
REMARK  status: ('A' for Active; 'I' for Inactive)
REMARK    1  A    between atoms: C_5  and  C_1 
REMARK    2  A    between atoms: N_8  and  C_5 
REMARK    3  A    between atoms: C_10  and  C_5 
ROOT
ATOM      1  C   UNL d   1     -47.850  12.984  22.520  0.00  0.00     0.085 C 
ENDROOT
BRANCH   1   2
ATOM      2  C   UNL d   1     -48.546  13.412  22.366  0.00  0.00     0.059 A 
ATOM      3  C   UNL d   1     -48.871  13.881  22.964  0.00  0.00     0.214 A 
ATOM      4  C   UNL d   1     -49.560  14.303  22.806  0.00  0.00     0.121 A 
ATOM      5  O   UNL d   1     -48.514  13.924  23.698  0.00  0.00    -0.285 OA
ATOM      6  N   UNL d   1     -49.885  14.772  23.404  0.00  0.00    -0.241 NA
ATOM      7  C   UNL d   1     -49.920  14.260  22.065  0.00  0.00     0.032 A 
ATOM      8  C   UNL d   1     -50.576  15.197  23.248  0.00  0.00     0.099 A 
ATOM      9  C   UNL d   1     -50.947  15.161  22.507  0.00  0.00     0.021 A 
ATOM     10  C   UNL d   1     -50.610  14.685  21.913  0.00  0.00     0.004 A 
ATOM     11  C   UNL d   1     -49.596  13.794  21.472  0.00  0.00     0.059 A 
ATOM     12  C   UNL d   1     -48.902  13.366  21.623  0.00  0.00     0.016 A 
ATOM     13 CL   UNL d   1     -49.954  13.751  20.735  0.00  0.00    -0.082 Cl
ENDBRANCH   1   2
BRANCH   1  14
ATOM     14  N   UNL d   1     -47.122  13.351  22.479  0.00  0.00    -0.302 N 
ATOM     15  C   UNL d   1     -46.874  13.863  23.085  0.00  0.00     0.080 A 
ATOM     16  C   UNL d   1     -46.135  14.236  23.044  0.00  0.00     0.019 A 
ATOM     17  C   UNL d   1     -45.651  14.092  22.396  0.00  0.00     0.003 A 
ATOM     18  C   UNL d   1     -45.893  13.586  21.794  0.00  0.00     0.019 A 
ATOM     19  C   UNL d   1     -46.620  13.219  21.835  0.00  0.00     0.080 A 
ENDBRANCH   1  14
BRANCH   1  20
ATOM     20  C   UNL d   1     -47.906  12.183  22.716  0.00  0.00     0.098 A 
ATOM     21  N   UNL d   1     -47.793  11.940  23.499  0.00  0.00    -0.243 NA
ATOM     22  C   UNL d   1     -47.847  11.153  23.698  0.00  0.00     0.099 A 
ATOM     23  C   UNL d   1     -48.016  10.588  23.115  0.00  0.00     0.021 A 
ATOM     24  C   UNL d   1     -48.131  10.825  22.332  0.00  0.00     0.003 A 
ATOM     25  C   UNL d   1     -48.075  11.621  22.137  0.00  0.00     0.021 A 
ENDBRANCH   1  20
TORSDOF 3
ENDMDL
