MODEL 1
REMARK VINA RESULT:      18.8      0.000      0.000
REMARK  0 active torsions:
REMARK  status: ('A' for Active; 'I' for Inactive)
ROOT
ATOM      1  C   UNL d   1      46.231 -18.214  42.895  0.00  0.00     0.150 A 
ATOM      2  N   UNL d   1      46.204 -18.307  43.721  0.00  0.00    -0.275 N 
ATOM      3  N   UNL d   1      46.107 -17.431  42.712  0.00  0.00    -0.227 NA
ATOM      4  C   UNL d   1      46.304 -19.012  44.107  0.00  0.00     0.149 A 
ATOM      5  N   UNL d   1      46.441 -19.686  43.658  0.00  0.00    -0.228 NA
ATOM      6  C   UNL d   1      46.370 -18.902  42.459  0.00  0.00     0.052 A 
ATOM      7  C   UNL d   1      46.059 -17.538  44.015  0.00  0.00     0.084 A 
ATOM      8  C   UNL d   1      46.476 -19.647  42.846  0.00  0.00     0.086 A 
ATOM      9  C   UNL d   1      46.001 -17.022  43.428  0.00  0.00     0.099 A 
ATOM     10  C   UNL d   1      46.274 -19.085  44.926  0.00  0.00     0.041 C 
ATOM     11  C   UNL d   1      46.404 -18.849  41.627  0.00  0.00     0.004 A 
ATOM     12  C   UNL d   1      45.973 -17.273  44.811  0.00  0.00     0.019 A 
ATOM     13  C   UNL d   1      46.613 -20.315  42.389  0.00  0.00     0.019 A 
ATOM     14  C   UNL d   1      45.857 -16.221  43.590  0.00  0.00     0.021 A 
ATOM     15  C   UNL d   1      46.543 -19.536  41.190  0.00  0.00     0.000 A 
ATOM     16  C   UNL d   1      45.827 -16.456  44.955  0.00  0.00     0.002 A 
ATOM     17  C   UNL d   1      45.774 -15.967  44.369  0.00  0.00     0.002 A 
ATOM     18  C   UNL d   1      46.646 -20.258  41.567  0.00  0.00     0.002 A 
ENDROOT
TORSDOF 0
ENDMDL
MODEL 2
REMARK VINA RESULT:      19.8      0.566      3.158
REMARK  0 active torsions:
REMARK  status: ('A' for Active; 'I' for Inactive)
ROOT
ATOM      1  C   UNL d   1      46.225 -18.103  42.883  0.00  0.00     0.150 A 
ATOM      2  N   UNL d   1      46.377 -18.902  43.057  0.00  0.00    -0.275 N 
ATOM      3  N   UNL d   1      46.205 -18.006  42.076  0.00  0.00    -0.227 NA
ATOM      4  C   UNL d   1      46.436 -19.206  43.805  0.00  0.00     0.149 A 
ATOM      5  N   UNL d   1      46.340 -18.696  44.442  0.00  0.00    -0.228 NA
ATOM      6  C   UNL d   1      46.132 -17.604  43.535  0.00  0.00     0.052 A 
ATOM      7  C   UNL d   1      46.445 -19.270  42.309  0.00  0.00     0.084 A 
ATOM      8  C   UNL d   1      46.190 -17.904  44.324  0.00  0.00     0.086 A 
ATOM      9  C   UNL d   1      46.345 -18.750  41.732  0.00  0.00     0.099 A 
ATOM     10  C   UNL d   1      46.587 -20.001  43.957  0.00  0.00     0.041 C 
ATOM     11  C   UNL d   1      45.978 -16.795  43.401  0.00  0.00     0.004 A 
ATOM     12  C   UNL d   1      46.598 -20.077  42.118  0.00  0.00     0.019 A 
ATOM     13  C   UNL d   1      46.093 -17.387  44.953  0.00  0.00     0.019 A 
ATOM     14  C   UNL d   1      46.390 -18.993  40.940  0.00  0.00     0.021 A 
ATOM     15  C   UNL d   1      45.885 -16.295  44.053  0.00  0.00     0.000 A 
ATOM     16  C   UNL d   1      46.639 -20.304  41.309  0.00  0.00     0.002 A 
ATOM     17  C   UNL d   1      46.539 -19.782  40.759  0.00  0.00     0.002 A 
ATOM     18  C   UNL d   1      45.942 -16.588  44.817  0.00  0.00     0.002 A 
ENDROOT
TORSDOF 0
ENDMDL
MODEL 3
REMARK VINA RESULT:      20.2      7.237      7.803
REMARK  0 active torsions:
REMARK  status: ('A' for Active; 'I' for Inactive)
ROOT
ATOM      1  C   UNL d   1      43.917 -15.128  36.799  0.00  0.00     0.150 A 
ATOM      2  N   UNL d   1      44.508 -15.699  36.674  0.00  0.00    -0.275 N 
ATOM      3  N   UNL d   1      44.266 -14.427  37.019  0.00  0.00    -0.227 NA
ATOM      4  C   UNL d   1      44.368 -16.464  36.449  0.00  0.00     0.149 A 
ATOM      5  N   UNL d   1      43.589 -16.700  36.335  0.00  0.00    -0.228 NA
ATOM      6  C   UNL d   1      43.140 -15.382  36.680  0.00  0.00     0.052 A 
ATOM      7  C   UNL d   1      45.225 -15.297  36.832  0.00  0.00     0.084 A 
ATOM      8  C   UNL d   1      42.975 -16.177  36.444  0.00  0.00     0.086 A 
ATOM      9  C   UNL d   1      45.089 -14.553  37.034  0.00  0.00     0.099 A 
ATOM     10  C   UNL d   1      44.967 -17.015  36.330  0.00  0.00     0.041 C 
ATOM     11  C   UNL d   1      42.518 -14.837  36.795  0.00  0.00     0.004 A 
ATOM     12  C   UNL d   1      46.019 -15.580  36.801  0.00  0.00     0.019 A 
ATOM     13  C   UNL d   1      42.194 -16.404  36.332  0.00  0.00     0.019 A 
ATOM     14  C   UNL d   1      45.721 -14.048  37.216  0.00  0.00     0.021 A 
ATOM     15  C   UNL d   1      41.741 -15.091  36.676  0.00  0.00     0.000 A 
ATOM     16  C   UNL d   1      46.647 -15.052  36.989  0.00  0.00     0.002 A 
ATOM     17  C   UNL d   1      46.494 -14.328  37.184  0.00  0.00     0.002 A 
ATOM     18  C   UNL d   1      41.582 -15.863  36.448  0.00  0.00     0.002 A 
ENDROOT
TORSDOF 0
ENDMDL
MODEL 4
REMARK VINA RESULT:      20.3      7.242      7.898
REMARK  0 active torsions:
REMARK  status: ('A' for Active; 'I' for Inactive)
ROOT
ATOM      1  C   UNL d   1      44.243 -15.003  36.791  0.00  0.00     0.150 A 
ATOM      2  N   UNL d   1      44.051 -15.790  36.604  0.00  0.00    -0.275 N 
ATOM      3  N   UNL d   1      43.559 -14.565  36.834  0.00  0.00    -0.227 NA
ATOM      4  C   UNL d   1      44.590 -16.387  36.515  0.00  0.00     0.149 A 
ATOM      5  N   UNL d   1      45.387 -16.210  36.615  0.00  0.00    -0.228 NA
ATOM      6  C   UNL d   1      45.048 -14.843  36.887  0.00  0.00     0.052 A 
ATOM      7  C   UNL d   1      43.217 -15.793  36.540  0.00  0.00     0.084 A 
ATOM      8  C   UNL d   1      45.626 -15.454  36.798  0.00  0.00     0.086 A 
ATOM      9  C   UNL d   1      42.925 -15.078  36.674  0.00  0.00     0.099 A 
ATOM     10  C   UNL d   1      44.380 -17.161  36.330  0.00  0.00     0.041 C 
ATOM     11  C   UNL d   1      45.282 -14.064  37.075  0.00  0.00     0.004 A 
ATOM     12  C   UNL d   1      42.692 -16.428  36.362  0.00  0.00     0.019 A 
ATOM     13  C   UNL d   1      46.419 -15.267  36.899  0.00  0.00     0.019 A 
ATOM     14  C   UNL d   1      42.106 -14.949  36.640  0.00  0.00     0.021 A 
ATOM     15  C   UNL d   1      46.086 -13.902  37.171  0.00  0.00     0.000 A 
ATOM     16  C   UNL d   1      41.864 -16.277  36.331  0.00  0.00     0.002 A 
ATOM     17  C   UNL d   1      41.598 -15.573  36.465  0.00  0.00     0.002 A 
ATOM     18  C   UNL d   1      46.646 -14.497  37.084  0.00  0.00     0.002 A 
ENDROOT
TORSDOF 0
ENDMDL
