MODEL 1
REMARK VINA RESULT:      -4.4      0.000      0.000
REMARK  3 active torsions:
REMARK  status: ('A' for Active; 'I' for Inactive)
REMARK    1  A    between atoms: C_3  and  C_1 
REMARK    2  A    between atoms: C_5  and  C_3 
REMARK    3  A    between atoms: C_11  and  C_5 
ROOT
ATOM      1  C   UNL d   1     -41.358-122.508 -51.684  0.00  0.00     0.109 C 
ATOM      2  C   UNL d   1     -41.242-121.708 -51.818  0.00  0.00     0.105 C 
ATOM      3  N   UNL d   1     -41.123-120.904 -51.958  0.00  0.00    -0.191 NA
ENDROOT
BRANCH   1   4
ATOM      4  C   UNL d   1     -41.714-122.757 -50.980  0.00  0.00     0.192 A 
ATOM      5  N   UNL d   1     -41.339-123.160 -50.349  0.00  0.00    -0.220 NA
ATOM      6  C   UNL d   1     -41.904-123.300 -49.757  0.00  0.00     0.106 A 
ATOM      7  C   UNL d   1     -41.850-123.671 -49.022  0.00  0.00     0.021 A 
ATOM      8  C   UNL d   1     -42.631-122.988 -50.013  0.00  0.00     0.119 A 
ATOM      9  C   UNL d   1     -42.518-123.730 -48.542  0.00  0.00     0.002 A 
ATOM     10  C   UNL d   1     -43.244-123.418 -48.798  0.00  0.00     0.002 A 
ATOM     11  C   UNL d   1     -43.298-123.047 -49.533  0.00  0.00     0.026 A 
ATOM     12  O   UNL d   1     -42.518-122.653 -50.765  0.00  0.00    -0.287 OA
ENDBRANCH   1   4
BRANCH   1  13
ATOM     13  C   UNL d   1     -41.123-123.064 -52.247  0.00  0.00     0.014 C 
BRANCH  13  14
ATOM     14  C   UNL d   1     -41.471-123.065 -52.997  0.00  0.00     0.004 A 
ATOM     15  C   UNL d   1     -41.580-122.351 -53.394  0.00  0.00     0.021 A 
ATOM     16  C   UNL d   1     -41.928-122.353 -54.145  0.00  0.00     0.099 A 
ATOM     17  N   UNL d   1     -42.162-123.065 -54.490  0.00  0.00    -0.242 NA
ATOM     18  C   UNL d   1     -42.050-123.788 -54.084  0.00  0.00     0.099 A 
ATOM     19  C   UNL d   1     -41.702-123.777 -53.335  0.00  0.00     0.021 A 
ENDBRANCH  13  14
ENDBRANCH   1  13
TORSDOF 3
ENDMDL
MODEL 2
REMARK VINA RESULT:      -3.5      1.330      2.152
REMARK  3 active torsions:
REMARK  status: ('A' for Active; 'I' for Inactive)
REMARK    1  A    between atoms: C_3  and  C_1 
REMARK    2  A    between atoms: C_5  and  C_3 
REMARK    3  A    between atoms: C_11  and  C_5 
ROOT
ATOM      1  C   UNL d   1     -41.460-122.541 -53.340  0.00  0.00     0.109 C 
ATOM      2  C   UNL d   1     -41.302-123.179 -53.830  0.00  0.00     0.105 C 
ATOM      3  N   UNL d   1     -41.145-123.817 -54.329  0.00  0.00    -0.191 NA
ENDROOT
BRANCH   1   4
ATOM      4  C   UNL d   1     -41.417-122.636 -52.520  0.00  0.00     0.192 A 
ATOM      5  N   UNL d   1     -41.547-123.344 -52.094  0.00  0.00    -0.220 NA
ATOM      6  C   UNL d   1     -41.447-123.184 -51.285  0.00  0.00     0.106 A 
ATOM      7  C   UNL d   1     -41.505-123.666 -50.618  0.00  0.00     0.021 A 
ATOM      8  C   UNL d   1     -41.255-122.380 -51.202  0.00  0.00     0.119 A 
ATOM      9  C   UNL d   1     -41.373-123.348 -49.869  0.00  0.00     0.002 A 
ATOM     10  C   UNL d   1     -41.182-122.544 -49.786  0.00  0.00     0.002 A 
ATOM     11  C   UNL d   1     -41.123-122.062 -50.453  0.00  0.00     0.026 A 
ATOM     12  O   UNL d   1     -41.236-122.039 -51.959  0.00  0.00    -0.287 OA
ENDBRANCH   1   4
BRANCH   1  13
ATOM     13  C   UNL d   1     -41.660-121.808 -53.661  0.00  0.00     0.014 C 
BRANCH  13  14
ATOM     14  C   UNL d   1     -41.992-121.764 -54.417  0.00  0.00     0.004 A 
ATOM     15  C   UNL d   1     -41.516-121.560 -55.058  0.00  0.00     0.021 A 
ATOM     16  C   UNL d   1     -41.848-121.516 -55.814  0.00  0.00     0.099 A 
ATOM     17  N   UNL d   1     -42.650-121.676 -55.922  0.00  0.00    -0.242 NA
ATOM     18  C   UNL d   1     -43.132-121.882 -55.271  0.00  0.00     0.099 A 
ATOM     19  C   UNL d   1     -42.791-121.924 -54.518  0.00  0.00     0.021 A 
ENDBRANCH  13  14
ENDBRANCH   1  13
TORSDOF 3
ENDMDL
MODEL 3
REMARK VINA RESULT:      -1.5      1.105      3.966
REMARK  3 active torsions:
REMARK  status: ('A' for Active; 'I' for Inactive)
REMARK    1  A    between atoms: C_3  and  C_1 
REMARK    2  A    between atoms: C_5  and  C_3 
REMARK    3  A    between atoms: C_11  and  C_5 
ROOT
ATOM      1  C   UNL d   1     -41.257-122.422 -51.838  0.00  0.00     0.109 C 
ATOM      2  C   UNL d   1     -41.198-121.715 -51.427  0.00  0.00     0.105 C 
ATOM      3  N   UNL d   1     -41.137-121.007 -51.008  0.00  0.00    -0.191 NA
ENDROOT
BRANCH   1   4
ATOM      4  C   UNL d   1     -41.452-122.412 -52.641  0.00  0.00     0.192 A 
ATOM      5  N   UNL d   1     -41.140-122.912 -53.235  0.00  0.00    -0.220 NA
ATOM      6  C   UNL d   1     -41.492-122.708 -53.959  0.00  0.00     0.106 A 
ATOM      7  C   UNL d   1     -41.397-123.010 -54.721  0.00  0.00     0.021 A 
ATOM      8  C   UNL d   1     -42.023-122.083 -53.822  0.00  0.00     0.119 A 
ATOM      9  C   UNL d   1     -41.830-122.691 -55.346  0.00  0.00     0.002 A 
ATOM     10  C   UNL d   1     -42.360-122.066 -55.210  0.00  0.00     0.002 A 
ATOM     11  C   UNL d   1     -42.455-121.764 -54.448  0.00  0.00     0.026 A 
ATOM     12  O   UNL d   1     -42.001-121.898 -53.013  0.00  0.00    -0.287 OA
ENDBRANCH   1   4
BRANCH   1  13
ATOM     13  C   UNL d   1     -41.122-123.140 -51.454  0.00  0.00     0.014 C 
BRANCH  13  14
ATOM     14  C   UNL d   1     -41.516-123.312 -50.748  0.00  0.00     0.004 A 
ATOM     15  C   UNL d   1     -42.294-123.585 -50.774  0.00  0.00     0.021 A 
ATOM     16  C   UNL d   1     -42.688-123.757 -50.067  0.00  0.00     0.099 A 
ATOM     17  N   UNL d   1     -42.303-123.655 -49.345  0.00  0.00    -0.242 NA
ATOM     18  C   UNL d   1     -41.515-123.377 -49.321  0.00  0.00     0.099 A 
ATOM     19  C   UNL d   1     -41.128-123.208 -50.032  0.00  0.00     0.021 A 
ENDBRANCH  13  14
ENDBRANCH   1  13
TORSDOF 3
ENDMDL
