MODEL 1
REMARK VINA RESULT:      45.1      0.000      0.000
REMARK  3 active torsions:
REMARK  status: ('A' for Active; 'I' for Inactive)
REMARK    1  A    between atoms: C_9  and  C_3 
REMARK    2  A    between atoms: C_8  and  C_5 
REMARK    3  A    between atoms: O_19  and  C_9 
ROOT
ATOM      1  N   UNL d   1      58.049  49.625  50.418  0.00  0.00    -0.278 N 
ATOM      2  C   UNL d   1      57.498  49.669  51.030  0.00  0.00     0.178 A 
ATOM      3  C   UNL d   1      59.112  49.602  51.376  0.00  0.00     0.075 A 
ATOM      4  N   UNL d   1      57.744  49.680  51.829  0.00  0.00    -0.223 NA
ATOM      5  C   UNL d   1      58.853  49.592  50.597  0.00  0.00     0.178 A 
ATOM      6  C   UNL d   1      58.561  49.646  51.988  0.00  0.00     0.086 A 
ATOM      7  C   UNL d   1      57.790  49.615  49.639  0.00  0.00     0.263 A 
ATOM      8  S   UNL d   1      56.682  49.702  50.872  0.00  0.00    -0.050 SA
ATOM      9  C   UNL d   1      56.983  49.647  49.457  0.00  0.00     0.068 A 
ATOM     10  O   UNL d   1      58.341  49.571  49.028  0.00  0.00    -0.267 OA
ATOM     11  C   UNL d   1      56.432  49.691  50.070  0.00  0.00     0.043 A 
ATOM     12  C   UNL d   1      58.812  49.658  52.816  0.00  0.00     0.021 C 
ENDROOT
BRANCH   5  13
ATOM     13  C   UNL d   1      59.404  49.549  49.986  0.00  0.00     0.024 A 
ATOM     14  S   UNL d   1      59.328  49.442  49.171  0.00  0.00    -0.089 SA
ATOM     15  C   UNL d   1      60.072  49.445  48.842  0.00  0.00     0.035 A 
ATOM     16  C   UNL d   1      60.604  49.553  49.438  0.00  0.00     0.007 A 
ATOM     17  C   UNL d   1      60.216  49.617  50.139  0.00  0.00     0.004 A 
ENDBRANCH   5  13
BRANCH   3  18
ATOM     18  C   UNL d   1      59.933  49.569  51.571  0.00  0.00     0.295 C 
ATOM     19  O   UNL d   1      60.487  49.699  50.974  0.00  0.00    -0.259 OA
BRANCH  18  20
ATOM     20  O   UNL d   1      60.188  49.412  52.334  0.00  0.00    -0.296 OA
ATOM     21  C   UNL d   1      60.926  49.667  52.591  0.00  0.00     0.185 C 
ENDBRANCH  18  20
ENDBRANCH   3  18
TORSDOF 3
ENDMDL
