MODEL 1
REMARK VINA RESULT:     102.9      0.000      0.000
REMARK  7 active torsions:
REMARK  status: ('A' for Active; 'I' for Inactive)
REMARK    1  A    between atoms: C_20  and  N_1 
REMARK       I    between atoms: C_6  and  N_7 
REMARK    2  A    between atoms: C_10  and  C_6 
REMARK    3  A    between atoms: N_7  and  C_24 
REMARK    4  A    between atoms: C_9  and  N_7 
REMARK    5  A    between atoms: O_29  and  C_11 
REMARK    6  A    between atoms: C_23  and  C_20 
REMARK    7  A    between atoms: C_24  and  C_23 
ROOT
ATOM      1  C   UNL d   1     -49.446  27.982  34.785  0.00  0.00     0.085 C 
ENDROOT
BRANCH   1   2
ATOM      2  N   UNL d   1     -48.955  28.311  35.348  0.00  0.00    -0.271 N 
ATOM      3  C   UNL d   1     -49.094  28.157  36.149  0.00  0.00     0.271 C 
ATOM      4  O   UNL d   1     -48.601  28.487  36.716  0.00  0.00    -0.266 OA
BRANCH   3   5
ATOM      5  C   UNL d   1     -49.724  27.674  36.373  0.00  0.00     0.086 A 
ATOM      6  S   UNL d   1     -50.520  27.890  36.445  0.00  0.00    -0.082 SA
ATOM      7  C   UNL d   1     -50.939  27.249  36.677  0.00  0.00     0.036 A 
ATOM      8  C   UNL d   1     -50.445  26.619  36.759  0.00  0.00     0.008 A 
ATOM      9  C   UNL d   1     -49.661  26.879  36.567  0.00  0.00     0.012 A 
ENDBRANCH   3   5
BRANCH   2  10
ATOM     10  C   UNL d   1     -48.327  28.791  35.124  0.00  0.00     0.089 A 
ATOM     11  C   UNL d   1     -48.466  29.540  34.790  0.00  0.00     0.110 A 
ATOM     12  C   UNL d   1     -47.842  30.018  34.568  0.00  0.00     0.026 A 
ATOM     13  C   UNL d   1     -47.060  29.761  34.673  0.00  0.00     0.002 A 
ATOM     14  C   UNL d   1     -46.927  29.023  35.001  0.00  0.00     0.002 A 
ATOM     15  C   UNL d   1     -46.430  30.243  34.448  0.00  0.00     0.000 C 
ATOM     16  C   UNL d   1     -47.551  28.546  35.223  0.00  0.00     0.020 A 
BRANCH  11  17
ATOM     17  O   UNL d   1     -49.229  29.802  34.684  0.00  0.00    -0.327 OA
ATOM     18  C   UNL d   1     -49.369  30.576  34.466  0.00  0.00     0.181 C 
ENDBRANCH  11  17
ENDBRANCH   2  10
ENDBRANCH   1   2
BRANCH   1  19
ATOM     19  C   UNL d   1     -49.174  27.338  34.308  0.00  0.00     0.038 C 
BRANCH  19  20
ATOM     20  C   UNL d   1     -49.535  27.167  33.579  0.00  0.00     0.088 C 
BRANCH  20  21
ATOM     21  N   UNL d   1     -50.067  26.501  33.517  0.00  0.00    -0.240 N 
ATOM     22  C   UNL d   1     -50.882  26.620  33.486  0.00  0.00     0.267 A 
ATOM     23  C   UNL d   1     -51.405  25.982  33.426  0.00  0.00     0.057 A 
ATOM     24  O   UNL d   1     -51.204  27.411  33.516  0.00  0.00    -0.267 OA
ATOM     25  C   UNL d   1     -52.204  26.099  33.395  0.00  0.00     0.005 A 
ATOM     26  C   UNL d   1     -51.084  25.213  33.396  0.00  0.00     0.009 A 
ATOM     27  C   UNL d   1     -52.724  25.452  33.335  0.00  0.00     0.000 A 
ATOM     28  C   UNL d   1     -52.405  24.697  33.306  0.00  0.00     0.000 A 
ATOM     29  C   UNL d   1     -51.606  24.581  33.336  0.00  0.00     0.000 A 
ATOM     30  C   UNL d   1     -51.285  23.816  33.308  0.00  0.00     0.000 A 
ATOM     31  C   UNL d   1     -50.469  23.697  33.338  0.00  0.00     0.000 A 
ATOM     32  C   UNL d   1     -49.954  24.340  33.399  0.00  0.00     0.005 A 
ATOM     33  C   UNL d   1     -50.268  25.095  33.427  0.00  0.00     0.057 A 
ATOM     34  C   UNL d   1     -49.753  25.742  33.488  0.00  0.00     0.267 A 
ATOM     35  O   UNL d   1     -48.924  25.621  33.519  0.00  0.00    -0.267 OA
ENDBRANCH  20  21
ENDBRANCH  19  20
ENDBRANCH   1  19
TORSDOF 7
ENDMDL
