MODEL 1
REMARK VINA RESULT:      -8.7      0.000      0.000
REMARK  4 active torsions:
REMARK  status: ('A' for Active; 'I' for Inactive)
REMARK    1  A    between atoms: C_5  and  C_1 
REMARK    2  A    between atoms: O_9  and  C_5 
REMARK    3  A    between atoms: C_18  and  O_9 
REMARK       I    between atoms: C_11  and  N_14 
REMARK    4  A    between atoms: N_14  and  C_20 
ROOT
ATOM      1  C   UNL d   1     -48.517  13.347  22.323  0.00  0.00     0.127 A 
ATOM      2  C   UNL d   1     -48.921  13.170  21.630  0.00  0.00     0.305 A 
ATOM      3  O   UNL d   1     -49.634  13.551  21.469  0.00  0.00    -0.272 OA
ATOM      4  C   UNL d   1     -48.819  13.903  22.862  0.00  0.00     0.013 A 
ATOM      5  C   UNL d   1     -49.534  14.282  22.694  0.00  0.00     0.024 A 
ATOM      6  C   UNL d   1     -49.946  14.110  22.000  0.00  0.00     0.110 A 
ATOM      7  C   UNL d   1     -50.660  14.486  21.829  0.00  0.00     0.058 A 
ATOM      8  C   UNL d   1     -50.966  15.040  22.358  0.00  0.00     0.015 A 
ATOM      9  C   UNL d   1     -49.848  14.840  23.223  0.00  0.00     0.009 A 
ATOM     10  O   UNL d   1     -48.612  12.617  21.104  0.00  0.00    -0.259 OA
ATOM     11  C   UNL d   1     -50.559  15.218  23.058  0.00  0.00     0.035 A 
ATOM     12 BR   UNL d   1     -51.064  14.309  21.134  0.00  0.00    -0.047 Br
ATOM     13 BR   UNL d   1     -50.864  15.770  23.586  0.00  0.00    -0.049 Br
ENDROOT
BRANCH   1  14
ATOM     14  C   UNL d   1     -47.802  12.971  22.495  0.00  0.00     0.305 C 
ATOM     15  O   UNL d   1     -47.235  12.895  21.905  0.00  0.00    -0.259 OA
BRANCH  14  16
ATOM     16  O   UNL d   1     -47.652  12.673  23.252  0.00  0.00    -0.273 OA
BRANCH  16  17
ATOM     17  C   UNL d   1     -47.080  12.093  23.363  0.00  0.00     0.103 A 
ATOM     18  C   UNL d   1     -46.281  12.288  23.329  0.00  0.00     0.026 A 
ATOM     19  C   UNL d   1     -45.707  11.715  23.439  0.00  0.00     0.021 A 
ATOM     20  C   UNL d   1     -45.926  10.934  23.585  0.00  0.00     0.085 A 
ATOM     21  C   UNL d   1     -46.728  10.727  23.622  0.00  0.00     0.021 A 
ATOM     22  C   UNL d   1     -47.310  11.314  23.509  0.00  0.00     0.026 A 
BRANCH  20  23
ATOM     23  N   UNL d   1     -45.354  10.349  23.698  0.00  0.00    -0.208 NA
ATOM     24  C   UNL d   1     -44.556  10.532  23.580  0.00  0.00     0.279 C 
ATOM     25  O   UNL d   1     -44.330  11.297  23.351  0.00  0.00    -0.265 OA
ATOM     26  C   UNL d   1     -43.975   9.950  23.691  0.00  0.00     0.068 C 
ENDBRANCH  20  23
ENDBRANCH  16  17
ENDBRANCH  14  16
ENDBRANCH   1  14
TORSDOF 4
ENDMDL
MODEL 2
REMARK VINA RESULT:      -8.0      1.361      1.715
REMARK  4 active torsions:
REMARK  status: ('A' for Active; 'I' for Inactive)
REMARK    1  A    between atoms: C_5  and  C_1 
REMARK    2  A    between atoms: O_9  and  C_5 
REMARK    3  A    between atoms: C_18  and  O_9 
REMARK       I    between atoms: C_11  and  N_14 
REMARK    4  A    between atoms: N_14  and  C_20 
ROOT
ATOM      1  C   UNL d   1     -47.700  14.051  22.935  0.00  0.00     0.127 A 
ATOM      2  C   UNL d   1     -47.911  14.813  22.712  0.00  0.00     0.305 A 
ATOM      3  O   UNL d   1     -48.706  15.030  22.714  0.00  0.00    -0.272 OA
ATOM      4  C   UNL d   1     -48.278  13.499  23.163  0.00  0.00     0.013 A 
ATOM      5  C   UNL d   1     -49.074  13.722  23.163  0.00  0.00     0.024 A 
ATOM      6  C   UNL d   1     -49.294  14.486  22.940  0.00  0.00     0.110 A 
ATOM      7  C   UNL d   1     -50.087  14.713  22.938  0.00  0.00     0.058 A 
ATOM      8  C   UNL d   1     -50.667  14.171  23.162  0.00  0.00     0.015 A 
ATOM      9  C   UNL d   1     -49.663  13.181  23.387  0.00  0.00     0.009 A 
ATOM     10  O   UNL d   1     -47.330  15.351  22.489  0.00  0.00    -0.259 OA
ATOM     11  C   UNL d   1     -50.454  13.402  23.388  0.00  0.00     0.035 A 
ATOM     12 BR   UNL d   1     -50.298  15.476  22.714  0.00  0.00    -0.047 Br
ATOM     13 BR   UNL d   1     -51.032  12.861  23.611  0.00  0.00    -0.049 Br
ENDROOT
BRANCH   1  14
ATOM     14  C   UNL d   1     -46.907  13.823  22.937  0.00  0.00     0.305 C 
ATOM     15  O   UNL d   1     -46.406  14.110  23.523  0.00  0.00    -0.259 OA
BRANCH  14  16
ATOM     16  O   UNL d   1     -46.612  13.311  22.359  0.00  0.00    -0.273 OA
BRANCH  16  17
ATOM     17  C   UNL d   1     -45.984  12.810  22.529  0.00  0.00     0.103 A 
ATOM     18  C   UNL d   1     -45.248  12.936  22.182  0.00  0.00     0.026 A 
ATOM     19  C   UNL d   1     -44.618  12.442  22.347  0.00  0.00     0.021 A 
ATOM     20  C   UNL d   1     -44.715  11.808  22.867  0.00  0.00     0.085 A 
ATOM     21  C   UNL d   1     -45.452  11.672  23.222  0.00  0.00     0.021 A 
ATOM     22  C   UNL d   1     -46.092  12.179  23.050  0.00  0.00     0.026 A 
BRANCH  20  23
ATOM     23  N   UNL d   1     -44.086  11.303  23.040  0.00  0.00    -0.208 NA
ATOM     24  C   UNL d   1     -44.229  10.601  23.454  0.00  0.00     0.279 C 
ATOM     25  O   UNL d   1     -44.998  10.405  23.694  0.00  0.00    -0.265 OA
ATOM     26  C   UNL d   1     -43.601  10.088  23.632  0.00  0.00     0.068 C 
ENDBRANCH  20  23
ENDBRANCH  16  17
ENDBRANCH  14  16
ENDBRANCH   1  14
TORSDOF 4
ENDMDL
MODEL 3
REMARK VINA RESULT:      -6.6      4.417      5.640
REMARK  4 active torsions:
REMARK  status: ('A' for Active; 'I' for Inactive)
REMARK    1  A    between atoms: C_5  and  C_1 
REMARK    2  A    between atoms: O_9  and  C_5 
REMARK    3  A    between atoms: C_18  and  O_9 
REMARK       I    between atoms: C_11  and  N_14 
REMARK    4  A    between atoms: N_14  and  C_20 
ROOT
ATOM      1  C   UNL d   1     -44.010  12.785  21.878  0.00  0.00     0.127 A 
ATOM      2  C   UNL d   1     -44.082  12.093  22.315  0.00  0.00     0.305 A 
ATOM      3  O   UNL d   1     -44.778  11.950  22.734  0.00  0.00    -0.272 OA
ATOM      4  C   UNL d   1     -44.628  13.340  21.854  0.00  0.00     0.013 A 
ATOM      5  C   UNL d   1     -45.323  13.190  22.276  0.00  0.00     0.024 A 
ATOM      6  C   UNL d   1     -45.404  12.498  22.717  0.00  0.00     0.110 A 
ATOM      7  C   UNL d   1     -46.096  12.345  23.139  0.00  0.00     0.058 A 
ATOM      8  C   UNL d   1     -46.714  12.890  23.120  0.00  0.00     0.015 A 
ATOM      9  C   UNL d   1     -45.950  13.736  22.260  0.00  0.00     0.009 A 
ATOM     10  O   UNL d   1     -43.464  11.551  22.332  0.00  0.00    -0.259 OA
ATOM     11  C   UNL d   1     -46.641  13.588  22.679  0.00  0.00     0.035 A 
ATOM     12 BR   UNL d   1     -46.168  11.652  23.577  0.00  0.00    -0.047 Br
ATOM     13 BR   UNL d   1     -47.257  14.132  22.660  0.00  0.00    -0.049 Br
ENDROOT
BRANCH   1  14
ATOM     14  C   UNL d   1     -43.318  12.939  21.455  0.00  0.00     0.305 C 
ATOM     15  O   UNL d   1     -43.228  12.624  20.701  0.00  0.00    -0.259 OA
BRANCH  14  16
ATOM     16  O   UNL d   1     -42.717  13.404  21.781  0.00  0.00    -0.273 OA
BRANCH  16  17
ATOM     17  C   UNL d   1     -42.135  13.726  21.299  0.00  0.00     0.103 A 
ATOM     18  C   UNL d   1     -41.465  13.286  21.108  0.00  0.00     0.026 A 
ATOM     19  C   UNL d   1     -40.882  13.601  20.630  0.00  0.00     0.021 A 
ATOM     20  C   UNL d   1     -40.960  14.367  20.332  0.00  0.00     0.085 A 
ATOM     21  C   UNL d   1     -41.630  14.819  20.518  0.00  0.00     0.021 A 
ATOM     22  C   UNL d   1     -42.222  14.493  21.007  0.00  0.00     0.026 A 
BRANCH  20  23
ATOM     23  N   UNL d   1     -40.376  14.693  19.848  0.00  0.00    -0.208 NA
ATOM     24  C   UNL d   1     -40.355  14.493  19.045  0.00  0.00     0.279 C 
ATOM     25  O   UNL d   1     -40.913  13.969  18.728  0.00  0.00    -0.265 OA
ATOM     26  C   UNL d   1     -39.771  14.817  18.552  0.00  0.00     0.068 C 
ENDBRANCH  20  23
ENDBRANCH  16  17
ENDBRANCH  14  16
ENDBRANCH   1  14
TORSDOF 4
ENDMDL
MODEL 4
REMARK VINA RESULT:      -6.0      2.520      3.200
REMARK  4 active torsions:
REMARK  status: ('A' for Active; 'I' for Inactive)
REMARK    1  A    between atoms: C_5  and  C_1 
REMARK    2  A    between atoms: O_9  and  C_5 
REMARK    3  A    between atoms: C_18  and  O_9 
REMARK       I    between atoms: C_11  and  N_14 
REMARK    4  A    between atoms: N_14  and  C_20 
ROOT
ATOM      1  C   UNL d   1     -46.578  12.706  22.974  0.00  0.00     0.127 A 
ATOM      2  C   UNL d   1     -46.924  12.083  23.382  0.00  0.00     0.305 A 
ATOM      3  O   UNL d   1     -47.744  12.062  23.469  0.00  0.00    -0.272 OA
ATOM      4  C   UNL d   1     -47.043  13.314  22.650  0.00  0.00     0.013 A 
ATOM      5  C   UNL d   1     -47.864  13.288  22.741  0.00  0.00     0.024 A 
ATOM      6  C   UNL d   1     -48.220  12.665  23.149  0.00  0.00     0.110 A 
ATOM      7  C   UNL d   1     -49.039  12.635  23.243  0.00  0.00     0.058 A 
ATOM      8  C   UNL d   1     -49.508  13.235  22.924  0.00  0.00     0.015 A 
ATOM      9  C   UNL d   1     -48.342  13.888  22.423  0.00  0.00     0.009 A 
ATOM     10  O   UNL d   1     -46.454  11.486  23.698  0.00  0.00    -0.259 OA
ATOM     11  C   UNL d   1     -49.158  13.864  22.513  0.00  0.00     0.035 A 
ATOM     12 BR   UNL d   1     -49.386  12.011  23.651  0.00  0.00    -0.047 Br
ATOM     13 BR   UNL d   1     -49.625  14.462  22.196  0.00  0.00    -0.049 Br
ENDROOT
BRANCH   1  14
ATOM     14  C   UNL d   1     -45.758  12.737  22.880  0.00  0.00     0.305 C 
ATOM     15  O   UNL d   1     -45.329  13.316  23.276  0.00  0.00    -0.259 OA
BRANCH  14  16
ATOM     16  O   UNL d   1     -45.367  12.194  22.395  0.00  0.00    -0.273 OA
BRANCH  16  17
ATOM     17  C   UNL d   1     -44.625  12.370  22.090  0.00  0.00     0.103 A 
ATOM     18  C   UNL d   1     -44.546  12.928  21.489  0.00  0.00     0.026 A 
ATOM     19  C   UNL d   1     -43.810  13.108  21.181  0.00  0.00     0.021 A 
ATOM     20  C   UNL d   1     -43.137  12.729  21.471  0.00  0.00     0.085 A 
ATOM     21  C   UNL d   1     -43.205  12.166  22.076  0.00  0.00     0.021 A 
ATOM     22  C   UNL d   1     -43.958  11.986  22.387  0.00  0.00     0.026 A 
BRANCH  20  23
ATOM     23  N   UNL d   1     -42.390  12.904  21.166  0.00  0.00    -0.208 NA
ATOM     24  C   UNL d   1     -42.127  13.690  21.158  0.00  0.00     0.279 C 
ATOM     25  O   UNL d   1     -42.609  14.296  21.453  0.00  0.00    -0.265 OA
ATOM     26  C   UNL d   1     -41.377  13.873  20.853  0.00  0.00     0.068 C 
ENDBRANCH  20  23
ENDBRANCH  16  17
ENDBRANCH  14  16
ENDBRANCH   1  14
TORSDOF 4
ENDMDL
MODEL 5
REMARK VINA RESULT:      -5.9      9.204     10.519
REMARK  4 active torsions:
REMARK  status: ('A' for Active; 'I' for Inactive)
REMARK    1  A    between atoms: C_5  and  C_1 
REMARK    2  A    between atoms: O_9  and  C_5 
REMARK    3  A    between atoms: C_18  and  O_9 
REMARK       I    between atoms: C_11  and  N_14 
REMARK    4  A    between atoms: N_14  and  C_20 
ROOT
ATOM      1  C   UNL d   1     -40.085  14.754  18.566  0.00  0.00     0.127 A 
ATOM      2  C   UNL d   1     -40.701  14.240  18.745  0.00  0.00     0.305 A 
ATOM      3  O   UNL d   1     -40.946  14.160  19.528  0.00  0.00    -0.272 OA
ATOM      4  C   UNL d   1     -39.708  15.191  19.164  0.00  0.00     0.013 A 
ATOM      5  C   UNL d   1     -39.959  15.106  19.947  0.00  0.00     0.024 A 
ATOM      6  C   UNL d   1     -40.577  14.592  20.135  0.00  0.00     0.110 A 
ATOM      7  C   UNL d   1     -40.830  14.504  20.915  0.00  0.00     0.058 A 
ATOM      8  C   UNL d   1     -40.461  14.935  21.514  0.00  0.00     0.015 A 
ATOM      9  C   UNL d   1     -39.592  15.537  20.555  0.00  0.00     0.009 A 
ATOM     10  O   UNL d   1     -41.066  13.812  18.145  0.00  0.00    -0.259 OA
ATOM     11  C   UNL d   1     -39.840  15.453  21.334  0.00  0.00     0.035 A 
ATOM     12 BR   UNL d   1     -41.447  13.990  21.095  0.00  0.00    -0.047 Br
ATOM     13 BR   UNL d   1     -39.472  15.883  21.931  0.00  0.00    -0.049 Br
ENDROOT
BRANCH   1  14
ATOM     14  C   UNL d   1     -39.831  14.842  17.786  0.00  0.00     0.305 C 
ATOM     15  O   UNL d   1     -40.389  14.918  17.187  0.00  0.00    -0.259 OA
BRANCH  14  16
ATOM     16  O   UNL d   1     -39.025  14.855  17.601  0.00  0.00    -0.273 OA
BRANCH  16  17
ATOM     17  C   UNL d   1     -38.773  14.717  16.832  0.00  0.00     0.103 A 
ATOM     18  C   UNL d   1     -38.403  14.007  16.638  0.00  0.00     0.026 A 
ATOM     19  C   UNL d   1     -38.150  13.863  15.874  0.00  0.00     0.021 A 
ATOM     20  C   UNL d   1     -38.264  14.432  15.287  0.00  0.00     0.085 A 
ATOM     21  C   UNL d   1     -38.635  15.150  15.471  0.00  0.00     0.021 A 
ATOM     22  C   UNL d   1     -38.892  15.292  16.252  0.00  0.00     0.026 A 
BRANCH  20  23
ATOM     23  N   UNL d   1     -38.012  14.296  14.513  0.00  0.00    -0.208 NA
ATOM     24  C   UNL d   1     -38.201  13.579  14.144  0.00  0.00     0.279 C 
ATOM     25  O   UNL d   1     -38.639  13.002  14.546  0.00  0.00    -0.265 OA
ATOM     26  C   UNL d   1     -37.951  13.435  13.365  0.00  0.00     0.068 C 
ENDBRANCH  20  23
ENDBRANCH  16  17
ENDBRANCH  14  16
ENDBRANCH   1  14
TORSDOF 4
ENDMDL
