MODEL 1
REMARK VINA RESULT:       3.9      0.000      0.000
REMARK  4 active torsions:
REMARK  status: ('A' for Active; 'I' for Inactive)
REMARK    1  A    between atoms: N_2  and  S_1 
REMARK    2  A    between atoms: C_8  and  S_1 
REMARK       I    between atoms: C_3  and  N_2 
REMARK    3  A    between atoms: C_11  and  N_2 
REMARK       I    between atoms: N_4  and  C_3 
REMARK       I    between atoms: C_5  and  N_4 
REMARK       I    between atoms: N_9  and  C_5 
REMARK    4  A    between atoms: C_13  and  N_9 
ROOT
ATOM      1  N   UNL d   1      32.484  20.612 -22.622  0.00  0.00    -0.182 N 
ATOM      2  C   UNL d   1      32.475  21.287 -23.081  0.00  0.00     0.367 C 
ATOM      3  N   UNL d   1      32.485  22.023 -22.701  0.00  0.00    -0.135 NA
ATOM      4  C   UNL d   1      32.476  22.724 -23.136  0.00  0.00     0.373 C 
ATOM      5  N   UNL d   1      32.486  23.456 -22.757  0.00  0.00    -0.191 NA
ATOM      6  O   UNL d   1      32.456  21.256 -23.895  0.00  0.00    -0.243 OA
ATOM      7  O   UNL d   1      32.457  22.663 -23.984  0.00  0.00    -0.242 OA
ENDROOT
BRANCH   1   8
ATOM      8  S   UNL d   1      32.474  19.855 -22.990  0.00  0.00     0.275 S 
ATOM      9  O   UNL d   1      33.241  19.979 -23.255  0.00  0.00    -0.199 OA
ATOM     10  O   UNL d   1      31.709  19.754 -22.714  0.00  0.00    -0.199 OA
BRANCH   8  11
ATOM     11  C   UNL d   1      32.450  19.115 -23.343  0.00  0.00     0.104 A 
ATOM     12  C   UNL d   1      32.486  18.432 -22.889  0.00  0.00     0.013 A 
ATOM     13  C   UNL d   1      32.461  17.679 -23.244  0.00  0.00     0.001 A 
ATOM     14  C   UNL d   1      32.400  17.609 -24.053  0.00  0.00     0.000 A 
ATOM     15  C   UNL d   1      32.363  18.298 -24.520  0.00  0.00     0.001 A 
ATOM     16  C   UNL d   1      32.388  19.051 -24.165  0.00  0.00     0.013 A 
ENDBRANCH   8  11
ENDBRANCH   1   8
BRANCH   1  17
ATOM     17  C   UNL d   1      32.502  20.687 -21.810  0.00  0.00     0.079 A 
ATOM     18  C   UNL d   1      31.815  20.818 -21.397  0.00  0.00     0.018 A 
ATOM     19  C   UNL d   1      31.831  20.895 -20.572  0.00  0.00     0.002 A 
ATOM     20  C   UNL d   1      32.546  20.838 -20.165  0.00  0.00     0.000 A 
ATOM     21  C   UNL d   1      33.239  20.705 -20.588  0.00  0.00     0.002 A 
ATOM     22  C   UNL d   1      33.214  20.630 -21.406  0.00  0.00     0.018 A 
ENDBRANCH   1  17
BRANCH   5  23
ATOM     23  C   UNL d   1      32.504  23.490 -21.931  0.00  0.00     0.086 A 
ATOM     24  C   UNL d   1      33.228  23.434 -21.514  0.00  0.00     0.019 A 
ATOM     25  C   UNL d   1      33.240  23.469 -20.700  0.00  0.00     0.002 A 
ATOM     26  C   UNL d   1      32.530  23.560 -20.274  0.00  0.00     0.000 A 
ATOM     27  C   UNL d   1      31.797  23.617 -20.681  0.00  0.00     0.002 A 
ATOM     28  C   UNL d   1      32.545  23.587 -19.611  0.00  0.00     0.000 C 
ATOM     29  C   UNL d   1      31.805  23.580 -21.512  0.00  0.00     0.019 A 
ENDBRANCH   5  23
TORSDOF 4
ENDMDL
MODEL 2
REMARK VINA RESULT:       6.7      4.286      6.033
REMARK  4 active torsions:
REMARK  status: ('A' for Active; 'I' for Inactive)
REMARK    1  A    between atoms: N_2  and  S_1 
REMARK    2  A    between atoms: C_8  and  S_1 
REMARK       I    between atoms: C_3  and  N_2 
REMARK    3  A    between atoms: C_11  and  N_2 
REMARK       I    between atoms: N_4  and  C_3 
REMARK       I    between atoms: C_5  and  N_4 
REMARK       I    between atoms: N_9  and  C_5 
REMARK    4  A    between atoms: C_13  and  N_9 
ROOT
ATOM      1  N   UNL d   1      29.025  16.725 -23.842  0.00  0.00    -0.182 N 
ATOM      2  C   UNL d   1      29.102  17.457 -24.195  0.00  0.00     0.367 C 
ATOM      3  N   UNL d   1      29.864  17.757 -24.320  0.00  0.00    -0.135 NA
ATOM      4  C   UNL d   1      29.975  18.494 -24.675  0.00  0.00     0.373 C 
ATOM      5  N   UNL d   1      30.733  18.792 -24.799  0.00  0.00    -0.191 NA
ATOM      6  O   UNL d   1      28.455  17.896 -24.425  0.00  0.00    -0.243 OA
ATOM      7  O   UNL d   1      29.283  18.932 -24.905  0.00  0.00    -0.242 OA
ENDROOT
BRANCH   1   8
ATOM      8  S   UNL d   1      28.260  16.403 -23.707  0.00  0.00     0.275 S 
ATOM      9  O   UNL d   1      28.540  15.661 -23.916  0.00  0.00    -0.199 OA
ATOM     10  O   UNL d   1      28.003  17.154 -23.501  0.00  0.00    -0.199 OA
BRANCH   8  11
ATOM     11  C   UNL d   1      27.509  16.105 -23.570  0.00  0.00     0.104 A 
ATOM     12  C   UNL d   1      27.169  16.147 -22.824  0.00  0.00     0.013 A 
ATOM     13  C   UNL d   1      26.406  15.845 -22.681  0.00  0.00     0.001 A 
ATOM     14  C   UNL d   1      25.982  15.500 -23.285  0.00  0.00     0.000 A 
ATOM     15  C   UNL d   1      26.321  15.454 -24.046  0.00  0.00     0.001 A 
ATOM     16  C   UNL d   1      27.084  15.756 -24.188  0.00  0.00     0.013 A 
ENDBRANCH   8  11
ENDBRANCH   1   8
BRANCH   1  17
ATOM     17  C   UNL d   1      29.699  16.318 -23.627  0.00  0.00     0.079 A 
ATOM     18  C   UNL d   1      30.097  15.871 -24.175  0.00  0.00     0.018 A 
ATOM     19  C   UNL d   1      30.783  15.456 -23.959  0.00  0.00     0.002 A 
ATOM     20  C   UNL d   1      31.063  15.497 -23.185  0.00  0.00     0.000 A 
ATOM     21  C   UNL d   1      30.655  15.951 -22.634  0.00  0.00     0.002 A 
ATOM     22  C   UNL d   1      29.978  16.359 -22.856  0.00  0.00     0.018 A 
ENDBRANCH   1  17
BRANCH   5  23
ATOM     23  C   UNL d   1      31.392  18.349 -24.567  0.00  0.00     0.086 A 
ATOM     24  C   UNL d   1      31.712  18.426 -23.797  0.00  0.00     0.019 A 
ATOM     25  C   UNL d   1      32.362  17.986 -23.574  0.00  0.00     0.002 A 
ATOM     26  C   UNL d   1      32.713  17.455 -24.111  0.00  0.00     0.000 A 
ATOM     27  C   UNL d   1      32.400  17.369 -24.886  0.00  0.00     0.002 A 
ATOM     28  C   UNL d   1      33.241  17.099 -23.924  0.00  0.00     0.000 C 
ATOM     29  C   UNL d   1      31.737  17.826 -25.095  0.00  0.00     0.019 A 
ENDBRANCH   5  23
TORSDOF 4
ENDMDL
