MODEL 1
REMARK VINA RESULT:      92.1      0.000      0.000
REMARK  5 active torsions:
REMARK  status: ('A' for Active; 'I' for Inactive)
REMARK    1  A    between atoms: S_4  and  N_1 
REMARK    2  A    between atoms: C_2  and  C_5 
REMARK    3  A    between atoms: C_12  and  C_7 
REMARK    4  A    between atoms: O_26  and  C_24 
REMARK    5  A    between atoms: C_27  and  O_26 
ROOT
ATOM      1  C   UNL d   1     -48.256  29.526  35.627  0.00  0.00     0.076 A 
ATOM      2  C   UNL d   1     -48.257  28.883  35.116  0.00  0.00     0.281 A 
ATOM      3  C   UNL d   1     -48.646  29.477  36.353  0.00  0.00     0.008 A 
ATOM      4  N   UNL d   1     -48.649  28.187  35.328  0.00  0.00    -0.208 NA
ATOM      5  C   UNL d   1     -49.042  28.136  36.059  0.00  0.00     0.087 A 
ATOM      6  C   UNL d   1     -49.041  28.779  36.569  0.00  0.00     0.018 A 
ATOM      7  C   UNL d   1     -49.433  27.440  36.271  0.00  0.00     0.044 A 
ATOM      8  O   UNL d   1     -48.035  28.531  34.399  0.00  0.00    -0.265 OA
ATOM      9  C   UNL d   1     -49.431  28.730  37.295  0.00  0.00     0.004 A 
ATOM     10  C   UNL d   1     -49.792  27.422  36.959  0.00  0.00     0.102 A 
ATOM     11  C   UNL d   1     -49.791  28.065  37.470  0.00  0.00     0.025 A 
ENDROOT
BRANCH   1  12
ATOM     12  C   UNL d   1     -47.864  30.221  35.414  0.00  0.00     0.101 A 
ATOM     13  N   UNL d   1     -47.156  30.482  35.709  0.00  0.00    -0.155 N 
ATOM     14  N   UNL d   1     -46.968  31.193  35.349  0.00  0.00    -0.153 NA
ATOM     15  C   UNL d   1     -47.572  31.368  34.826  0.00  0.00     0.126 A 
ATOM     16  C   UNL d   1     -48.134  30.770  34.859  0.00  0.00     0.043 A 
BRANCH  13  17
ATOM     17  S   UNL d   1     -46.705  30.096  36.274  0.00  0.00     0.266 S 
ATOM     18  O   UNL d   1     -47.008  30.608  36.871  0.00  0.00    -0.203 OA
ATOM     19  O   UNL d   1     -46.393  29.582  35.710  0.00  0.00    -0.203 OA
ATOM     20  C   UNL d   1     -46.245  29.709  36.873  0.00  0.00     0.165 C 
ENDBRANCH  13  17
BRANCH  15  21
ATOM     21  C   UNL d   1     -47.614  32.026  34.349  0.00  0.00     0.119 A 
ATOM     22  O   UNL d   1     -46.971  32.453  34.040  0.00  0.00    -0.304 OA
ATOM     23  C   UNL d   1     -47.268  33.068  33.593  0.00  0.00     0.123 A 
ATOM     24  C   UNL d   1     -48.111  33.040  33.612  0.00  0.00     0.029 A 
ATOM     25  C   UNL d   1     -48.301  32.385  34.088  0.00  0.00     0.028 A 
ENDBRANCH  15  21
ENDBRANCH   1  12
BRANCH  10  26
ATOM     26  O   UNL d   1     -50.184  26.745  37.187  0.00  0.00    -0.305 OA
BRANCH  26  27
ATOM     27  C   UNL d   1     -50.858  27.098  38.052  0.00  0.00     0.123 C 
ATOM     28  C   UNL d   1     -51.387  26.571  38.431  0.00  0.00     0.029 C 
ENDBRANCH  26  27
ENDBRANCH  10  26
TORSDOF 5
ENDMDL
MODEL 2
REMARK VINA RESULT:      93.2      3.686      5.714
REMARK  5 active torsions:
REMARK  status: ('A' for Active; 'I' for Inactive)
REMARK    1  A    between atoms: S_4  and  N_1 
REMARK    2  A    between atoms: C_2  and  C_5 
REMARK    3  A    between atoms: C_12  and  C_7 
REMARK    4  A    between atoms: O_26  and  C_24 
REMARK    5  A    between atoms: C_27  and  O_26 
ROOT
ATOM      1  C   UNL d   1     -50.812  26.521  35.441  0.00  0.00     0.076 A 
ATOM      2  C   UNL d   1     -50.096  26.923  35.428  0.00  0.00     0.281 A 
ATOM      3  C   UNL d   1     -51.282  26.536  36.120  0.00  0.00     0.008 A 
ATOM      4  N   UNL d   1     -49.845  27.343  36.094  0.00  0.00    -0.208 NA
ATOM      5  C   UNL d   1     -50.317  27.359  36.778  0.00  0.00     0.087 A 
ATOM      6  C   UNL d   1     -51.033  26.957  36.791  0.00  0.00     0.018 A 
ATOM      7  C   UNL d   1     -50.066  27.779  37.444  0.00  0.00     0.044 A 
ATOM      8  O   UNL d   1     -49.405  27.152  35.032  0.00  0.00    -0.265 OA
ATOM      9  C   UNL d   1     -51.503  26.972  37.470  0.00  0.00     0.004 A 
ATOM     10  C   UNL d   1     -50.528  27.776  38.068  0.00  0.00     0.102 A 
ATOM     11  C   UNL d   1     -51.244  27.374  38.081  0.00  0.00     0.025 A 
ENDROOT
BRANCH   1  12
ATOM     12  C   UNL d   1     -51.062  26.101  34.775  0.00  0.00     0.101 A 
ATOM     13  N   UNL d   1     -51.018  26.353  34.006  0.00  0.00    -0.155 N 
ATOM     14  N   UNL d   1     -51.326  25.769  33.521  0.00  0.00    -0.153 NA
ATOM     15  C   UNL d   1     -51.561  25.152  34.004  0.00  0.00     0.126 A 
ATOM     16  C   UNL d   1     -51.401  25.348  34.785  0.00  0.00     0.043 A 
BRANCH  13  17
ATOM     17  S   UNL d   1     -50.716  27.073  33.757  0.00  0.00     0.266 S 
ATOM     18  O   UNL d   1     -51.479  27.424  33.833  0.00  0.00    -0.203 OA
ATOM     19  O   UNL d   1     -49.960  26.755  33.675  0.00  0.00    -0.203 OA
ATOM     20  C   UNL d   1     -50.421  27.826  33.501  0.00  0.00     0.165 C 
ENDBRANCH  13  17
BRANCH  15  21
ATOM     21  C   UNL d   1     -51.898  24.453  33.755  0.00  0.00     0.119 A 
ATOM     22  O   UNL d   1     -51.494  23.772  33.506  0.00  0.00    -0.304 OA
ATOM     23  C   UNL d   1     -52.048  23.207  33.307  0.00  0.00     0.123 A 
ATOM     24  C   UNL d   1     -52.820  23.525  33.429  0.00  0.00     0.029 A 
ATOM     25  C   UNL d   1     -52.700  24.300  33.707  0.00  0.00     0.028 A 
ENDBRANCH  15  21
ENDBRANCH   1  12
BRANCH  10  26
ATOM     26  O   UNL d   1     -50.299  28.184  38.736  0.00  0.00    -0.305 OA
BRANCH  26  27
ATOM     27  C   UNL d   1     -51.287  28.609  39.148  0.00  0.00     0.123 C 
ATOM     28  C   UNL d   1     -51.289  29.200  39.742  0.00  0.00     0.029 C 
ENDBRANCH  26  27
ENDBRANCH  10  26
TORSDOF 5
ENDMDL
MODEL 3
REMARK VINA RESULT:      94.8      0.929      4.986
REMARK  5 active torsions:
REMARK  status: ('A' for Active; 'I' for Inactive)
REMARK    1  A    between atoms: S_4  and  N_1 
REMARK    2  A    between atoms: C_2  and  C_5 
REMARK    3  A    between atoms: C_12  and  C_7 
REMARK    4  A    between atoms: O_26  and  C_24 
REMARK    5  A    between atoms: C_27  and  O_26 
ROOT
ATOM      1  C   UNL d   1     -48.271  29.591  35.797  0.00  0.00     0.076 A 
ATOM      2  C   UNL d   1     -47.613  29.838  36.222  0.00  0.00     0.281 A 
ATOM      3  C   UNL d   1     -48.541  30.037  35.157  0.00  0.00     0.008 A 
ATOM      4  N   UNL d   1     -47.222  30.534  36.010  0.00  0.00    -0.208 NA
ATOM      5  C   UNL d   1     -47.493  30.985  35.366  0.00  0.00     0.087 A 
ATOM      6  C   UNL d   1     -48.150  30.738  34.942  0.00  0.00     0.018 A 
ATOM      7  C   UNL d   1     -47.101  31.681  35.155  0.00  0.00     0.044 A 
ATOM      8  O   UNL d   1     -47.070  29.729  36.839  0.00  0.00    -0.265 OA
ATOM      9  C   UNL d   1     -48.421  31.184  34.302  0.00  0.00     0.004 A 
ATOM     10  C   UNL d   1     -47.377  32.081  34.549  0.00  0.00     0.102 A 
ATOM     11  C   UNL d   1     -48.035  31.834  34.124  0.00  0.00     0.025 A 
ENDROOT
BRANCH   1  12
ATOM     12  C   UNL d   1     -48.662  28.894  36.010  0.00  0.00     0.101 A 
ATOM     13  N   UNL d   1     -48.656  28.197  35.597  0.00  0.00    -0.155 N 
ATOM     14  N   UNL d   1     -49.114  27.650  36.002  0.00  0.00    -0.153 NA
ATOM     15  C   UNL d   1     -49.401  28.022  36.671  0.00  0.00     0.126 A 
ATOM     16  C   UNL d   1     -49.126  28.796  36.685  0.00  0.00     0.043 A 
BRANCH  13  17
ATOM     17  S   UNL d   1     -48.259  28.063  34.893  0.00  0.00     0.266 S 
ATOM     18  O   UNL d   1     -48.994  28.032  34.481  0.00  0.00    -0.203 OA
ATOM     19  O   UNL d   1     -47.528  28.089  35.273  0.00  0.00    -0.203 OA
ATOM     20  C   UNL d   1     -47.866  27.924  34.155  0.00  0.00     0.165 C 
ENDBRANCH  13  17
BRANCH  15  21
ATOM     21  C   UNL d   1     -49.883  27.685  37.234  0.00  0.00     0.119 A 
ATOM     22  O   UNL d   1     -49.937  27.907  38.033  0.00  0.00    -0.304 OA
ATOM     23  C   UNL d   1     -50.486  27.422  38.394  0.00  0.00     0.123 A 
ATOM     24  C   UNL d   1     -50.790  26.881  37.823  0.00  0.00     0.029 A 
ATOM     25  C   UNL d   1     -50.400  27.063  37.112  0.00  0.00     0.028 A 
ENDBRANCH  15  21
ENDBRANCH   1  12
BRANCH  10  26
ATOM     26  O   UNL d   1     -47.005  32.771  34.324  0.00  0.00    -0.305 OA
BRANCH  26  27
ATOM     27  C   UNL d   1     -47.530  33.054  33.338  0.00  0.00     0.123 C 
ATOM     28  C   UNL d   1     -48.077  33.687  33.306  0.00  0.00     0.029 C 
ENDBRANCH  26  27
ENDBRANCH  10  26
TORSDOF 5
ENDMDL
