MODEL 1
REMARK VINA RESULT:     -10.3      0.000      0.000
REMARK  3 active torsions:
REMARK  status: ('A' for Active; 'I' for Inactive)
REMARK    1  A    between atoms: C_2  and  S_1 
REMARK    2  A    between atoms: N_3  and  S_1 
REMARK    3  A    between atoms: C_4  and  N_3 
ROOT
ATOM      1  C   UNL d   1      53.556  32.942  53.781  0.00  0.00     0.094 A 
ATOM      2  C   UNL d   1      53.279  33.722  53.794  0.00  0.00     0.021 A 
ATOM      3  C   UNL d   1      53.461  34.186  54.408  0.00  0.00     0.040 A 
ATOM      4  C   UNL d   1      53.921  33.895  55.027  0.00  0.00     0.196 A 
ATOM      5  C   UNL d   1      54.009  32.653  54.391  0.00  0.00     0.023 A 
ATOM      6  C   UNL d   1      54.197  33.114  55.014  0.00  0.00     0.044 A 
ATOM      7  O   UNL d   1      54.098  34.417  55.671  0.00  0.00    -0.287 OA
ATOM      8  C   UNL d   1      52.819  34.014  53.174  0.00  0.00     0.002 A 
ATOM      9  C   UNL d   1      53.179  35.000  54.432  0.00  0.00     0.003 A 
ATOM     10  C   UNL d   1      52.725  35.290  53.822  0.00  0.00     0.000 A 
ATOM     11  C   UNL d   1      52.542  34.800  53.189  0.00  0.00     0.000 A 
ENDROOT
BRANCH   1  12
ATOM     12  N   UNL d   1      53.374  32.441  53.144  0.00  0.00    -0.158 NA
BRANCH  12  13
ATOM     13  S   UNL d   1      53.298  31.625  53.261  0.00  0.00     0.291 S 
ATOM     14  O   UNL d   1      54.128  31.540  53.223  0.00  0.00    -0.198 OA
ATOM     15  O   UNL d   1      52.497  31.696  53.298  0.00  0.00    -0.198 OA
BRANCH  13  16
ATOM     16  C   UNL d   1      53.195  30.822  53.377  0.00  0.00     0.135 A 
ATOM     17  S   UNL d   1      52.586  30.396  53.094  0.00  0.00    -0.073 SA
ATOM     18  C   UNL d   1      52.660  29.599  53.318  0.00  0.00     0.036 A 
ATOM     19  C   UNL d   1      53.336  29.534  53.751  0.00  0.00     0.008 A 
ATOM     20  C   UNL d   1      53.690  30.285  53.802  0.00  0.00     0.020 A 
ENDBRANCH  13  16
ENDBRANCH  12  13
ENDBRANCH   1  12
TORSDOF 3
ENDMDL
MODEL 2
REMARK VINA RESULT:     -10.0      1.977      3.396
REMARK  3 active torsions:
REMARK  status: ('A' for Active; 'I' for Inactive)
REMARK    1  A    between atoms: C_2  and  S_1 
REMARK    2  A    between atoms: N_3  and  S_1 
REMARK    3  A    between atoms: C_4  and  N_3 
ROOT
ATOM      1  C   UNL d   1      52.767  33.467  53.571  0.00  0.00     0.094 A 
ATOM      2  C   UNL d   1      53.403  33.390  54.096  0.00  0.00     0.021 A 
ATOM      3  C   UNL d   1      53.798  32.707  54.125  0.00  0.00     0.040 A 
ATOM      4  C   UNL d   1      53.579  32.078  53.639  0.00  0.00     0.196 A 
ATOM      5  C   UNL d   1      52.549  32.848  53.092  0.00  0.00     0.023 A 
ATOM      6  C   UNL d   1      52.942  32.154  53.114  0.00  0.00     0.044 A 
ATOM      7  O   UNL d   1      54.023  31.358  53.695  0.00  0.00    -0.287 OA
ATOM      8  C   UNL d   1      53.623  34.019  54.582  0.00  0.00     0.002 A 
ATOM      9  C   UNL d   1      54.462  32.615  54.667  0.00  0.00     0.003 A 
ATOM     10  C   UNL d   1      54.681  33.234  55.147  0.00  0.00     0.000 A 
ATOM     11  C   UNL d   1      54.264  33.940  55.110  0.00  0.00     0.000 A 
ENDROOT
BRANCH   1  12
ATOM     12  N   UNL d   1      52.341  34.178  53.528  0.00  0.00    -0.158 NA
BRANCH  12  13
ATOM     13  S   UNL d   1      51.659  34.231  53.060  0.00  0.00     0.291 S 
ATOM     14  O   UNL d   1      52.113  34.536  52.429  0.00  0.00    -0.198 OA
ATOM     15  O   UNL d   1      51.212  33.937  53.663  0.00  0.00    -0.198 OA
BRANCH  13  16
ATOM     16  C   UNL d   1      50.971  34.273  52.619  0.00  0.00     0.135 A 
ATOM     17  S   UNL d   1      50.245  34.393  52.920  0.00  0.00    -0.073 SA
ATOM     18  C   UNL d   1      49.677  34.403  52.314  0.00  0.00     0.036 A 
ATOM     19  C   UNL d   1      50.068  34.286  51.619  0.00  0.00     0.008 A 
ATOM     20  C   UNL d   1      50.878  34.202  51.783  0.00  0.00     0.020 A 
ENDBRANCH  13  16
ENDBRANCH  12  13
ENDBRANCH   1  12
TORSDOF 3
ENDMDL
MODEL 3
REMARK VINA RESULT:      -9.5      1.985      3.394
REMARK  3 active torsions:
REMARK  status: ('A' for Active; 'I' for Inactive)
REMARK    1  A    between atoms: C_2  and  S_1 
REMARK    2  A    between atoms: N_3  and  S_1 
REMARK    3  A    between atoms: C_4  and  N_3 
ROOT
ATOM      1  C   UNL d   1      52.531  33.817  53.504  0.00  0.00     0.094 A 
ATOM      2  C   UNL d   1      53.108  33.355  53.877  0.00  0.00     0.021 A 
ATOM      3  C   UNL d   1      53.585  33.690  54.410  0.00  0.00     0.040 A 
ATOM      4  C   UNL d   1      53.509  34.491  54.592  0.00  0.00     0.196 A 
ATOM      5  C   UNL d   1      52.454  34.607  53.682  0.00  0.00     0.023 A 
ATOM      6  C   UNL d   1      52.931  34.954  54.218  0.00  0.00     0.044 A 
ATOM      7  O   UNL d   1      54.036  34.821  55.167  0.00  0.00    -0.287 OA
ATOM      8  C   UNL d   1      53.185  32.554  53.696  0.00  0.00     0.002 A 
ATOM      9  C   UNL d   1      54.190  33.219  54.804  0.00  0.00     0.003 A 
ATOM     10  C   UNL d   1      54.267  32.430  54.627  0.00  0.00     0.000 A 
ATOM     11  C   UNL d   1      53.767  32.090  54.072  0.00  0.00     0.000 A 
ENDROOT
BRANCH   1  12
ATOM     12  N   UNL d   1      52.021  33.481  52.942  0.00  0.00    -0.158 NA
BRANCH  12  13
ATOM     13  S   UNL d   1      51.303  33.847  52.754  0.00  0.00     0.291 S 
ATOM     14  O   UNL d   1      51.680  34.284  52.151  0.00  0.00    -0.198 OA
ATOM     15  O   UNL d   1      50.929  33.431  53.334  0.00  0.00    -0.198 OA
BRANCH  13  16
ATOM     16  C   UNL d   1      50.581  34.195  52.589  0.00  0.00     0.135 A 
ATOM     17  S   UNL d   1      50.249  34.233  51.867  0.00  0.00    -0.073 SA
ATOM     18  C   UNL d   1      49.516  34.624  51.904  0.00  0.00     0.036 A 
ATOM     19  C   UNL d   1      49.395  34.832  52.673  0.00  0.00     0.008 A 
ATOM     20  C   UNL d   1      50.046  34.575  53.122  0.00  0.00     0.020 A 
ENDBRANCH  13  16
ENDBRANCH  12  13
ENDBRANCH   1  12
TORSDOF 3
ENDMDL
MODEL 4
REMARK VINA RESULT:      -8.0      1.307      3.989
REMARK  3 active torsions:
REMARK  status: ('A' for Active; 'I' for Inactive)
REMARK    1  A    between atoms: C_2  and  S_1 
REMARK    2  A    between atoms: N_3  and  S_1 
REMARK    3  A    between atoms: C_4  and  N_3 
ROOT
ATOM      1  C   UNL d   1      53.414  31.755  53.775  0.00  0.00     0.094 A 
ATOM      2  C   UNL d   1      53.375  30.949  53.962  0.00  0.00     0.021 A 
ATOM      3  C   UNL d   1      53.146  30.436  53.407  0.00  0.00     0.040 A 
ATOM      4  C   UNL d   1      52.948  30.700  52.651  0.00  0.00     0.196 A 
ATOM      5  C   UNL d   1      53.220  32.018  53.030  0.00  0.00     0.023 A 
ATOM      6  C   UNL d   1      52.988  31.507  52.464  0.00  0.00     0.044 A 
ATOM      7  O   UNL d   1      52.706  30.124  52.078  0.00  0.00    -0.287 OA
ATOM      8  C   UNL d   1      53.573  30.684  54.717  0.00  0.00     0.002 A 
ATOM      9  C   UNL d   1      53.101  29.595  53.590  0.00  0.00     0.003 A 
ATOM     10  C   UNL d   1      53.295  29.331  54.334  0.00  0.00     0.000 A 
ATOM     11  C   UNL d   1      53.533  29.873  54.904  0.00  0.00     0.000 A 
ENDROOT
BRANCH   1  12
ATOM     12  N   UNL d   1      53.653  32.308  54.346  0.00  0.00    -0.158 NA
BRANCH  12  13
ATOM     13  S   UNL d   1      53.487  33.113  54.246  0.00  0.00     0.291 S 
ATOM     14  O   UNL d   1      54.240  33.229  53.904  0.00  0.00    -0.198 OA
ATOM     15  O   UNL d   1      52.758  33.013  54.574  0.00  0.00    -0.198 OA
BRANCH  13  16
ATOM     16  C   UNL d   1      53.298  33.904  54.158  0.00  0.00     0.135 A 
ATOM     17  S   UNL d   1      53.378  34.457  54.725  0.00  0.00    -0.073 SA
ATOM     18  C   UNL d   1      53.133  35.199  54.444  0.00  0.00     0.036 A 
ATOM     19  C   UNL d   1      52.895  35.099  53.680  0.00  0.00     0.008 A 
ATOM     20  C   UNL d   1      52.989  34.298  53.478  0.00  0.00     0.020 A 
ENDBRANCH  13  16
ENDBRANCH  12  13
ENDBRANCH   1  12
TORSDOF 3
ENDMDL
