MODEL 1
REMARK VINA RESULT:      84.8      0.000      0.000
REMARK  8 active torsions:
REMARK  status: ('A' for Active; 'I' for Inactive)
REMARK    1  A    between atoms: S_3  and  C_1 
REMARK    2  A    between atoms: C_7  and  C_2 
REMARK    3  A    between atoms: N_9  and  S_3 
REMARK    4  A    between atoms: C_8  and  C_6 
REMARK    5  A    between atoms: O_21  and  C_7 
REMARK    6  A    between atoms: O_22  and  C_8 
REMARK    7  A    between atoms: C_14  and  N_9 
REMARK    8  A    between atoms: C_10  and  C_14 
ROOT
ATOM      1  C   UNL d   1      59.689  49.149  51.384  0.00  0.00     0.140 A 
ATOM      2  C   UNL d   1      59.711  49.200  50.568  0.00  0.00     0.082 A 
ATOM      3  C   UNL d   1      58.946  49.366  50.297  0.00  0.00     0.018 A 
ATOM      4  S   UNL d   1      58.912  49.285  51.609  0.00  0.00    -0.069 SA
ATOM      5  C   UNL d   1      58.475  49.414  50.938  0.00  0.00     0.093 A 
ATOM      6  C   UNL d   1      58.696  49.465  49.533  0.00  0.00     0.001 C 
ENDROOT
BRANCH   1   7
ATOM      7  S   UNL d   1      60.374  48.990  51.788  0.00  0.00     0.291 S 
ATOM      8  O   UNL d   1      60.289  49.706  52.217  0.00  0.00    -0.198 OA
ATOM      9  O   UNL d   1      60.472  48.301  51.387  0.00  0.00    -0.198 OA
BRANCH   7  10
ATOM     10  N   UNL d   1      61.070  48.840  52.206  0.00  0.00    -0.156 NA
BRANCH  10  11
ATOM     11  C   UNL d   1      61.071  48.331  52.859  0.00  0.00     0.119 C 
BRANCH  11  12
ATOM     12  C   UNL d   1      61.775  48.180  53.261  0.00  0.00     0.049 A 
ATOM     13  S   UNL d   1      62.474  48.627  53.255  0.00  0.00    -0.085 SA
ATOM     14  C   UNL d   1      63.024  48.262  53.734  0.00  0.00     0.035 A 
ATOM     15  C   UNL d   1      62.678  47.582  54.048  0.00  0.00     0.007 A 
ATOM     16  C   UNL d   1      61.905  47.535  53.752  0.00  0.00     0.009 A 
ENDBRANCH  11  12
ENDBRANCH  10  11
ENDBRANCH   7  10
ENDBRANCH   1   7
BRANCH   2  17
ATOM     17  C   UNL d   1      60.376  49.104  50.076  0.00  0.00     0.297 C 
ATOM     18  O   UNL d   1      60.824  48.416  50.120  0.00  0.00    -0.259 OA
BRANCH  17  19
ATOM     19  O   UNL d   1      60.580  49.707  49.546  0.00  0.00    -0.296 OA
ATOM     20  C   UNL d   1      61.150  49.576  48.975  0.00  0.00     0.185 C 
ENDBRANCH  17  19
ENDBRANCH   2  17
BRANCH   5  21
ATOM     21  C   UNL d   1      57.642  49.577  50.907  0.00  0.00     0.302 C 
ATOM     22  O   UNL d   1      57.249  49.702  51.607  0.00  0.00    -0.259 OA
BRANCH  21  23
ATOM     23  O   UNL d   1      57.246  49.607  50.178  0.00  0.00    -0.295 OA
ATOM     24  C   UNL d   1      56.426  49.535  50.141  0.00  0.00     0.185 C 
ENDBRANCH  21  23
ENDBRANCH   5  21
TORSDOF 8
ENDMDL
MODEL 2
REMARK VINA RESULT:      86.0      9.610     11.070
REMARK  8 active torsions:
REMARK  status: ('A' for Active; 'I' for Inactive)
REMARK    1  A    between atoms: S_3  and  C_1 
REMARK    2  A    between atoms: C_7  and  C_2 
REMARK    3  A    between atoms: N_9  and  S_3 
REMARK    4  A    between atoms: C_8  and  C_6 
REMARK    5  A    between atoms: O_21  and  C_7 
REMARK    6  A    between atoms: O_22  and  C_8 
REMARK    7  A    between atoms: C_14  and  N_9 
REMARK    8  A    between atoms: C_10  and  C_14 
ROOT
ATOM      1  C   UNL d   1      57.775  39.672  54.868  0.00  0.00     0.140 A 
ATOM      2  C   UNL d   1      57.972  38.998  55.290  0.00  0.00     0.082 A 
ATOM      3  C   UNL d   1      58.754  39.074  55.552  0.00  0.00     0.018 A 
ATOM      4  S   UNL d   1      58.437  40.157  54.874  0.00  0.00    -0.069 SA
ATOM      5  C   UNL d   1      59.021  39.779  55.293  0.00  0.00     0.093 A 
ATOM      6  C   UNL d   1      59.190  38.550  55.988  0.00  0.00     0.001 C 
ENDROOT
BRANCH   1   7
ATOM      7  S   UNL d   1      57.032  39.735  54.550  0.00  0.00     0.291 S 
ATOM      8  O   UNL d   1      57.331  39.494  53.804  0.00  0.00    -0.198 OA
ATOM      9  O   UNL d   1      56.729  39.967  55.257  0.00  0.00    -0.198 OA
BRANCH   7  10
ATOM     10  N   UNL d   1      56.281  39.795  54.214  0.00  0.00    -0.156 NA
BRANCH  10  11
ATOM     11  C   UNL d   1      56.041  40.489  53.832  0.00  0.00     0.119 C 
BRANCH  11  12
ATOM     12  C   UNL d   1      56.047  40.527  53.008  0.00  0.00     0.049 A 
ATOM     13  S   UNL d   1      56.033  41.202  52.526  0.00  0.00    -0.085 SA
ATOM     14  C   UNL d   1      56.046  40.969  51.745  0.00  0.00     0.035 A 
ATOM     15  C   UNL d   1      56.069  40.145  51.725  0.00  0.00     0.007 A 
ATOM     16  C   UNL d   1      56.070  39.875  52.509  0.00  0.00     0.009 A 
ENDBRANCH  11  12
ENDBRANCH  10  11
ENDBRANCH   7  10
ENDBRANCH   1   7
BRANCH   2  17
ATOM     17  C   UNL d   1      57.485  38.340  55.440  0.00  0.00     0.297 C 
ATOM     18  O   UNL d   1      56.959  38.353  56.071  0.00  0.00    -0.259 OA
BRANCH  17  19
ATOM     19  O   UNL d   1      57.538  37.675  54.948  0.00  0.00    -0.296 OA
ATOM     20  C   UNL d   1      56.878  37.211  54.815  0.00  0.00     0.185 C 
ENDBRANCH  17  19
ENDBRANCH   2  17
BRANCH   5  21
ATOM     21  C   UNL d   1      59.802  40.078  55.440  0.00  0.00     0.302 C 
ATOM     22  O   UNL d   1      60.055  40.721  55.014  0.00  0.00    -0.259 OA
BRANCH  21  23
ATOM     23  O   UNL d   1      60.290  39.717  56.007  0.00  0.00    -0.295 OA
ATOM     24  C   UNL d   1      60.935  40.119  56.326  0.00  0.00     0.185 C 
ENDBRANCH  21  23
ENDBRANCH   5  21
TORSDOF 8
ENDMDL
MODEL 3
REMARK VINA RESULT:      86.7      3.385      4.073
REMARK  8 active torsions:
REMARK  status: ('A' for Active; 'I' for Inactive)
REMARK    1  A    between atoms: S_3  and  C_1 
REMARK    2  A    between atoms: C_7  and  C_2 
REMARK    3  A    between atoms: N_9  and  S_3 
REMARK    4  A    between atoms: C_8  and  C_6 
REMARK    5  A    between atoms: O_21  and  C_7 
REMARK    6  A    between atoms: O_22  and  C_8 
REMARK    7  A    between atoms: C_14  and  N_9 
REMARK    8  A    between atoms: C_10  and  C_14 
ROOT
ATOM      1  C   UNL d   1      61.092  46.456  50.746  0.00  0.00     0.140 A 
ATOM      2  C   UNL d   1      61.488  46.787  50.110  0.00  0.00     0.082 A 
ATOM      3  C   UNL d   1      61.404  47.610  50.151  0.00  0.00     0.018 A 
ATOM      4  S   UNL d   1      60.768  47.077  51.172  0.00  0.00    -0.069 SA
ATOM      5  C   UNL d   1      60.967  47.770  50.798  0.00  0.00     0.093 A 
ATOM      6  C   UNL d   1      61.698  48.169  49.645  0.00  0.00     0.001 C 
ENDROOT
BRANCH   1   7
ATOM      7  S   UNL d   1      61.091  45.650  50.833  0.00  0.00     0.291 S 
ATOM      8  O   UNL d   1      60.531  45.584  50.211  0.00  0.00    -0.198 OA
ATOM      9  O   UNL d   1      61.626  45.695  51.429  0.00  0.00    -0.198 OA
BRANCH   7  10
ATOM     10  N   UNL d   1      61.080  44.828  50.911  0.00  0.00    -0.156 NA
BRANCH  10  11
ATOM     11  C   UNL d   1      61.349  44.465  51.604  0.00  0.00     0.119 C 
BRANCH  11  12
ATOM     12  C   UNL d   1      61.629  43.689  51.579  0.00  0.00     0.049 A 
ATOM     13  S   UNL d   1      61.366  43.036  52.018  0.00  0.00    -0.085 SA
ATOM     14  C   UNL d   1      61.807  42.383  51.807  0.00  0.00     0.035 A 
ATOM     15  C   UNL d   1      62.352  42.617  51.234  0.00  0.00     0.007 A 
ATOM     16  C   UNL d   1      62.238  43.427  51.096  0.00  0.00     0.009 A 
ENDBRANCH  11  12
ENDBRANCH  10  11
ENDBRANCH   7  10
ENDBRANCH   1   7
BRANCH   2  17
ATOM     17  C   UNL d   1      61.908  46.384  49.515  0.00  0.00     0.297 C 
ATOM     18  O   UNL d   1      61.500  45.967  48.935  0.00  0.00    -0.259 OA
BRANCH  17  19
ATOM     19  O   UNL d   1      62.736  46.408  49.514  0.00  0.00    -0.296 OA
ATOM     20  C   UNL d   1      63.156  46.035  48.921  0.00  0.00     0.185 C 
ENDBRANCH  17  19
ENDBRANCH   2  17
BRANCH   5  21
ATOM     21  C   UNL d   1      60.749  48.552  51.047  0.00  0.00     0.302 C 
ATOM     22  O   UNL d   1      60.179  48.945  50.623  0.00  0.00    -0.259 OA
BRANCH  21  23
ATOM     23  O   UNL d   1      61.114  48.901  51.705  0.00  0.00    -0.295 OA
ATOM     24  C   UNL d   1      60.956  49.683  51.910  0.00  0.00     0.185 C 
ENDBRANCH  21  23
ENDBRANCH   5  21
TORSDOF 8
ENDMDL
MODEL 4
REMARK VINA RESULT:      87.2      3.501      4.878
REMARK  8 active torsions:
REMARK  status: ('A' for Active; 'I' for Inactive)
REMARK    1  A    between atoms: S_3  and  C_1 
REMARK    2  A    between atoms: C_7  and  C_2 
REMARK    3  A    between atoms: N_9  and  S_3 
REMARK    4  A    between atoms: C_8  and  C_6 
REMARK    5  A    between atoms: O_21  and  C_7 
REMARK    6  A    between atoms: O_22  and  C_8 
REMARK    7  A    between atoms: C_14  and  N_9 
REMARK    8  A    between atoms: C_10  and  C_14 
ROOT
ATOM      1  C   UNL d   1      61.130  45.624  50.750  0.00  0.00     0.140 A 
ATOM      2  C   UNL d   1      61.594  45.227  50.205  0.00  0.00     0.082 A 
ATOM      3  C   UNL d   1      61.648  44.434  50.438  0.00  0.00     0.018 A 
ATOM      4  S   UNL d   1      60.901  45.072  51.312  0.00  0.00    -0.069 SA
ATOM      5  C   UNL d   1      61.224  44.356  51.108  0.00  0.00     0.093 A 
ATOM      6  C   UNL d   1      62.047  43.831  50.073  0.00  0.00     0.001 C 
ENDROOT
BRANCH   1   7
ATOM      7  S   UNL d   1      60.991  46.416  50.647  0.00  0.00     0.291 S 
ATOM      8  O   UNL d   1      60.515  46.246  49.977  0.00  0.00    -0.198 OA
ATOM      9  O   UNL d   1      61.442  46.597  51.286  0.00  0.00    -0.198 OA
BRANCH   7  10
ATOM     10  N   UNL d   1      60.841  47.219  50.531  0.00  0.00    -0.156 NA
BRANCH  10  11
ATOM     11  C   UNL d   1      61.089  47.781  51.085  0.00  0.00     0.119 C 
BRANCH  11  12
ATOM     12  C   UNL d   1      60.757  48.536  51.082  0.00  0.00     0.049 A 
ATOM     13  S   UNL d   1      60.550  49.002  50.427  0.00  0.00    -0.085 SA
ATOM     14  C   UNL d   1      60.239  49.708  50.693  0.00  0.00     0.035 A 
ATOM     15  C   UNL d   1      60.248  49.695  51.518  0.00  0.00     0.007 A 
ATOM     16  C   UNL d   1      60.569  48.968  51.754  0.00  0.00     0.009 A 
ENDBRANCH  11  12
ENDBRANCH  10  11
ENDBRANCH   7  10
ENDBRANCH   1   7
BRANCH   2  17
ATOM     17  C   UNL d   1      61.959  45.547  49.529  0.00  0.00     0.297 C 
ATOM     18  O   UNL d   1      61.503  45.773  48.883  0.00  0.00    -0.259 OA
BRANCH  17  19
ATOM     19  O   UNL d   1      62.783  45.635  49.514  0.00  0.00    -0.296 OA
ATOM     20  C   UNL d   1      63.158  45.875  48.829  0.00  0.00     0.185 C 
ENDBRANCH  17  19
ENDBRANCH   2  17
BRANCH   5  21
ATOM     21  C   UNL d   1      61.133  43.627  51.534  0.00  0.00     0.302 C 
ATOM     22  O   UNL d   1      60.439  43.501  51.936  0.00  0.00    -0.259 OA
BRANCH  21  23
ATOM     23  O   UNL d   1      61.740  43.062  51.534  0.00  0.00    -0.295 OA
ATOM     24  C   UNL d   1      61.954  42.672  52.229  0.00  0.00     0.185 C 
ENDBRANCH  21  23
ENDBRANCH   5  21
TORSDOF 8
ENDMDL
MODEL 5
REMARK VINA RESULT:      87.3      9.881     11.238
REMARK  8 active torsions:
REMARK  status: ('A' for Active; 'I' for Inactive)
REMARK    1  A    between atoms: S_3  and  C_1 
REMARK    2  A    between atoms: C_7  and  C_2 
REMARK    3  A    between atoms: N_9  and  S_3 
REMARK    4  A    between atoms: C_8  and  C_6 
REMARK    5  A    between atoms: O_21  and  C_7 
REMARK    6  A    between atoms: O_22  and  C_8 
REMARK    7  A    between atoms: C_14  and  N_9 
REMARK    8  A    between atoms: C_10  and  C_14 
ROOT
ATOM      1  C   UNL d   1      57.622  39.029  54.722  0.00  0.00     0.140 A 
ATOM      2  C   UNL d   1      58.213  39.052  55.288  0.00  0.00     0.082 A 
ATOM      3  C   UNL d   1      58.533  38.291  55.362  0.00  0.00     0.018 A 
ATOM      4  S   UNL d   1      57.582  38.255  54.453  0.00  0.00    -0.069 SA
ATOM      5  C   UNL d   1      58.141  37.821  54.852  0.00  0.00     0.093 A 
ATOM      6  C   UNL d   1      59.128  38.043  55.851  0.00  0.00     0.001 C 
ENDROOT
BRANCH   1   7
ATOM      7  S   UNL d   1      57.219  39.710  54.545  0.00  0.00     0.291 S 
ATOM      8  O   UNL d   1      57.657  39.783  53.833  0.00  0.00    -0.198 OA
ATOM      9  O   UNL d   1      56.791  39.654  55.222  0.00  0.00    -0.198 OA
BRANCH   7  10
ATOM     10  N   UNL d   1      56.816  40.403  54.352  0.00  0.00    -0.156 NA
BRANCH  10  11
ATOM     11  C   UNL d   1      56.181  40.392  53.822  0.00  0.00     0.119 C 
BRANCH  11  12
ATOM     12  C   UNL d   1      56.124  40.970  53.236  0.00  0.00     0.049 A 
ATOM     13  S   UNL d   1      56.091  40.865  52.414  0.00  0.00    -0.085 SA
ATOM     14  C   UNL d   1      56.037  41.596  52.057  0.00  0.00     0.035 A 
ATOM     15  C   UNL d   1      56.034  42.170  52.649  0.00  0.00     0.007 A 
ATOM     16  C   UNL d   1      56.088  41.778  53.378  0.00  0.00     0.009 A 
ENDBRANCH  11  12
ENDBRANCH  10  11
ENDBRANCH   7  10
ENDBRANCH   1   7
BRANCH   2  17
ATOM     17  C   UNL d   1      58.465  39.715  55.724  0.00  0.00     0.297 C 
ATOM     18  O   UNL d   1      57.951  40.079  56.252  0.00  0.00    -0.259 OA
BRANCH  17  19
ATOM     19  O   UNL d   1      59.236  40.001  55.620  0.00  0.00    -0.296 OA
ATOM     20  C   UNL d   1      59.663  40.271  56.262  0.00  0.00     0.185 C 
ENDBRANCH  17  19
ENDBRANCH   2  17
BRANCH   5  21
ATOM     21  C   UNL d   1      58.296  36.992  54.750  0.00  0.00     0.302 C 
ATOM     22  O   UNL d   1      57.878  36.465  55.205  0.00  0.00    -0.259 OA
BRANCH  21  23
ATOM     23  O   UNL d   1      58.861  36.734  54.200  0.00  0.00    -0.295 OA
ATOM     24  C   UNL d   1      58.842  35.965  53.904  0.00  0.00     0.185 C 
ENDBRANCH  21  23
ENDBRANCH   5  21
TORSDOF 8
ENDMDL
