MODEL 1
REMARK VINA RESULT:      40.0      0.000      0.000
REMARK  5 active torsions:
REMARK  status: ('A' for Active; 'I' for Inactive)
REMARK    1  A    between atoms: C_7  and  N_2 
REMARK    2  A    between atoms: C_8  and  C_7 
REMARK    3  A    between atoms: C_13  and  C_8 
REMARK    4  A    between atoms: C_9  and  O_11 
REMARK    5  A    between atoms: O_11  and  C_13 
ROOT
ATOM      1  C   UNL d   1      57.978  49.704  51.352  0.00  0.00     0.378 A 
ATOM      2  N   UNL d   1      58.261  49.702  50.571  0.00  0.00    -0.251 N 
ATOM      3  O   UNL d   1      57.156  49.706  51.326  0.00  0.00    -0.258 OA
ATOM      4  C   UNL d   1      57.600  49.701  50.067  0.00  0.00     0.092 A 
ATOM      5  C   UNL d   1      56.920  49.704  50.533  0.00  0.00     0.121 A 
ATOM      6  O   UNL d   1      58.447  49.706  52.029  0.00  0.00    -0.237 OA
ATOM      7  C   UNL d   1      57.544  49.699  49.244  0.00  0.00     0.020 A 
ATOM      8  C   UNL d   1      56.170  49.705  50.173  0.00  0.00     0.026 A 
ATOM      9  C   UNL d   1      56.796  49.699  48.887  0.00  0.00     0.002 A 
ATOM     10  C   UNL d   1      56.110  49.702  49.350  0.00  0.00     0.002 A 
ENDROOT
BRANCH   2  11
ATOM     11  C   UNL d   1      59.046  49.699  50.342  0.00  0.00     0.087 C 
BRANCH  11  12
ATOM     12  C   UNL d   1      59.647  49.707  50.902  0.00  0.00     0.046 C 
BRANCH  12  13
ATOM     13  C   UNL d   1      60.357  49.333  50.756  0.00  0.00     0.124 C 
BRANCH  13  14
ATOM     14  O   UNL d   1      60.521  48.598  51.086  0.00  0.00    -0.305 OA
BRANCH  14  15
ATOM     15  C   UNL d   1      60.992  48.049  50.684  0.00  0.00     0.100 A 
ATOM     16  C   UNL d   1      61.377  48.266  49.996  0.00  0.00     0.025 A 
ATOM     17  C   UNL d   1      61.848  47.716  49.594  0.00  0.00     0.002 A 
ATOM     18  C   UNL d   1      61.925  46.955  49.889  0.00  0.00     0.000 A 
ATOM     19  C   UNL d   1      61.535  46.737  50.585  0.00  0.00     0.002 A 
ATOM     20  C   UNL d   1      61.065  47.286  50.987  0.00  0.00     0.025 A 
ENDBRANCH  14  15
ENDBRANCH  13  14
ENDBRANCH  12  13
ENDBRANCH  11  12
ENDBRANCH   2  11
TORSDOF 5
ENDMDL
MODEL 2
REMARK VINA RESULT:      40.3      1.461      1.669
REMARK  5 active torsions:
REMARK  status: ('A' for Active; 'I' for Inactive)
REMARK    1  A    between atoms: C_7  and  N_2 
REMARK    2  A    between atoms: C_8  and  C_7 
REMARK    3  A    between atoms: C_13  and  C_8 
REMARK    4  A    between atoms: C_9  and  O_11 
REMARK    5  A    between atoms: O_11  and  C_13 
ROOT
ATOM      1  C   UNL d   1      56.856  49.364  51.552  0.00  0.00     0.378 A 
ATOM      2  N   UNL d   1      57.509  49.534  51.068  0.00  0.00    -0.251 N 
ATOM      3  O   UNL d   1      56.208  49.223  51.065  0.00  0.00    -0.258 OA
ATOM      4  C   UNL d   1      57.252  49.494  50.278  0.00  0.00     0.092 A 
ATOM      5  C   UNL d   1      56.450  49.302  50.278  0.00  0.00     0.121 A 
ATOM      6  O   UNL d   1      56.864  49.344  52.374  0.00  0.00    -0.237 OA
ATOM      7  C   UNL d   1      57.656  49.609  49.568  0.00  0.00     0.020 A 
ATOM      8  C   UNL d   1      56.042  49.224  49.556  0.00  0.00     0.026 A 
ATOM      9  C   UNL d   1      57.248  49.531  48.851  0.00  0.00     0.002 A 
ATOM     10  C   UNL d   1      56.442  49.339  48.845  0.00  0.00     0.002 A 
ENDROOT
BRANCH   2  11
ATOM     11  C   UNL d   1      58.266  49.708  51.323  0.00  0.00     0.087 C 
BRANCH  11  12
ATOM     12  C   UNL d   1      58.921  49.359  50.969  0.00  0.00     0.046 C 
BRANCH  12  13
ATOM     13  C   UNL d   1      59.676  49.586  51.176  0.00  0.00     0.124 C 
BRANCH  13  14
ATOM     14  O   UNL d   1      60.079  49.202  51.782  0.00  0.00    -0.305 OA
BRANCH  14  15
ATOM     15  C   UNL d   1      60.891  49.318  51.890  0.00  0.00     0.100 A 
ATOM     16  C   UNL d   1      61.363  49.525  51.255  0.00  0.00     0.025 A 
ATOM     17  C   UNL d   1      62.176  49.641  51.364  0.00  0.00     0.002 A 
ATOM     18  C   UNL d   1      62.503  49.547  52.110  0.00  0.00     0.000 A 
ATOM     19  C   UNL d   1      62.025  49.337  52.751  0.00  0.00     0.002 A 
ATOM     20  C   UNL d   1      61.213  49.222  52.643  0.00  0.00     0.025 A 
ENDBRANCH  14  15
ENDBRANCH  13  14
ENDBRANCH  12  13
ENDBRANCH  11  12
ENDBRANCH   2  11
TORSDOF 5
ENDMDL
