MODEL 1
REMARK VINA RESULT:      40.3      0.000      0.000
REMARK  4 active torsions:
REMARK  status: ('A' for Active; 'I' for Inactive)
REMARK    1  A    between atoms: N_2  and  C_1 
REMARK    2  A    between atoms: C_3  and  C_1 
REMARK       I    between atoms: C_6  and  N_2 
REMARK    3  A    between atoms: S_9  and  C_6 
REMARK    4  A    between atoms: C_14  and  S_9 
ROOT
ATOM      1  C   UNL d   1      14.050  12.856  -2.044  0.00  0.00     0.385 A 
ATOM      2  O   UNL d   1      13.488  12.288  -2.192  0.00  0.00    -0.283 OA
ATOM      3  O   UNL d   1      14.279  13.186  -2.777  0.00  0.00    -0.283 OA
ATOM      4  C   UNL d   1      13.843  12.806  -3.366  0.00  0.00     0.121 A 
ATOM      5  C   UNL d   1      13.349  12.245  -2.999  0.00  0.00     0.121 A 
ATOM      6  C   UNL d   1      12.852  11.783  -3.450  0.00  0.00     0.026 A 
ATOM      7  C   UNL d   1      13.832  12.895  -4.176  0.00  0.00     0.026 A 
ATOM      8  C   UNL d   1      13.323  12.422  -4.631  0.00  0.00     0.002 A 
ATOM      9  C   UNL d   1      12.843  11.877  -4.275  0.00  0.00     0.002 A 
ENDROOT
BRANCH   1  10
ATOM     10  N   UNL d   1      14.407  13.140  -1.340  0.00  0.00    -0.171 NA
ATOM     11  C   UNL d   1      14.569  13.944  -1.254  0.00  0.00     0.310 C 
ATOM     12  O   UNL d   1      14.384  14.471  -1.856  0.00  0.00    -0.258 OA
BRANCH  11  13
ATOM     13  S   UNL d   1      14.921  14.220  -0.558  0.00  0.00    -0.026 SA
BRANCH  13  14
ATOM     14  C   UNL d   1      15.233  14.984  -0.525  0.00  0.00     0.034 A 
ATOM     15  C   UNL d   1      14.888  15.591  -0.964  0.00  0.00     0.007 A 
ATOM     16  C   UNL d   1      15.200  16.352  -0.930  0.00  0.00     0.001 A 
ATOM     17  C   UNL d   1      15.858  16.508  -0.457  0.00  0.00     0.000 A 
ATOM     18  C   UNL d   1      16.207  15.905  -0.016  0.00  0.00     0.001 A 
ATOM     19  C   UNL d   1      15.891  15.140  -0.052  0.00  0.00     0.007 A 
ENDBRANCH  13  14
ENDBRANCH  11  13
ENDBRANCH   1  10
BRANCH   1  20
ATOM     20  C   UNL d   1      13.592  12.326  -1.617  0.00  0.00     0.470 C 
ATOM     21  F   UNL d   1      13.143  11.780  -1.183  0.00  0.00    -0.164 F 
ATOM     22  F   UNL d   1      14.282  11.879  -1.455  0.00  0.00    -0.164 F 
ATOM     23  F   UNL d   1      12.919  12.767  -1.780  0.00  0.00    -0.164 F 
ENDBRANCH   1  20
TORSDOF 4
ENDMDL
MODEL 2
REMARK VINA RESULT:      43.3      2.755      3.995
REMARK  4 active torsions:
REMARK  status: ('A' for Active; 'I' for Inactive)
REMARK    1  A    between atoms: N_2  and  C_1 
REMARK    2  A    between atoms: C_3  and  C_1 
REMARK       I    between atoms: C_6  and  N_2 
REMARK    3  A    between atoms: S_9  and  C_6 
REMARK    4  A    between atoms: C_14  and  S_9 
ROOT
ATOM      1  C   UNL d   1      15.020  15.805  -1.421  0.00  0.00     0.385 A 
ATOM      2  O   UNL d   1      15.086  16.601  -1.575  0.00  0.00    -0.283 OA
ATOM      3  O   UNL d   1      14.951  15.409  -2.154  0.00  0.00    -0.283 OA
ATOM      4  C   UNL d   1      14.975  15.980  -2.748  0.00  0.00     0.121 A 
ATOM      5  C   UNL d   1      15.059  16.726  -2.386  0.00  0.00     0.121 A 
ATOM      6  C   UNL d   1      15.099  17.399  -2.843  0.00  0.00     0.026 A 
ATOM      7  C   UNL d   1      14.932  15.922  -3.560  0.00  0.00     0.026 A 
ATOM      8  C   UNL d   1      14.974  16.611  -4.021  0.00  0.00     0.002 A 
ATOM      9  C   UNL d   1      15.055  17.335  -3.670  0.00  0.00     0.002 A 
ENDROOT
BRANCH   1  10
ATOM     10  N   UNL d   1      15.013  15.359  -0.712  0.00  0.00    -0.171 NA
ATOM     11  C   UNL d   1      15.125  14.541  -0.738  0.00  0.00     0.310 C 
ATOM     12  O   UNL d   1      15.244  14.162  -1.456  0.00  0.00    -0.258 OA
BRANCH  11  13
ATOM     13  S   UNL d   1      15.116  14.103  -0.036  0.00  0.00    -0.026 SA
BRANCH  13  14
ATOM     14  C   UNL d   1      14.826  13.331  -0.032  0.00  0.00     0.034 A 
ATOM     15  C   UNL d   1      15.347  12.692  -0.042  0.00  0.00     0.007 A 
ATOM     16  C   UNL d   1      15.055  11.922  -0.038  0.00  0.00     0.001 A 
ATOM     17  C   UNL d   1      14.241  11.790  -0.025  0.00  0.00     0.000 A 
ATOM     18  C   UNL d   1      13.715  12.424  -0.015  0.00  0.00     0.001 A 
ATOM     19  C   UNL d   1      14.011  13.197  -0.019  0.00  0.00     0.007 A 
ENDBRANCH  13  14
ENDBRANCH  11  13
ENDBRANCH   1  10
BRANCH   1  20
ATOM     20  C   UNL d   1      15.103  16.504  -0.999  0.00  0.00     0.470 C 
ATOM     21  F   UNL d   1      15.170  17.214  -0.573  0.00  0.00    -0.164 F 
ATOM     22  F   UNL d   1      14.278  16.629  -1.065  0.00  0.00    -0.164 F 
ATOM     23  F   UNL d   1      15.912  16.378  -0.937  0.00  0.00    -0.164 F 
ENDBRANCH   1  20
TORSDOF 4
ENDMDL
