MODEL 1
REMARK VINA RESULT:      -6.3      0.000      0.000
REMARK  3 active torsions:
REMARK  status: ('A' for Active; 'I' for Inactive)
REMARK    1  A    between atoms: N_6  and  C_2 
REMARK    2  A    between atoms: C_8  and  C_3 
REMARK       I    between atoms: C_7  and  N_6 
REMARK    3  A    between atoms: C_10  and  C_7 
ROOT
ATOM      1  N   UNL d   1     -47.572  11.469  23.085  0.00  0.00    -0.200 NA
ATOM      2  C   UNL d   1     -46.879  11.606  23.502  0.00  0.00     0.216 A 
ATOM      3  C   UNL d   1     -47.978  12.191  23.018  0.00  0.00     0.172 A 
ATOM      4  N   UNL d   1     -47.528  12.770  23.397  0.00  0.00    -0.187 NA
ATOM      5  S   UNL d   1     -46.846  12.410  23.698  0.00  0.00     0.054 SA
ENDROOT
BRANCH   3   6
ATOM      6  C   UNL d   1     -48.699  12.305  22.640  0.00  0.00     0.036 A 
ATOM      7  C   UNL d   1     -48.724  12.455  21.834  0.00  0.00     0.003 A 
ATOM      8  C   UNL d   1     -49.453  12.568  21.461  0.00  0.00     0.000 A 
ATOM      9  C   UNL d   1     -50.152  12.531  21.898  0.00  0.00     0.000 A 
ATOM     10  C   UNL d   1     -50.127  12.380  22.709  0.00  0.00     0.000 A 
ATOM     11  C   UNL d   1     -49.394  12.267  23.077  0.00  0.00     0.003 A 
ENDBRANCH   3   6
BRANCH   2  12
ATOM     12  N   UNL d   1     -46.312  11.040  23.694  0.00  0.00    -0.181 NA
ATOM     13  C   UNL d   1     -45.542  11.123  23.415  0.00  0.00     0.281 C 
ATOM     14  O   UNL d   1     -45.338  11.768  22.947  0.00  0.00    -0.265 OA
BRANCH  13  15
ATOM     15  C   UNL d   1     -44.980  10.561  23.604  0.00  0.00     0.063 C 
ATOM     16  C   UNL d   1     -44.189  10.667  23.386  0.00  0.00     0.005 C 
ENDBRANCH  13  15
ENDBRANCH   2  12
TORSDOF 3
ENDMDL
MODEL 2
REMARK VINA RESULT:      -6.1      1.891      3.745
REMARK  3 active torsions:
REMARK  status: ('A' for Active; 'I' for Inactive)
REMARK    1  A    between atoms: N_6  and  C_2 
REMARK    2  A    between atoms: C_8  and  C_3 
REMARK       I    between atoms: C_7  and  N_6 
REMARK    3  A    between atoms: C_10  and  C_7 
ROOT
ATOM      1  N   UNL d   1     -47.935  12.721  23.209  0.00  0.00    -0.200 NA
ATOM      2  C   UNL d   1     -48.372  12.112  23.543  0.00  0.00     0.216 A 
ATOM      3  C   UNL d   1     -47.145  12.469  23.154  0.00  0.00     0.172 A 
ATOM      4  N   UNL d   1     -47.103  11.703  23.456  0.00  0.00    -0.187 NA
ATOM      5  S   UNL d   1     -47.862  11.479  23.698  0.00  0.00     0.054 SA
ENDROOT
BRANCH   3   6
ATOM      6  C   UNL d   1     -46.519  12.908  22.851  0.00  0.00     0.036 A 
ATOM      7  C   UNL d   1     -45.864  12.529  22.534  0.00  0.00     0.003 A 
ATOM      8  C   UNL d   1     -45.239  12.978  22.231  0.00  0.00     0.000 A 
ATOM      9  C   UNL d   1     -45.275  13.802  22.249  0.00  0.00     0.000 A 
ATOM     10  C   UNL d   1     -45.933  14.183  22.568  0.00  0.00     0.000 A 
ATOM     11  C   UNL d   1     -46.556  13.729  22.869  0.00  0.00     0.003 A 
ENDBRANCH   3   6
BRANCH   2  12
ATOM     12  N   UNL d   1     -49.181  12.129  23.698  0.00  0.00    -0.181 NA
ATOM     13  C   UNL d   1     -49.713  11.896  23.113  0.00  0.00     0.281 C 
ATOM     14  O   UNL d   1     -49.439  11.647  22.378  0.00  0.00    -0.265 OA
BRANCH  13  15
ATOM     15  C   UNL d   1     -50.515  11.912  23.267  0.00  0.00     0.063 C 
ATOM     16  C   UNL d   1     -51.007  12.447  22.873  0.00  0.00     0.005 C 
ENDBRANCH  13  15
ENDBRANCH   2  12
TORSDOF 3
ENDMDL
MODEL 3
REMARK VINA RESULT:      -4.9      8.443      8.733
REMARK  3 active torsions:
REMARK  status: ('A' for Active; 'I' for Inactive)
REMARK    1  A    between atoms: N_6  and  C_2 
REMARK    2  A    between atoms: C_8  and  C_3 
REMARK       I    between atoms: C_7  and  N_6 
REMARK    3  A    between atoms: C_10  and  C_7 
ROOT
ATOM      1  N   UNL d   1     -39.653  15.007  20.155  0.00  0.00    -0.200 NA
ATOM      2  C   UNL d   1     -39.803  15.092  20.957  0.00  0.00     0.216 A 
ATOM      3  C   UNL d   1     -40.356  15.175  19.744  0.00  0.00     0.172 A 
ATOM      4  N   UNL d   1     -40.936  15.363  20.300  0.00  0.00    -0.187 NA
ATOM      5  S   UNL d   1     -40.595  15.312  21.054  0.00  0.00     0.054 SA
ENDROOT
BRANCH   3   6
ATOM      6  C   UNL d   1     -40.453  15.156  18.928  0.00  0.00     0.036 A 
ATOM      7  C   UNL d   1     -40.462  14.438  18.530  0.00  0.00     0.003 A 
ATOM      8  C   UNL d   1     -40.560  14.428  17.709  0.00  0.00     0.000 A 
ATOM      9  C   UNL d   1     -40.648  15.135  17.293  0.00  0.00     0.000 A 
ATOM     10  C   UNL d   1     -40.639  15.856  17.693  0.00  0.00     0.000 A 
ATOM     11  C   UNL d   1     -40.541  15.861  18.515  0.00  0.00     0.003 A 
ENDBRANCH   3   6
BRANCH   2  12
ATOM     12  N   UNL d   1     -39.257  14.978  21.564  0.00  0.00    -0.181 NA
ATOM     13  C   UNL d   1     -39.254  14.268  21.981  0.00  0.00     0.281 C 
ATOM     14  O   UNL d   1     -39.793  13.675  21.795  0.00  0.00    -0.265 OA
BRANCH  13  15
ATOM     15  C   UNL d   1     -38.713  14.154  22.583  0.00  0.00     0.063 C 
ATOM     16  C   UNL d   1     -38.682  13.435  22.990  0.00  0.00     0.005 C 
ENDBRANCH  13  15
ENDBRANCH   2  12
TORSDOF 3
ENDMDL
MODEL 4
REMARK VINA RESULT:      -4.9      8.832      9.817
REMARK  3 active torsions:
REMARK  status: ('A' for Active; 'I' for Inactive)
REMARK    1  A    between atoms: N_6  and  C_2 
REMARK    2  A    between atoms: C_8  and  C_3 
REMARK       I    between atoms: C_7  and  N_6 
REMARK    3  A    between atoms: C_10  and  C_7 
ROOT
ATOM      1  N   UNL d   1     -39.804  15.318  18.817  0.00  0.00    -0.200 NA
ATOM      2  C   UNL d   1     -39.878  15.078  18.037  0.00  0.00     0.216 A 
ATOM      3  C   UNL d   1     -39.548  14.665  19.264  0.00  0.00     0.172 A 
ATOM      4  N   UNL d   1     -39.466  14.025  18.749  0.00  0.00    -0.187 NA
ATOM      5  S   UNL d   1     -39.670  14.278  17.988  0.00  0.00     0.054 SA
ENDROOT
BRANCH   3   6
ATOM      6  C   UNL d   1     -39.403  14.661  20.072  0.00  0.00     0.036 A 
ATOM      7  C   UNL d   1     -39.976  14.391  20.593  0.00  0.00     0.003 A 
ATOM      8  C   UNL d   1     -39.823  14.391  21.406  0.00  0.00     0.000 A 
ATOM      9  C   UNL d   1     -39.097  14.660  21.690  0.00  0.00     0.000 A 
ATOM     10  C   UNL d   1     -38.520  14.931  21.166  0.00  0.00     0.000 A 
ATOM     11  C   UNL d   1     -38.679  14.930  20.354  0.00  0.00     0.003 A 
ENDBRANCH   3   6
BRANCH   2  12
ATOM     12  N   UNL d   1     -40.119  15.552  17.408  0.00  0.00    -0.181 NA
ATOM     13  C   UNL d   1     -40.864  15.441  17.074  0.00  0.00     0.281 C 
ATOM     14  O   UNL d   1     -41.366  14.858  17.367  0.00  0.00    -0.265 OA
BRANCH  13  15
ATOM     15  C   UNL d   1     -41.103  15.911  16.450  0.00  0.00     0.063 C 
ATOM     16  C   UNL d   1     -41.894  15.922  16.211  0.00  0.00     0.005 C 
ENDBRANCH  13  15
ENDBRANCH   2  12
TORSDOF 3
ENDMDL
MODEL 5
REMARK VINA RESULT:      -3.4      8.565      9.929
REMARK  3 active torsions:
REMARK  status: ('A' for Active; 'I' for Inactive)
REMARK    1  A    between atoms: N_6  and  C_2 
REMARK    2  A    between atoms: C_8  and  C_3 
REMARK       I    between atoms: C_7  and  N_6 
REMARK    3  A    between atoms: C_10  and  C_7 
ROOT
ATOM      1  N   UNL d   1     -39.576  14.752  18.438  0.00  0.00    -0.200 NA
ATOM      2  C   UNL d   1     -40.302  14.940  18.770  0.00  0.00     0.216 A 
ATOM      3  C   UNL d   1     -39.691  14.122  17.908  0.00  0.00     0.172 A 
ATOM      4  N   UNL d   1     -40.493  13.927  17.920  0.00  0.00    -0.187 NA
ATOM      5  S   UNL d   1     -40.874  14.432  18.453  0.00  0.00     0.054 SA
ENDROOT
BRANCH   3   6
ATOM      6  C   UNL d   1     -39.109  13.760  17.455  0.00  0.00     0.036 A 
ATOM      7  C   UNL d   1     -38.868  14.098  16.747  0.00  0.00     0.003 A 
ATOM      8  C   UNL d   1     -38.281  13.728  16.297  0.00  0.00     0.000 A 
ATOM      9  C   UNL d   1     -37.940  13.024  16.559  0.00  0.00     0.000 A 
ATOM     10  C   UNL d   1     -38.182  12.685  17.271  0.00  0.00     0.000 A 
ATOM     11  C   UNL d   1     -38.770  13.059  17.717  0.00  0.00     0.003 A 
ENDBRANCH   3   6
BRANCH   2  12
ATOM     12  N   UNL d   1     -40.439  15.533  19.325  0.00  0.00    -0.181 NA
ATOM     13  C   UNL d   1     -40.546  15.334  20.117  0.00  0.00     0.281 C 
ATOM     14  O   UNL d   1     -40.518  14.546  20.354  0.00  0.00    -0.265 OA
BRANCH  13  15
ATOM     15  C   UNL d   1     -40.682  15.922  20.668  0.00  0.00     0.063 C 
ATOM     16  C   UNL d   1     -40.412  15.840  21.445  0.00  0.00     0.005 C 
ENDBRANCH  13  15
ENDBRANCH   2  12
TORSDOF 3
ENDMDL
