MODEL 1
REMARK VINA RESULT:      27.9      0.000      0.000
REMARK  2 active torsions:
REMARK  status: ('A' for Active; 'I' for Inactive)
REMARK       I    between atoms: N_3  and  C_1 
REMARK    1  A    between atoms: C_4  and  C_1 
REMARK    2  A    between atoms: C_10  and  N_3 
ROOT
ATOM      1  C   UNL d   1      59.008  49.682  51.161  0.00  0.00     0.279 C 
ATOM      2  N   UNL d   1      58.690  49.687  50.398  0.00  0.00    -0.208 NA
ATOM      3  O   UNL d   1      58.506  49.670  51.819  0.00  0.00    -0.265 OA
ENDROOT
BRANCH   1   4
ATOM      4  C   UNL d   1      59.827  49.688  51.257  0.00  0.00     0.059 A 
ATOM      5  C   UNL d   1      60.146  49.686  52.015  0.00  0.00     0.013 A 
ATOM      6  C   UNL d   1      60.957  49.692  52.124  0.00  0.00     0.049 A 
ATOM      7  S   UNL d   1      61.429  49.692  52.808  0.00  0.00    -0.064 SA
ATOM      8  C   UNL d   1      61.468  49.701  51.457  0.00  0.00     0.088 A 
ATOM      9  C   UNL d   1      62.220  49.700  52.556  0.00  0.00     0.135 A 
ATOM     10  N   UNL d   1      62.256  49.706  51.735  0.00  0.00    -0.236 NA
ATOM     11  C   UNL d   1      61.157  49.704  50.687  0.00  0.00     0.020 A 
ATOM     12  C   UNL d   1      60.338  49.697  50.591  0.00  0.00     0.006 A 
ENDBRANCH   1   4
BRANCH   2  13
ATOM     13  C   UNL d   1      57.840  49.680  50.306  0.00  0.00     0.087 A 
ATOM     14  C   UNL d   1      57.348  49.695  50.966  0.00  0.00     0.049 A 
ATOM     15  C   UNL d   1      56.538  49.688  50.871  0.00  0.00     0.142 A 
ATOM     16  F   UNL d   1      56.034  49.704  51.532  0.00  0.00    -0.204 F 
ATOM     17  C   UNL d   1      56.215  49.666  50.120  0.00  0.00     0.030 A 
ATOM     18  C   UNL d   1      56.703  49.651  49.458  0.00  0.00     0.004 A 
ATOM     19  C   UNL d   1      57.526  49.658  49.551  0.00  0.00     0.019 A 
ENDBRANCH   2  13
TORSDOF 2
ENDMDL
