MODEL 1
REMARK VINA RESULT:      -7.3      0.000      0.000
REMARK  0 active torsions:
REMARK  status: ('A' for Active; 'I' for Inactive)
ROOT
ATOM      1  C   UNL d   1     -47.098  12.295  23.452  0.00  0.00     0.061 A 
ATOM      2  C   UNL d   1     -46.280  12.403  23.472  0.00  0.00     0.279 A 
ATOM      3  C   UNL d   1     -47.589  12.916  23.226  0.00  0.00     0.045 A 
ATOM      4  N   UNL d   1     -45.958  13.129  23.266  0.00  0.00    -0.206 NA
ATOM      5  C   UNL d   1     -48.410  12.804  23.207  0.00  0.00     0.196 A 
ATOM      6  O   UNL d   1     -45.789  11.782  23.698  0.00  0.00    -0.265 OA
ATOM      7  C   UNL d   1     -46.454  13.751  23.040  0.00  0.00     0.102 A 
ATOM      8  O   UNL d   1     -48.901  13.425  22.981  0.00  0.00    -0.287 OA
ATOM      9  C   UNL d   1     -47.273  13.637  23.022  0.00  0.00     0.024 A 
ATOM     10  C   UNL d   1     -47.424  11.557  23.661  0.00  0.00     0.005 A 
ATOM     11  C   UNL d   1     -48.237  11.451  23.641  0.00  0.00     0.003 A 
ATOM     12  C   UNL d   1     -48.729  12.073  23.414  0.00  0.00     0.042 A 
ENDROOT
TORSDOF 0
ENDMDL
MODEL 2
REMARK VINA RESULT:      -7.2      1.194      2.330
REMARK  0 active torsions:
REMARK  status: ('A' for Active; 'I' for Inactive)
ROOT
ATOM      1  C   UNL d   1     -47.831  12.468  22.922  0.00  0.00     0.061 A 
ATOM      2  C   UNL d   1     -48.202  11.731  22.939  0.00  0.00     0.279 A 
ATOM      3  C   UNL d   1     -47.103  12.570  23.293  0.00  0.00     0.045 A 
ATOM      4  N   UNL d   1     -47.846  11.102  23.326  0.00  0.00    -0.206 NA
ATOM      5  C   UNL d   1     -46.733  13.311  23.274  0.00  0.00     0.196 A 
ATOM      6  O   UNL d   1     -48.930  11.630  22.568  0.00  0.00    -0.265 OA
ATOM      7  C   UNL d   1     -47.115  11.208  23.698  0.00  0.00     0.102 A 
ATOM      8  O   UNL d   1     -46.005  13.413  23.645  0.00  0.00    -0.287 OA
ATOM      9  C   UNL d   1     -46.747  11.948  23.677  0.00  0.00     0.024 A 
ATOM     10  C   UNL d   1     -48.195  13.106  22.528  0.00  0.00     0.005 A 
ATOM     11  C   UNL d   1     -47.824  13.838  22.512  0.00  0.00     0.003 A 
ATOM     12  C   UNL d   1     -47.096  13.940  22.883  0.00  0.00     0.042 A 
ENDROOT
TORSDOF 0
ENDMDL
MODEL 3
REMARK VINA RESULT:      -7.1      0.804      1.984
REMARK  0 active torsions:
REMARK  status: ('A' for Active; 'I' for Inactive)
ROOT
ATOM      1  C   UNL d   1     -47.876  12.784  23.179  0.00  0.00     0.061 A 
ATOM      2  C   UNL d   1     -48.329  13.424  22.920  0.00  0.00     0.279 A 
ATOM      3  C   UNL d   1     -47.062  12.866  23.267  0.00  0.00     0.045 A 
ATOM      4  N   UNL d   1     -47.966  14.140  22.751  0.00  0.00    -0.206 NA
ATOM      5  C   UNL d   1     -46.610  12.221  23.528  0.00  0.00     0.196 A 
ATOM      6  O   UNL d   1     -49.143  13.343  22.832  0.00  0.00    -0.265 OA
ATOM      7  C   UNL d   1     -47.147  14.218  22.840  0.00  0.00     0.102 A 
ATOM      8  O   UNL d   1     -45.796  12.303  23.616  0.00  0.00    -0.287 OA
ATOM      9  C   UNL d   1     -46.699  13.575  23.100  0.00  0.00     0.024 A 
ATOM     10  C   UNL d   1     -48.247  12.058  23.351  0.00  0.00     0.005 A 
ATOM     11  C   UNL d   1     -47.795  11.423  23.609  0.00  0.00     0.003 A 
ATOM     12  C   UNL d   1     -46.980  11.504  23.697  0.00  0.00     0.042 A 
ENDROOT
TORSDOF 0
ENDMDL
MODEL 4
REMARK VINA RESULT:      -7.1      0.781      1.760
REMARK  0 active torsions:
REMARK  status: ('A' for Active; 'I' for Inactive)
ROOT
ATOM      1  C   UNL d   1     -46.983  12.849  23.244  0.00  0.00     0.061 A 
ATOM      2  C   UNL d   1     -46.599  12.177  23.531  0.00  0.00     0.279 A 
ATOM      3  C   UNL d   1     -47.789  12.822  23.077  0.00  0.00     0.045 A 
ATOM      4  N   UNL d   1     -47.022  11.483  23.650  0.00  0.00    -0.206 NA
ATOM      5  C   UNL d   1     -48.171  13.499  22.789  0.00  0.00     0.196 A 
ATOM      6  O   UNL d   1     -45.794  12.203  23.698  0.00  0.00    -0.265 OA
ATOM      7  C   UNL d   1     -47.831  11.460  23.481  0.00  0.00     0.102 A 
ATOM      8  O   UNL d   1     -48.977  13.472  22.623  0.00  0.00    -0.287 OA
ATOM      9  C   UNL d   1     -48.210  12.136  23.194  0.00  0.00     0.024 A 
ATOM     10  C   UNL d   1     -46.552  13.552  23.124  0.00  0.00     0.005 A 
ATOM     11  C   UNL d   1     -46.935  14.219  22.839  0.00  0.00     0.003 A 
ATOM     12  C   UNL d   1     -47.742  14.193  22.672  0.00  0.00     0.042 A 
ENDROOT
TORSDOF 0
ENDMDL
MODEL 5
REMARK VINA RESULT:      -7.1      1.117      1.701
REMARK  0 active torsions:
REMARK  status: ('A' for Active; 'I' for Inactive)
ROOT
ATOM      1  C   UNL d   1     -47.299  12.951  22.956  0.00  0.00     0.061 A 
ATOM      2  C   UNL d   1     -46.565  13.033  23.326  0.00  0.00     0.279 A 
ATOM      3  C   UNL d   1     -47.682  12.223  22.959  0.00  0.00     0.045 A 
ATOM      4  N   UNL d   1     -46.220  12.387  23.696  0.00  0.00    -0.206 NA
ATOM      5  C   UNL d   1     -48.418  12.144  22.587  0.00  0.00     0.196 A 
ATOM      6  O   UNL d   1     -46.182  13.761  23.322  0.00  0.00    -0.265 OA
ATOM      7  C   UNL d   1     -46.608  11.657  23.698  0.00  0.00     0.102 A 
ATOM      8  O   UNL d   1     -48.802  11.416  22.591  0.00  0.00    -0.287 OA
ATOM      9  C   UNL d   1     -47.342  11.582  23.326  0.00  0.00     0.024 A 
ATOM     10  C   UNL d   1     -47.648  13.608  22.580  0.00  0.00     0.005 A 
ATOM     11  C   UNL d   1     -48.377  13.525  22.213  0.00  0.00     0.003 A 
ATOM     12  C   UNL d   1     -48.761  12.796  22.216  0.00  0.00     0.042 A 
ENDROOT
TORSDOF 0
ENDMDL
MODEL 6
REMARK VINA RESULT:      -6.9      1.078      1.446
REMARK  0 active torsions:
REMARK  status: ('A' for Active; 'I' for Inactive)
ROOT
ATOM      1  C   UNL d   1     -47.129  12.763  23.320  0.00  0.00     0.061 A 
ATOM      2  C   UNL d   1     -46.904  13.547  23.194  0.00  0.00     0.279 A 
ATOM      3  C   UNL d   1     -47.910  12.534  23.196  0.00  0.00     0.045 A 
ATOM      4  N   UNL d   1     -47.460  14.097  22.945  0.00  0.00    -0.206 NA
ATOM      5  C   UNL d   1     -48.133  11.746  23.323  0.00  0.00     0.196 A 
ATOM      6  O   UNL d   1     -46.123  13.775  23.319  0.00  0.00    -0.265 OA
ATOM      7  C   UNL d   1     -48.244  13.864  22.821  0.00  0.00     0.102 A 
ATOM      8  O   UNL d   1     -48.914  11.517  23.198  0.00  0.00    -0.287 OA
ATOM      9  C   UNL d   1     -48.463  13.077  22.949  0.00  0.00     0.024 A 
ATOM     10  C   UNL d   1     -46.564  12.205  23.573  0.00  0.00     0.005 A 
ATOM     11  C   UNL d   1     -46.789  11.426  23.698  0.00  0.00     0.003 A 
ATOM     12  C   UNL d   1     -47.570  11.197  23.573  0.00  0.00     0.042 A 
ENDROOT
TORSDOF 0
ENDMDL
MODEL 7
REMARK VINA RESULT:      -6.6      2.347      2.987
REMARK  0 active torsions:
REMARK  status: ('A' for Active; 'I' for Inactive)
ROOT
ATOM      1  C   UNL d   1     -49.255  12.003  22.514  0.00  0.00     0.061 A 
ATOM      2  C   UNL d   1     -49.055  11.475  23.116  0.00  0.00     0.279 A 
ATOM      3  C   UNL d   1     -50.005  12.343  22.498  0.00  0.00     0.045 A 
ATOM      4  N   UNL d   1     -49.603  11.290  23.698  0.00  0.00    -0.206 NA
ATOM      5  C   UNL d   1     -50.203  12.873  21.892  0.00  0.00     0.196 A 
ATOM      6  O   UNL d   1     -48.305  11.135  23.132  0.00  0.00    -0.265 OA
ATOM      7  C   UNL d   1     -50.355  11.633  23.679  0.00  0.00     0.102 A 
ATOM      8  O   UNL d   1     -50.952  13.212  21.876  0.00  0.00    -0.287 OA
ATOM      9  C   UNL d   1     -50.550  12.161  23.073  0.00  0.00     0.024 A 
ATOM     10  C   UNL d   1     -48.697  12.190  21.924  0.00  0.00     0.005 A 
ATOM     11  C   UNL d   1     -48.898  12.715  21.326  0.00  0.00     0.003 A 
ATOM     12  C   UNL d   1     -49.648  13.055  21.311  0.00  0.00     0.042 A 
ENDROOT
TORSDOF 0
ENDMDL
MODEL 8
REMARK VINA RESULT:      -6.2      1.506      1.959
REMARK  0 active torsions:
REMARK  status: ('A' for Active; 'I' for Inactive)
ROOT
ATOM      1  C   UNL d   1     -48.837  12.146  23.041  0.00  0.00     0.061 A 
ATOM      2  C   UNL d   1     -48.016  12.224  23.040  0.00  0.00     0.279 A 
ATOM      3  C   UNL d   1     -49.276  12.407  22.396  0.00  0.00     0.045 A 
ATOM      4  N   UNL d   1     -47.637  12.561  22.394  0.00  0.00    -0.206 NA
ATOM      5  C   UNL d   1     -50.101  12.327  22.400  0.00  0.00     0.196 A 
ATOM      6  O   UNL d   1     -47.577  11.963  23.686  0.00  0.00    -0.265 OA
ATOM      7  C   UNL d   1     -48.081  12.822  21.747  0.00  0.00     0.102 A 
ATOM      8  O   UNL d   1     -50.539  12.588  21.754  0.00  0.00    -0.287 OA
ATOM      9  C   UNL d   1     -48.904  12.741  21.754  0.00  0.00     0.024 A 
ATOM     10  C   UNL d   1     -49.220  11.803  23.698  0.00  0.00     0.005 A 
ATOM     11  C   UNL d   1     -50.036  11.727  23.698  0.00  0.00     0.003 A 
ATOM     12  C   UNL d   1     -50.475  11.988  23.051  0.00  0.00     0.042 A 
ENDROOT
TORSDOF 0
ENDMDL
MODEL 9
REMARK VINA RESULT:      -6.1      2.758      3.486
REMARK  0 active torsions:
REMARK  status: ('A' for Active; 'I' for Inactive)
ROOT
ATOM      1  C   UNL d   1     -49.164  13.932  21.938  0.00  0.00     0.061 A 
ATOM      2  C   UNL d   1     -49.157  13.201  21.556  0.00  0.00     0.279 A 
ATOM      3  C   UNL d   1     -49.881  14.298  22.112  0.00  0.00     0.045 A 
ATOM      4  N   UNL d   1     -49.864  12.839  21.350  0.00  0.00    -0.206 NA
ATOM      5  C   UNL d   1     -49.885  15.033  22.496  0.00  0.00     0.196 A 
ATOM      6  O   UNL d   1     -48.440  12.835  21.383  0.00  0.00    -0.265 OA
ATOM      7  C   UNL d   1     -50.582  13.210  21.526  0.00  0.00     0.102 A 
ATOM      8  O   UNL d   1     -50.601  15.398  22.669  0.00  0.00    -0.287 OA
ATOM      9  C   UNL d   1     -50.583  13.942  21.909  0.00  0.00     0.024 A 
ATOM     10  C   UNL d   1     -48.445  14.298  22.147  0.00  0.00     0.005 A 
ATOM     11  C   UNL d   1     -48.454  15.025  22.527  0.00  0.00     0.003 A 
ATOM     12  C   UNL d   1     -49.171  15.391  22.700  0.00  0.00     0.042 A 
ENDROOT
TORSDOF 0
ENDMDL
