MODEL 1
REMARK VINA RESULT:      -3.7      0.000      0.000
REMARK  3 active torsions:
REMARK  status: ('A' for Active; 'I' for Inactive)
REMARK    1  A    between atoms: C_11  and  C_8 
REMARK       I    between atoms: N_14  and  C_11 
REMARK    2  A    between atoms: C_20  and  N_14 
REMARK    3  A    between atoms: C_21  and  C_20 
ROOT
ATOM      1  C   UNL d   1     -41.583-122.679 -52.536  0.00  0.00     0.154 A 
ATOM      2  C   UNL d   1     -41.898-121.917 -52.565  0.00  0.00     0.093 A 
ATOM      3  N   UNL d   1     -41.466-123.103 -53.239  0.00  0.00    -0.210 NA
ATOM      4  N   UNL d   1     -41.978-122.005 -53.993  0.00  0.00    -0.258 N 
ATOM      5  C   UNL d   1     -42.096-121.579 -53.297  0.00  0.00     0.269 A 
ATOM      6  N   UNL d   1     -41.440-122.869 -51.750  0.00  0.00    -0.285 N 
ATOM      7  C   UNL d   1     -41.663-122.767 -53.964  0.00  0.00     0.152 A 
ATOM      8  C   UNL d   1     -41.665-122.228 -51.288  0.00  0.00     0.124 A 
ATOM      9  C   UNL d   1     -41.949-121.638 -51.797  0.00  0.00     0.030 A 
ATOM     10  C   UNL d   1     -42.176-121.667 -54.717  0.00  0.00     0.084 A 
ATOM     11  C   UNL d   1     -41.546-123.191 -54.659  0.00  0.00     0.038 A 
ATOM     12  C   UNL d   1     -42.059-122.092 -55.413  0.00  0.00     0.018 A 
ATOM     13  C   UNL d   1     -41.744-122.854 -55.384  0.00  0.00     0.005 A 
ATOM     14  O   UNL d   1     -42.411-120.817 -53.326  0.00  0.00    -0.266 OA
ATOM     15  C   UNL d   1     -41.125-123.581 -51.465  0.00  0.00     0.101 C 
ATOM     16  C   UNL d   1     -42.257-121.755 -56.150  0.00  0.00     0.002 C 
ENDROOT
BRANCH   8  17
ATOM     17  C   UNL d   1     -41.617-122.181 -50.466  0.00  0.00     0.295 C 
ATOM     18  N   UNL d   1     -42.058-122.704 -49.999  0.00  0.00    -0.203 NA
ATOM     19  O   UNL d   1     -41.135-121.619 -50.108  0.00  0.00    -0.264 OA
BRANCH  18  20
ATOM     20  C   UNL d   1     -42.012-122.660 -49.177  0.00  0.00     0.127 C 
BRANCH  20  21
ATOM     21  C   UNL d   1     -42.529-123.101 -48.711  0.00  0.00     0.119 A 
ATOM     22  O   UNL d   1     -43.276-123.432 -48.868  0.00  0.00    -0.304 OA
ATOM     23  C   UNL d   1     -43.530-123.817 -48.184  0.00  0.00     0.123 A 
ATOM     24  C   UNL d   1     -42.955-123.732 -47.607  0.00  0.00     0.029 A 
ATOM     25  C   UNL d   1     -42.330-123.288 -47.928  0.00  0.00     0.028 A 
ENDBRANCH  20  21
ENDBRANCH  18  20
ENDBRANCH   8  17
TORSDOF 3
ENDMDL
MODEL 2
REMARK VINA RESULT:      -1.9      1.047      5.262
REMARK  3 active torsions:
REMARK  status: ('A' for Active; 'I' for Inactive)
REMARK    1  A    between atoms: C_11  and  C_8 
REMARK       I    between atoms: N_14  and  C_11 
REMARK    2  A    between atoms: C_20  and  N_14 
REMARK    3  A    between atoms: C_21  and  C_20 
ROOT
ATOM      1  C   UNL d   1     -42.356-122.137 -50.631  0.00  0.00     0.154 A 
ATOM      2  C   UNL d   1     -41.799-122.745 -50.603  0.00  0.00     0.093 A 
ATOM      3  N   UNL d   1     -42.837-121.988 -49.972  0.00  0.00    -0.210 NA
ATOM      4  N   UNL d   1     -42.202-123.052 -49.263  0.00  0.00    -0.258 N 
ATOM      5  C   UNL d   1     -41.722-123.203 -49.916  0.00  0.00     0.269 A 
ATOM      6  N   UNL d   1     -42.311-121.780 -51.370  0.00  0.00    -0.285 N 
ATOM      7  C   UNL d   1     -42.759-122.444 -49.291  0.00  0.00     0.152 A 
ATOM      8  C   UNL d   1     -41.727-122.163 -51.803  0.00  0.00     0.124 A 
ATOM      9  C   UNL d   1     -41.411-122.762 -51.325  0.00  0.00     0.030 A 
ATOM     10  C   UNL d   1     -42.123-123.509 -48.583  0.00  0.00     0.084 A 
ATOM     11  C   UNL d   1     -43.237-122.293 -48.639  0.00  0.00     0.038 A 
ATOM     12  C   UNL d   1     -42.602-123.358 -47.930  0.00  0.00     0.018 A 
ATOM     13  C   UNL d   1     -43.159-122.750 -47.958  0.00  0.00     0.005 A 
ATOM     14  O   UNL d   1     -41.165-123.811 -49.888  0.00  0.00    -0.266 OA
ATOM     15  C   UNL d   1     -42.771-121.144 -51.638  0.00  0.00     0.101 C 
ATOM     16  C   UNL d   1     -42.527-123.817 -47.238  0.00  0.00     0.002 C 
ENDROOT
BRANCH   8  17
ATOM     17  C   UNL d   1     -41.498-121.983 -52.575  0.00  0.00     0.295 C 
ATOM     18  N   UNL d   1     -41.639-122.528 -53.181  0.00  0.00    -0.203 NA
ATOM     19  O   UNL d   1     -41.131-121.266 -52.744  0.00  0.00    -0.264 OA
BRANCH  18  20
ATOM     20  C   UNL d   1     -41.411-122.352 -53.954  0.00  0.00     0.127 C 
BRANCH  20  21
ATOM     21  C   UNL d   1     -41.929-122.493 -54.579  0.00  0.00     0.119 A 
ATOM     22  O   UNL d   1     -42.593-122.989 -54.651  0.00  0.00    -0.304 OA
ATOM     23  C   UNL d   1     -42.894-122.898 -55.414  0.00  0.00     0.123 A 
ATOM     24  C   UNL d   1     -42.430-122.356 -55.816  0.00  0.00     0.029 A 
ATOM     25  C   UNL d   1     -41.828-122.100 -55.302  0.00  0.00     0.028 A 
ENDBRANCH  20  21
ENDBRANCH  18  20
ENDBRANCH   8  17
TORSDOF 3
ENDMDL
MODEL 3
REMARK VINA RESULT:      -1.6      0.877      1.282
REMARK  3 active torsions:
REMARK  status: ('A' for Active; 'I' for Inactive)
REMARK    1  A    between atoms: C_11  and  C_8 
REMARK       I    between atoms: N_14  and  C_11 
REMARK    2  A    between atoms: C_20  and  N_14 
REMARK    3  A    between atoms: C_21  and  C_20 
ROOT
ATOM      1  C   UNL d   1     -41.871-121.960 -52.386  0.00  0.00     0.154 A 
ATOM      2  C   UNL d   1     -41.527-122.705 -52.475  0.00  0.00     0.093 A 
ATOM      3  N   UNL d   1     -42.154-121.555 -53.052  0.00  0.00    -0.210 NA
ATOM      4  N   UNL d   1     -41.749-122.638 -53.889  0.00  0.00    -0.258 N 
ATOM      5  C   UNL d   1     -41.466-123.044 -53.230  0.00  0.00     0.269 A 
ATOM      6  N   UNL d   1     -41.857-121.764 -51.588  0.00  0.00    -0.285 N 
ATOM      7  C   UNL d   1     -42.092-121.893 -53.800  0.00  0.00     0.152 A 
ATOM      8  C   UNL d   1     -41.506-122.384 -51.179  0.00  0.00     0.124 A 
ATOM      9  C   UNL d   1     -41.302-122.967 -51.732  0.00  0.00     0.030 A 
ATOM     10  C   UNL d   1     -41.687-122.977 -54.637  0.00  0.00     0.084 A 
ATOM     11  C   UNL d   1     -42.374-121.488 -54.458  0.00  0.00     0.038 A 
ATOM     12  C   UNL d   1     -41.969-122.571 -55.296  0.00  0.00     0.018 A 
ATOM     13  C   UNL d   1     -42.313-121.826 -55.206  0.00  0.00     0.005 A 
ATOM     14  O   UNL d   1     -41.123-123.789 -53.320  0.00  0.00    -0.266 OA
ATOM     15  C   UNL d   1     -42.146-121.065 -51.249  0.00  0.00     0.101 C 
ATOM     16  C   UNL d   1     -41.909-122.910 -56.056  0.00  0.00     0.002 C 
ENDROOT
BRANCH   8  17
ATOM     17  C   UNL d   1     -41.380-122.419 -50.365  0.00  0.00     0.295 C 
ATOM     18  N   UNL d   1     -41.514-123.128 -49.960  0.00  0.00    -0.203 NA
ATOM     19  O   UNL d   1     -41.123-121.754 -49.954  0.00  0.00    -0.264 OA
BRANCH  18  20
ATOM     20  C   UNL d   1     -41.389-123.167 -49.145  0.00  0.00     0.127 C 
BRANCH  20  21
ATOM     21  C   UNL d   1     -42.009-123.370 -48.643  0.00  0.00     0.119 A 
ATOM     22  O   UNL d   1     -42.741-123.740 -48.781  0.00  0.00    -0.304 OA
ATOM     23  C   UNL d   1     -43.136-123.798 -48.059  0.00  0.00     0.123 A 
ATOM     24  C   UNL d   1     -42.663-123.470 -47.476  0.00  0.00     0.029 A 
ATOM     25  C   UNL d   1     -41.961-123.202 -47.832  0.00  0.00     0.028 A 
ENDBRANCH  20  21
ENDBRANCH  18  20
ENDBRANCH   8  17
TORSDOF 3
ENDMDL
