MODEL 1
REMARK VINA RESULT:      -7.4      0.000      0.000
REMARK  5 active torsions:
REMARK  status: ('A' for Active; 'I' for Inactive)
REMARK    1  A    between atoms: C_7  and  C_1 
REMARK    2  A    between atoms: C_5  and  S_14 
REMARK       I    between atoms: N_13  and  C_7 
REMARK    3  A    between atoms: C_18  and  N_13 
REMARK    4  A    between atoms: S_14  and  C_19 
REMARK    5  A    between atoms: C_19  and  C_18 
ROOT
ATOM      1  C   UNL d   1      51.431  33.342  53.178  0.00  0.00     0.056 C 
ENDROOT
BRANCH   1   2
ATOM      2  S   UNL d   1      51.174  33.853  52.573  0.00  0.00    -0.083 SA
BRANCH   2   3
ATOM      3  C   UNL d   1      50.471  34.286  52.668  0.00  0.00     0.050 A 
ATOM      4  C   UNL d   1      49.904  34.411  52.085  0.00  0.00     0.025 A 
ATOM      5  C   UNL d   1      49.294  34.871  52.418  0.00  0.00     0.082 A 
ATOM      6  C   UNL d   1      49.853  34.171  51.292  0.00  0.00     0.002 A 
ATOM      7  C   UNL d   1      48.641  35.088  51.960  0.00  0.00     0.019 A 
ATOM      8  N   UNL d   1      49.498  35.022  53.206  0.00  0.00    -0.243 NA
ATOM      9  C   UNL d   1      48.597  34.846  51.174  0.00  0.00     0.002 A 
ATOM     10  C   UNL d   1      49.209  34.384  50.838  0.00  0.00     0.000 A 
ATOM     11  C   UNL d   1      50.222  34.662  53.359  0.00  0.00     0.105 A 
ENDBRANCH   2   3
ENDBRANCH   1   2
BRANCH   1  12
ATOM     12  C   UNL d   1      52.206  33.057  53.173  0.00  0.00     0.109 C 
BRANCH  12  13
ATOM     13  N   UNL d   1      52.352  32.245  53.033  0.00  0.00    -0.204 NA
ATOM     14  C   UNL d   1      53.048  31.897  53.301  0.00  0.00     0.302 C 
ATOM     15  O   UNL d   1      53.188  31.096  53.160  0.00  0.00    -0.263 OA
BRANCH  14  16
ATOM     16  C   UNL d   1      53.610  32.354  53.715  0.00  0.00     0.158 A 
ATOM     17  O   UNL d   1      53.635  32.635  54.493  0.00  0.00    -0.296 OA
ATOM     18  C   UNL d   1      54.336  33.058  54.584  0.00  0.00     0.134 A 
ATOM     19 BR   UNL d   1      54.590  33.440  55.280  0.00  0.00    -0.022 Br
ATOM     20  C   UNL d   1      54.746  33.042  53.870  0.00  0.00     0.034 A 
ATOM     21  C   UNL d   1      54.296  32.606  53.335  0.00  0.00     0.032 A 
ENDBRANCH  14  16
ENDBRANCH  12  13
ENDBRANCH   1  12
TORSDOF 5
ENDMDL
MODEL 2
REMARK VINA RESULT:      -6.7      2.948      5.246
REMARK  5 active torsions:
REMARK  status: ('A' for Active; 'I' for Inactive)
REMARK    1  A    between atoms: C_7  and  C_1 
REMARK    2  A    between atoms: C_5  and  S_14 
REMARK       I    between atoms: N_13  and  C_7 
REMARK    3  A    between atoms: C_18  and  N_13 
REMARK    4  A    between atoms: S_14  and  C_19 
REMARK    5  A    between atoms: C_19  and  C_18 
ROOT
ATOM      1  C   UNL d   1      50.108  34.218  52.494  0.00  0.00     0.056 C 
ENDROOT
BRANCH   1   2
ATOM      2  S   UNL d   1      50.843  34.524  52.738  0.00  0.00    -0.083 SA
BRANCH   2   3
ATOM      3  C   UNL d   1      51.413  34.016  53.069  0.00  0.00     0.050 A 
ATOM      4  C   UNL d   1      52.087  34.256  53.475  0.00  0.00     0.025 A 
ATOM      5  C   UNL d   1      52.499  33.570  53.710  0.00  0.00     0.082 A 
ATOM      6  C   UNL d   1      52.390  35.004  53.667  0.00  0.00     0.002 A 
ATOM      7  C   UNL d   1      53.206  33.636  54.132  0.00  0.00     0.019 A 
ATOM      8  N   UNL d   1      52.067  32.916  53.442  0.00  0.00    -0.243 NA
ATOM      9  C   UNL d   1      53.501  34.381  54.320  0.00  0.00     0.002 A 
ATOM     10  C   UNL d   1      53.089  35.070  54.085  0.00  0.00     0.000 A 
ATOM     11  C   UNL d   1      51.399  33.193  53.048  0.00  0.00     0.105 A 
ENDBRANCH   2   3
ENDBRANCH   1   2
BRANCH   1  12
ATOM     12  C   UNL d   1      49.485  34.733  52.327  0.00  0.00     0.109 C 
BRANCH  12  13
ATOM     13  N   UNL d   1      48.991  34.591  51.666  0.00  0.00    -0.204 NA
ATOM     14  C   UNL d   1      48.268  34.979  51.598  0.00  0.00     0.302 C 
ATOM     15  O   UNL d   1      47.785  34.835  50.944  0.00  0.00    -0.263 OA
BRANCH  14  16
ATOM     16  C   UNL d   1      48.026  35.516  52.189  0.00  0.00     0.158 A 
ATOM     17  O   UNL d   1      47.925  35.435  53.006  0.00  0.00    -0.296 OA
ATOM     18  C   UNL d   1      47.673  36.163  53.300  0.00  0.00     0.134 A 
ATOM     19 BR   UNL d   1      47.504  36.336  54.098  0.00  0.00    -0.022 Br
ATOM     20  C   UNL d   1      47.617  36.692  52.673  0.00  0.00     0.034 A 
ATOM     21  C   UNL d   1      47.835  36.291  51.987  0.00  0.00     0.032 A 
ENDBRANCH  14  16
ENDBRANCH  12  13
ENDBRANCH   1  12
TORSDOF 5
ENDMDL
MODEL 3
REMARK VINA RESULT:      -6.7      2.406      5.006
REMARK  5 active torsions:
REMARK  status: ('A' for Active; 'I' for Inactive)
REMARK    1  A    between atoms: C_7  and  C_1 
REMARK    2  A    between atoms: C_5  and  S_14 
REMARK       I    between atoms: N_13  and  C_7 
REMARK    3  A    between atoms: C_18  and  N_13 
REMARK    4  A    between atoms: S_14  and  C_19 
REMARK    5  A    between atoms: C_19  and  C_18 
ROOT
ATOM      1  C   UNL d   1      53.435  32.378  53.383  0.00  0.00     0.056 C 
ENDROOT
BRANCH   1   2
ATOM      2  S   UNL d   1      53.316  31.738  53.902  0.00  0.00    -0.083 SA
BRANCH   2   3
ATOM      3  C   UNL d   1      53.230  30.969  53.597  0.00  0.00     0.050 A 
ATOM      4  C   UNL d   1      53.263  30.275  54.037  0.00  0.00     0.025 A 
ATOM      5  C   UNL d   1      53.149  29.637  53.513  0.00  0.00     0.082 A 
ATOM      6  C   UNL d   1      53.382  30.128  54.845  0.00  0.00     0.002 A 
ATOM      7  C   UNL d   1      53.154  28.861  53.797  0.00  0.00     0.019 A 
ATOM      8  N   UNL d   1      53.047  29.953  52.754  0.00  0.00    -0.243 NA
ATOM      9  C   UNL d   1      53.273  28.722  54.600  0.00  0.00     0.002 A 
ATOM     10  C   UNL d   1      53.387  29.361  55.127  0.00  0.00     0.000 A 
ATOM     11  C   UNL d   1      53.096  30.773  52.808  0.00  0.00     0.105 A 
ENDBRANCH   2   3
ENDBRANCH   1   2
BRANCH   1  12
ATOM     12  C   UNL d   1      52.949  33.044  53.434  0.00  0.00     0.109 C 
BRANCH  12  13
ATOM     13  N   UNL d   1      53.282  33.794  53.594  0.00  0.00    -0.204 NA
ATOM     14  C   UNL d   1      52.869  34.480  53.406  0.00  0.00     0.302 C 
ATOM     15  O   UNL d   1      53.202  35.218  53.566  0.00  0.00    -0.263 OA
BRANCH  14  16
ATOM     16  C   UNL d   1      52.114  34.429  53.053  0.00  0.00     0.158 A 
ATOM     17  O   UNL d   1      51.354  34.364  53.373  0.00  0.00    -0.296 OA
ATOM     18  C   UNL d   1      50.820  34.335  52.746  0.00  0.00     0.134 A 
ATOM     19 BR   UNL d   1      49.991  34.270  52.812  0.00  0.00    -0.022 Br
ATOM     20  C   UNL d   1      51.243  34.381  52.041  0.00  0.00     0.034 A 
ATOM     21  C   UNL d   1      52.042  34.439  52.233  0.00  0.00     0.032 A 
ENDBRANCH  14  16
ENDBRANCH  12  13
ENDBRANCH   1  12
TORSDOF 5
ENDMDL
MODEL 4
REMARK VINA RESULT:      -6.6      1.462      2.041
REMARK  5 active torsions:
REMARK  status: ('A' for Active; 'I' for Inactive)
REMARK    1  A    between atoms: C_7  and  C_1 
REMARK    2  A    between atoms: C_5  and  S_14 
REMARK       I    between atoms: N_13  and  C_7 
REMARK    3  A    between atoms: C_18  and  N_13 
REMARK    4  A    between atoms: S_14  and  C_19 
REMARK    5  A    between atoms: C_19  and  C_18 
ROOT
ATOM      1  C   UNL d   1      51.258  34.484  52.726  0.00  0.00     0.056 C 
ENDROOT
BRANCH   1   2
ATOM      2  S   UNL d   1      50.453  34.486  52.941  0.00  0.00    -0.083 SA
BRANCH   2   3
ATOM      3  C   UNL d   1      49.869  34.560  52.354  0.00  0.00     0.050 A 
ATOM      4  C   UNL d   1      49.168  34.984  52.430  0.00  0.00     0.025 A 
ATOM      5  C   UNL d   1      48.748  34.911  51.714  0.00  0.00     0.082 A 
ATOM      6  C   UNL d   1      48.847  35.430  53.052  0.00  0.00     0.002 A 
ATOM      7  C   UNL d   1      48.015  35.281  51.623  0.00  0.00     0.019 A 
ATOM      8  N   UNL d   1      49.202  34.439  51.206  0.00  0.00    -0.243 NA
ATOM      9  C   UNL d   1      47.702  35.723  52.243  0.00  0.00     0.002 A 
ATOM     10  C   UNL d   1      48.122  35.797  52.963  0.00  0.00     0.000 A 
ATOM     11  C   UNL d   1      49.891  34.224  51.602  0.00  0.00     0.105 A 
ENDBRANCH   2   3
ENDBRANCH   1   2
BRANCH   1  12
ATOM     12  C   UNL d   1      51.837  34.379  53.305  0.00  0.00     0.109 C 
BRANCH  12  13
ATOM     13  N   UNL d   1      52.266  35.039  53.591  0.00  0.00    -0.204 NA
ATOM     14  C   UNL d   1      52.983  34.930  53.980  0.00  0.00     0.302 C 
ATOM     15  O   UNL d   1      53.402  35.583  54.261  0.00  0.00    -0.263 OA
BRANCH  14  16
ATOM     16  C   UNL d   1      53.285  34.160  54.090  0.00  0.00     0.158 A 
ATOM     17  O   UNL d   1      53.514  33.571  53.555  0.00  0.00    -0.296 OA
ATOM     18  C   UNL d   1      53.770  32.922  53.993  0.00  0.00     0.134 A 
ATOM     19 BR   UNL d   1      54.051  32.201  53.682  0.00  0.00    -0.022 Br
ATOM     20  C   UNL d   1      53.702  33.103  54.793  0.00  0.00     0.034 A 
ATOM     21  C   UNL d   1      53.403  33.868  54.851  0.00  0.00     0.032 A 
ENDBRANCH  14  16
ENDBRANCH  12  13
ENDBRANCH   1  12
TORSDOF 5
ENDMDL
MODEL 5
REMARK VINA RESULT:      -6.5      3.036      3.865
REMARK  5 active torsions:
REMARK  status: ('A' for Active; 'I' for Inactive)
REMARK    1  A    between atoms: C_7  and  C_1 
REMARK    2  A    between atoms: C_5  and  S_14 
REMARK       I    between atoms: N_13  and  C_7 
REMARK    3  A    between atoms: C_18  and  N_13 
REMARK    4  A    between atoms: S_14  and  C_19 
REMARK    5  A    between atoms: C_19  and  C_18 
ROOT
ATOM      1  C   UNL d   1      53.710  32.247  53.616  0.00  0.00     0.056 C 
ENDROOT
BRANCH   1   2
ATOM      2  S   UNL d   1      53.220  32.898  53.787  0.00  0.00    -0.083 SA
BRANCH   2   3
ATOM      3  C   UNL d   1      53.501  33.511  54.275  0.00  0.00     0.050 A 
ATOM      4  C   UNL d   1      53.214  34.282  54.284  0.00  0.00     0.025 A 
ATOM      5  C   UNL d   1      53.652  34.708  54.851  0.00  0.00     0.082 A 
ATOM      6  C   UNL d   1      52.614  34.663  53.857  0.00  0.00     0.002 A 
ATOM      7  C   UNL d   1      53.489  35.507  54.987  0.00  0.00     0.019 A 
ATOM      8  N   UNL d   1      54.205  34.187  55.183  0.00  0.00    -0.243 NA
ATOM      9  C   UNL d   1      52.892  35.879  54.560  0.00  0.00     0.002 A 
ATOM     10  C   UNL d   1      52.451  35.452  53.990  0.00  0.00     0.000 A 
ATOM     11  C   UNL d   1      54.110  33.451  54.826  0.00  0.00     0.105 A 
ENDBRANCH   2   3
ENDBRANCH   1   2
BRANCH   1  12
ATOM     12  C   UNL d   1      53.378  31.498  53.515  0.00  0.00     0.109 C 
BRANCH  12  13
ATOM     13  N   UNL d   1      53.295  31.178  52.745  0.00  0.00    -0.204 NA
ATOM     14  C   UNL d   1      53.145  30.375  52.645  0.00  0.00     0.302 C 
ATOM     15  O   UNL d   1      53.064  30.064  51.885  0.00  0.00    -0.263 OA
BRANCH  14  16
ATOM     16  C   UNL d   1      53.074  29.878  53.311  0.00  0.00     0.158 A 
ATOM     17  O   UNL d   1      53.633  29.570  53.838  0.00  0.00    -0.296 OA
ATOM     18  C   UNL d   1      53.229  29.110  54.390  0.00  0.00     0.134 A 
ATOM     19 BR   UNL d   1      53.574  28.693  55.024  0.00  0.00    -0.022 Br
ATOM     20  C   UNL d   1      52.426  29.130  54.210  0.00  0.00     0.034 A 
ATOM     21  C   UNL d   1      52.332  29.605  53.544  0.00  0.00     0.032 A 
ENDBRANCH  14  16
ENDBRANCH  12  13
ENDBRANCH   1  12
TORSDOF 5
ENDMDL
