MODEL 1
REMARK VINA RESULT:      27.0      0.000      0.000
REMARK  3 active torsions:
REMARK  status: ('A' for Active; 'I' for Inactive)
REMARK    1  A    between atoms: C_6  and  C_1 
REMARK    2  A    between atoms: O_9  and  C_6 
REMARK    3  A    between atoms: C_12  and  O_9 
ROOT
ATOM      1  C   UNL d   1     -57.428 -98.774 -44.437  0.00  0.00     0.089 A 
ATOM      2  C   UNL d   1     -57.731 -98.768 -43.662  0.00  0.00     0.138 A 
ATOM      3  S   UNL d   1     -57.108 -98.777 -43.154  0.00  0.00    -0.066 SA
ATOM      4  C   UNL d   1     -56.623 -98.786 -44.375  0.00  0.00     0.013 A 
ATOM      5  C   UNL d   1     -56.420 -98.788 -43.602  0.00  0.00     0.031 A 
ATOM      6  N   UNL d   1     -58.529 -98.756 -43.433  0.00  0.00    -0.141 N 
ATOM      7  C   UNL d   1     -56.043 -98.795 -44.973  0.00  0.00     0.001 A 
ATOM      8  C   UNL d   1     -55.618 -98.800 -43.374  0.00  0.00     0.006 A 
ATOM      9  C   UNL d   1     -55.241 -98.807 -44.740  0.00  0.00     0.000 A 
ATOM     10  C   UNL d   1     -55.055 -98.809 -43.971  0.00  0.00     0.001 A 
ENDROOT
BRANCH   1  11
ATOM     11  C   UNL d   1     -57.901 -98.767 -45.133  0.00  0.00     0.302 C 
ATOM     12  O   UNL d   1     -57.535 -98.755 -45.852  0.00  0.00    -0.259 OA
BRANCH  11  13
ATOM     13  O   UNL d   1     -58.695 -98.773 -45.051  0.00  0.00    -0.271 OA
BRANCH  13  14
ATOM     14  C   UNL d   1     -59.159 -98.966 -45.689  0.00  0.00     0.126 C 
ATOM     15  C   UNL d   1     -59.957 -98.758 -45.687  0.00  0.00     0.029 C 
ENDBRANCH  13  14
ENDBRANCH  11  13
ENDBRANCH   1  11
TORSDOF 3
ENDMDL
MODEL 2
REMARK VINA RESULT:      27.2      2.279      2.832
REMARK  3 active torsions:
REMARK  status: ('A' for Active; 'I' for Inactive)
REMARK    1  A    between atoms: C_6  and  C_1 
REMARK    2  A    between atoms: O_9  and  C_6 
REMARK    3  A    between atoms: C_12  and  O_9 
ROOT
ATOM      1  C   UNL d   1     -55.151 -99.785 -44.261  0.00  0.00     0.089 A 
ATOM      2  C   UNL d   1     -54.919 -99.727 -43.464  0.00  0.00     0.138 A 
ATOM      3  S   UNL d   1     -54.723-100.464 -43.209  0.00  0.00    -0.066 SA
ATOM      4  C   UNL d   1     -55.088-100.563 -44.467  0.00  0.00     0.013 A 
ATOM      5  C   UNL d   1     -54.829-100.981 -43.837  0.00  0.00     0.031 A 
ATOM      6  N   UNL d   1     -54.889 -99.040 -42.996  0.00  0.00    -0.141 N 
ATOM      7  C   UNL d   1     -55.248-100.935 -45.196  0.00  0.00     0.001 A 
ATOM      8  C   UNL d   1     -54.712-101.805 -43.894  0.00  0.00     0.006 A 
ATOM      9  C   UNL d   1     -55.129-101.760 -45.247  0.00  0.00     0.000 A 
ATOM     10  C   UNL d   1     -54.873-102.161 -44.616  0.00  0.00     0.001 A 
ENDROOT
BRANCH   1  11
ATOM     11  C   UNL d   1     -55.400 -99.135 -44.733  0.00  0.00     0.302 C 
ATOM     12  O   UNL d   1     -54.946 -98.916 -45.363  0.00  0.00    -0.259 OA
BRANCH  11  13
ATOM     13  O   UNL d   1     -56.077 -98.761 -44.535  0.00  0.00    -0.271 OA
BRANCH  13  14
ATOM     14  C   UNL d   1     -56.697 -98.761 -45.059  0.00  0.00     0.126 C 
ATOM     15  C   UNL d   1     -57.470 -98.771 -44.771  0.00  0.00     0.029 C 
ENDBRANCH  13  14
ENDBRANCH  11  13
ENDBRANCH   1  11
TORSDOF 3
ENDMDL
MODEL 3
REMARK VINA RESULT:      28.3      7.069      8.057
REMARK  3 active torsions:
REMARK  status: ('A' for Active; 'I' for Inactive)
REMARK    1  A    between atoms: C_6  and  C_1 
REMARK    2  A    between atoms: O_9  and  C_6 
REMARK    3  A    between atoms: C_12  and  O_9 
ROOT
ATOM      1  C   UNL d   1     -55.015-101.811 -37.870  0.00  0.00     0.089 A 
ATOM      2  C   UNL d   1     -54.838-101.006 -37.983  0.00  0.00     0.138 A 
ATOM      3  S   UNL d   1     -54.721-100.675 -37.260  0.00  0.00    -0.066 SA
ATOM      4  C   UNL d   1     -55.001-101.946 -37.074  0.00  0.00     0.013 A 
ATOM      5  C   UNL d   1     -54.824-101.263 -36.697  0.00  0.00     0.031 A 
ATOM      6  N   UNL d   1     -54.785-100.598 -38.705  0.00  0.00    -0.141 N 
ATOM      7  C   UNL d   1     -55.138-102.650 -36.650  0.00  0.00     0.001 A 
ATOM      8  C   UNL d   1     -54.772-101.240 -35.865  0.00  0.00     0.006 A 
ATOM      9  C   UNL d   1     -55.085-102.622 -35.817  0.00  0.00     0.000 A 
ATOM     10  C   UNL d   1     -54.909-101.940 -35.458  0.00  0.00     0.001 A 
ENDROOT
BRANCH   1  11
ATOM     11  C   UNL d   1     -55.174-102.355 -38.492  0.00  0.00     0.302 C 
ATOM     12  O   UNL d   1     -55.780-102.880 -38.403  0.00  0.00    -0.259 OA
BRANCH  11  13
ATOM     13  O   UNL d   1     -54.716-102.327 -39.145  0.00  0.00    -0.271 OA
BRANCH  13  14
ATOM     14  C   UNL d   1     -54.901-102.801 -39.779  0.00  0.00     0.126 C 
ATOM     15  C   UNL d   1     -54.714-102.547 -40.542  0.00  0.00     0.029 C 
ENDBRANCH  13  14
ENDBRANCH  11  13
ENDBRANCH   1  11
TORSDOF 3
ENDMDL
MODEL 4
REMARK VINA RESULT:      29.5      6.465      7.394
REMARK  3 active torsions:
REMARK  status: ('A' for Active; 'I' for Inactive)
REMARK    1  A    between atoms: C_6  and  C_1 
REMARK    2  A    between atoms: O_9  and  C_6 
REMARK    3  A    between atoms: C_12  and  O_9 
ROOT
ATOM      1  C   UNL d   1     -55.947-102.747 -38.780  0.00  0.00     0.089 A 
ATOM      2  C   UNL d   1     -56.774-102.825 -38.826  0.00  0.00     0.138 A 
ATOM      3  S   UNL d   1     -56.977-102.855 -39.603  0.00  0.00    -0.066 SA
ATOM      4  C   UNL d   1     -55.670-102.732 -39.539  0.00  0.00     0.013 A 
ATOM      5  C   UNL d   1     -56.287-102.797 -40.043  0.00  0.00     0.031 A 
ATOM      6  N   UNL d   1     -57.313-102.866 -38.194  0.00  0.00    -0.141 N 
ATOM      7  C   UNL d   1     -54.889-102.663 -39.819  0.00  0.00     0.001 A 
ATOM      8  C   UNL d   1     -56.161-102.797 -40.868  0.00  0.00     0.006 A 
ATOM      9  C   UNL d   1     -54.768-102.664 -40.645  0.00  0.00     0.000 A 
ATOM     10  C   UNL d   1     -55.387-102.729 -41.133  0.00  0.00     0.001 A 
ENDROOT
BRANCH   1  11
ATOM     11  C   UNL d   1     -55.513-102.695 -38.061  0.00  0.00     0.302 C 
ATOM     12  O   UNL d   1     -54.719-102.840 -38.076  0.00  0.00    -0.259 OA
BRANCH  11  13
ATOM     13  O   UNL d   1     -55.908-102.506 -37.394  0.00  0.00    -0.271 OA
BRANCH  13  14
ATOM     14  C   UNL d   1     -55.541-102.602 -36.675  0.00  0.00     0.126 C 
ATOM     15  C   UNL d   1     -55.337-101.936 -36.233  0.00  0.00     0.029 C 
ENDBRANCH  13  14
ENDBRANCH  11  13
ENDBRANCH   1  11
TORSDOF 3
ENDMDL
