MODEL 1
REMARK VINA RESULT:      12.3      0.000      0.000
REMARK  3 active torsions:
REMARK  status: ('A' for Active; 'I' for Inactive)
REMARK    1  A    between atoms: C_4  and  C_1 
REMARK    2  A    between atoms: N_7  and  C_4 
REMARK    3  A    between atoms: C_9  and  N_7 
ROOT
ATOM      1  C   UNL d   1      45.912 -17.018  44.518  0.00  0.00     0.171 C 
ATOM      2  S   UNL d   1      45.432 -17.535  44.948  0.00  0.00    -0.054 SA
ENDROOT
BRANCH   1   3
ATOM      3  C   UNL d   1      45.779 -16.205  44.560  0.00  0.00     0.191 A 
ATOM      4  N   UNL d   1      45.079 -15.844  44.811  0.00  0.00    -0.223 NA
ATOM      5  C   UNL d   1      45.186 -15.025  44.766  0.00  0.00     0.101 A 
ATOM      6  C   UNL d   1      44.691 -14.388  44.940  0.00  0.00     0.021 A 
ATOM      7  C   UNL d   1      45.954 -14.885  44.487  0.00  0.00     0.101 A 
ATOM      8  C   UNL d   1      44.956 -13.620  44.838  0.00  0.00     0.002 A 
ATOM      9  C   UNL d   1      45.724 -13.479  44.559  0.00  0.00     0.002 A 
ATOM     10  C   UNL d   1      46.219 -14.109  44.385  0.00  0.00     0.021 A 
ATOM     11  N   UNL d   1      46.316 -15.619  44.361  0.00  0.00    -0.223 NA
ENDBRANCH   1   3
BRANCH   1  12
ATOM     12  N   UNL d   1      46.522 -17.310  44.049  0.00  0.00    -0.232 NA
BRANCH  12  13
ATOM     13  C   UNL d   1      46.464 -18.069  43.722  0.00  0.00     0.083 A 
ATOM     14  C   UNL d   1      46.274 -18.161  42.927  0.00  0.00     0.020 A 
ATOM     15  C   UNL d   1      46.215 -18.910  42.595  0.00  0.00     0.013 A 
ATOM     16  C   UNL d   1      46.350 -19.578  43.073  0.00  0.00     0.058 A 
ATOM     17  C   UNL d   1      46.541 -19.488  43.872  0.00  0.00     0.013 A 
ATOM     18 CL   UNL d   1      46.293 -20.330  42.749  0.00  0.00    -0.082 Cl
ATOM     19  C   UNL d   1      46.596 -18.729  44.190  0.00  0.00     0.020 A 
ENDBRANCH  12  13
ENDBRANCH   1  12
TORSDOF 3
ENDMDL
MODEL 2
REMARK VINA RESULT:      12.5      1.871      4.522
REMARK  3 active torsions:
REMARK  status: ('A' for Active; 'I' for Inactive)
REMARK    1  A    between atoms: C_4  and  C_1 
REMARK    2  A    between atoms: N_7  and  C_4 
REMARK    3  A    between atoms: C_9  and  N_7 
ROOT
ATOM      1  C   UNL d   1      45.965 -16.801  44.167  0.00  0.00     0.171 C 
ATOM      2  S   UNL d   1      46.194 -16.702  44.955  0.00  0.00    -0.054 SA
ENDROOT
BRANCH   1   3
ATOM      3  C   UNL d   1      46.111 -17.518  43.785  0.00  0.00     0.191 A 
ATOM      4  N   UNL d   1      46.096 -18.264  44.141  0.00  0.00    -0.223 NA
ATOM      5  C   UNL d   1      46.272 -18.825  43.559  0.00  0.00     0.101 A 
ATOM      6  C   UNL d   1      46.338 -19.648  43.580  0.00  0.00     0.021 A 
ATOM      7  C   UNL d   1      46.394 -18.420  42.846  0.00  0.00     0.101 A 
ATOM      8  C   UNL d   1      46.523 -20.064  42.899  0.00  0.00     0.002 A 
ATOM      9  C   UNL d   1      46.645 -19.659  42.186  0.00  0.00     0.002 A 
ATOM     10  C   UNL d   1      46.581 -18.843  42.160  0.00  0.00     0.021 A 
ATOM     11  N   UNL d   1      46.293 -17.612  42.993  0.00  0.00    -0.223 NA
ENDBRANCH   1   3
BRANCH   1  12
ATOM     12  N   UNL d   1      45.594 -16.189  43.762  0.00  0.00    -0.232 NA
BRANCH  12  13
ATOM     13  C   UNL d   1      45.625 -15.416  44.062  0.00  0.00     0.083 A 
ATOM     14  C   UNL d   1      45.097 -15.181  44.647  0.00  0.00     0.020 A 
ATOM     15  C   UNL d   1      45.120 -14.419  44.950  0.00  0.00     0.013 A 
ATOM     16  C   UNL d   1      45.687 -13.883  44.658  0.00  0.00     0.058 A 
ATOM     17  C   UNL d   1      46.218 -14.117  44.071  0.00  0.00     0.013 A 
ATOM     18 CL   UNL d   1      45.717 -13.118  44.955  0.00  0.00    -0.082 Cl
ATOM     19  C   UNL d   1      46.182 -14.887  43.777  0.00  0.00     0.020 A 
ENDBRANCH  12  13
ENDBRANCH   1  12
TORSDOF 3
ENDMDL
