MODEL 1
REMARK VINA RESULT:       2.5      0.000      0.000
REMARK  4 active torsions:
REMARK  status: ('A' for Active; 'I' for Inactive)
REMARK    1  A    between atoms: N_5  and  C_1 
REMARK    2  A    between atoms: S_2  and  N_5 
REMARK    3  A    between atoms: C_7  and  S_2 
REMARK    4  A    between atoms: N_10  and  C_3 
ROOT
ATOM      1  C   UNL d   1      57.215  -0.249  31.946  0.00  0.00     0.146 A 
ATOM      2  C   UNL d   1      57.656   0.130  32.531  0.00  0.00     0.105 A 
ATOM      3  C   UNL d   1      57.302   0.302  33.254  0.00  0.00     0.208 A 
ATOM      4  C   UNL d   1      56.426  -0.456  32.079  0.00  0.00     0.215 A 
ATOM      5  C   UNL d   1      56.522   0.101  33.394  0.00  0.00     0.043 A 
ATOM      6  C   UNL d   1      56.081  -0.279  32.808  0.00  0.00     0.044 A 
ATOM      7  O   UNL d   1      57.743   0.682  33.839  0.00  0.00    -0.285 OA
ATOM      8  O   UNL d   1      55.998  -0.835  31.484  0.00  0.00    -0.285 OA
ATOM      9  C   UNL d   1      56.167   0.272  34.116  0.00  0.00     0.003 A 
ATOM     10  C   UNL d   1      55.301  -0.480  32.948  0.00  0.00     0.003 A 
ATOM     11  C   UNL d   1      55.380   0.067  34.252  0.00  0.00     0.000 A 
ATOM     12  C   UNL d   1      54.947  -0.309  33.670  0.00  0.00     0.000 A 
ENDROOT
BRANCH   1  13
ATOM     13  N   UNL d   1      57.563  -0.426  31.214  0.00  0.00    -0.154 NA
BRANCH  13  14
ATOM     14  S   UNL d   1      57.436   0.060  30.560  0.00  0.00     0.291 S 
ATOM     15  O   UNL d   1      56.973   0.562  31.024  0.00  0.00    -0.198 OA
ATOM     16  O   UNL d   1      57.306   0.549  29.908  0.00  0.00    -0.198 OA
BRANCH  14  17
ATOM     17  C   UNL d   1      57.899  -0.444  30.100  0.00  0.00     0.135 A 
ATOM     18  S   UNL d   1      58.066  -1.248  30.111  0.00  0.00    -0.073 SA
ATOM     19  C   UNL d   1      58.582  -1.409  29.484  0.00  0.00     0.036 A 
ATOM     20  C   UNL d   1      58.733  -0.705  29.089  0.00  0.00     0.008 A 
ATOM     21  C   UNL d   1      58.310  -0.102  29.468  0.00  0.00     0.020 A 
ENDBRANCH  14  17
ENDBRANCH  13  14
ENDBRANCH   1  13
BRANCH   2  22
ATOM     22  N   UNL d   1      58.442   0.332  32.387  0.00  0.00    -0.201 NA
ATOM     23  C   UNL d   1      58.944   0.430  32.799  0.00  0.00     0.082 A 
ATOM     24  C   UNL d   1      59.927   0.682  32.640  0.00  0.00     0.136 A 
ATOM     25  O   UNL d   1      60.143   0.682  33.504  0.00  0.00    -0.301 OA
ATOM     26  C   UNL d   1      59.661   0.592  33.045  0.00  0.00     0.136 A 
ATOM     27  C   UNL d   1      58.602   0.323  33.186  0.00  0.00     0.082 A 
ENDBRANCH   2  22
TORSDOF 4
ENDMDL
MODEL 2
REMARK VINA RESULT:       4.3      1.580      3.834
REMARK  4 active torsions:
REMARK  status: ('A' for Active; 'I' for Inactive)
REMARK    1  A    between atoms: N_5  and  C_1 
REMARK    2  A    between atoms: S_2  and  N_5 
REMARK    3  A    between atoms: C_7  and  S_2 
REMARK    4  A    between atoms: N_10  and  C_3 
ROOT
ATOM      1  C   UNL d   1      58.270  -1.188  30.368  0.00  0.00     0.146 A 
ATOM      2  C   UNL d   1      58.981  -0.984  30.002  0.00  0.00     0.105 A 
ATOM      3  C   UNL d   1      59.299  -1.486  29.432  0.00  0.00     0.208 A 
ATOM      4  C   UNL d   1      57.878  -1.888  30.167  0.00  0.00     0.215 A 
ATOM      5  C   UNL d   1      58.917  -2.179  29.228  0.00  0.00     0.043 A 
ATOM      6  C   UNL d   1      58.206  -2.383  29.594  0.00  0.00     0.044 A 
ATOM      7  O   UNL d   1      60.010  -1.282  29.066  0.00  0.00    -0.285 OA
ATOM      8  O   UNL d   1      57.168  -2.078  30.541  0.00  0.00    -0.285 OA
ATOM      9  C   UNL d   1      59.234  -2.681  28.659  0.00  0.00     0.003 A 
ATOM     10  C   UNL d   1      57.824  -3.077  29.390  0.00  0.00     0.003 A 
ATOM     11  C   UNL d   1      58.845  -3.380  28.457  0.00  0.00     0.000 A 
ATOM     12  C   UNL d   1      58.141  -3.578  28.821  0.00  0.00     0.000 A 
ENDROOT
BRANCH   1  13
ATOM     13  N   UNL d   1      57.942  -0.689  30.943  0.00  0.00    -0.154 NA
BRANCH  13  14
ATOM     14  S   UNL d   1      57.421  -0.087  30.728  0.00  0.00     0.291 S 
ATOM     15  O   UNL d   1      57.601  -0.215  29.933  0.00  0.00    -0.198 OA
ATOM     16  O   UNL d   1      56.901   0.515  30.508  0.00  0.00    -0.198 OA
BRANCH  14  17
ATOM     17  C   UNL d   1      57.243   0.039  31.523  0.00  0.00     0.135 A 
ATOM     18  S   UNL d   1      57.622   0.413  32.149  0.00  0.00    -0.073 SA
ATOM     19  C   UNL d   1      57.139   0.341  32.818  0.00  0.00     0.036 A 
ATOM     20  C   UNL d   1      56.466  -0.078  32.604  0.00  0.00     0.008 A 
ATOM     21  C   UNL d   1      56.526  -0.268  31.800  0.00  0.00     0.020 A 
ENDBRANCH  14  17
ENDBRANCH  13  14
ENDBRANCH   1  13
BRANCH   2  22
ATOM     22  N   UNL d   1      59.364  -0.284  30.210  0.00  0.00    -0.201 NA
ATOM     23  C   UNL d   1      59.940  -0.180  30.508  0.00  0.00     0.082 A 
ATOM     24  C   UNL d   1      60.432   0.681  30.774  0.00  0.00     0.136 A 
ATOM     25  O   UNL d   1      61.132   0.258  31.127  0.00  0.00    -0.301 OA
ATOM     26  C   UNL d   1      60.538   0.201  30.821  0.00  0.00     0.136 A 
ATOM     27  C   UNL d   1      59.987  -0.706  30.523  0.00  0.00     0.082 A 
ENDBRANCH   2  22
TORSDOF 4
ENDMDL
MODEL 3
REMARK VINA RESULT:       4.5      1.274      3.957
REMARK  4 active torsions:
REMARK  status: ('A' for Active; 'I' for Inactive)
REMARK    1  A    between atoms: N_5  and  C_1 
REMARK    2  A    between atoms: S_2  and  N_5 
REMARK    3  A    between atoms: C_7  and  S_2 
REMARK    4  A    between atoms: N_10  and  C_3 
ROOT
ATOM      1  C   UNL d   1      58.103   0.327  31.797  0.00  0.00     0.146 A 
ATOM      2  C   UNL d   1      58.281   0.306  30.991  0.00  0.00     0.105 A 
ATOM      3  C   UNL d   1      59.065   0.383  30.750  0.00  0.00     0.208 A 
ATOM      4  C   UNL d   1      58.702   0.424  32.359  0.00  0.00     0.215 A 
ATOM      5  C   UNL d   1      59.662   0.479  31.300  0.00  0.00     0.043 A 
ATOM      6  C   UNL d   1      59.484   0.500  32.106  0.00  0.00     0.044 A 
ATOM      7  O   UNL d   1      59.243   0.362  29.945  0.00  0.00    -0.285 OA
ATOM      8  O   UNL d   1      58.508   0.442  33.161  0.00  0.00    -0.285 OA
ATOM      9  C   UNL d   1      60.445   0.556  31.060  0.00  0.00     0.003 A 
ATOM     10  C   UNL d   1      60.081   0.596  32.656  0.00  0.00     0.003 A 
ATOM     11  C   UNL d   1      61.044   0.653  31.619  0.00  0.00     0.000 A 
ATOM     12  C   UNL d   1      60.864   0.673  32.415  0.00  0.00     0.000 A 
ENDROOT
BRANCH   1  13
ATOM     13  N   UNL d   1      57.317   0.250  32.050  0.00  0.00    -0.154 NA
BRANCH  13  14
ATOM     14  S   UNL d   1      57.009  -0.491  32.242  0.00  0.00     0.291 S 
ATOM     15  O   UNL d   1      57.666  -0.853  31.899  0.00  0.00    -0.198 OA
ATOM     16  O   UNL d   1      56.704  -1.233  32.432  0.00  0.00    -0.198 OA
BRANCH  14  17
ATOM     17  C   UNL d   1      56.353  -0.125  32.583  0.00  0.00     0.135 A 
ATOM     18  S   UNL d   1      56.036   0.633  32.561  0.00  0.00    -0.073 SA
ATOM     19  C   UNL d   1      55.357   0.638  33.035  0.00  0.00     0.036 A 
ATOM     20  C   UNL d   1      55.257  -0.115  33.348  0.00  0.00     0.008 A 
ATOM     21  C   UNL d   1      55.874  -0.592  33.070  0.00  0.00     0.020 A 
ENDBRANCH  14  17
ENDBRANCH  13  14
ENDBRANCH   1  13
BRANCH   2  22
ATOM     22  N   UNL d   1      57.676   0.209  30.440  0.00  0.00    -0.201 NA
ATOM     23  C   UNL d   1      57.637   0.386  29.809  0.00  0.00     0.082 A 
ATOM     24  C   UNL d   1      56.895   0.275  29.107  0.00  0.00     0.136 A 
ATOM     25  O   UNL d   1      57.351   0.677  28.456  0.00  0.00    -0.301 OA
ATOM     26  C   UNL d   1      57.345   0.477  29.096  0.00  0.00     0.136 A 
ATOM     27  C   UNL d   1      58.123   0.583  29.869  0.00  0.00     0.082 A 
ENDBRANCH   2  22
TORSDOF 4
ENDMDL
