MODEL 1
REMARK VINA RESULT:      -4.1      0.000      0.000
REMARK  6 active torsions:
REMARK  status: ('A' for Active; 'I' for Inactive)
REMARK    1  A    between atoms: C_12  and  C_3 
REMARK    2  A    between atoms: O_11  and  C_5 
REMARK    3  A    between atoms: O_16  and  C_10 
REMARK    4  A    between atoms: C_13  and  O_11 
REMARK    5  A    between atoms: C_15  and  O_16 
REMARK    6  A    between atoms: O_24  and  C_21 
ROOT
ATOM      1  C   UNL d   1      57.607  -0.754  30.799  0.00  0.00     0.201 A 
ATOM      2  C   UNL d   1      58.191  -0.665  30.221  0.00  0.00     0.085 A 
ATOM      3  C   UNL d   1      57.429  -0.139  31.304  0.00  0.00     0.064 A 
ATOM      4  C   UNL d   1      58.591   0.053  30.160  0.00  0.00     0.107 A 
ATOM      5  C   UNL d   1      58.377  -1.277  29.709  0.00  0.00     0.110 A 
ATOM      6  C   UNL d   1      57.830   0.579  31.243  0.00  0.00     0.126 A 
ATOM      7  O   UNL d   1      58.414   0.679  30.670  0.00  0.00    -0.305 OA
ATOM      8  C   UNL d   1      59.175   0.153  29.587  0.00  0.00     0.050 A 
ATOM      9  C   UNL d   1      58.952  -1.182  29.143  0.00  0.00     0.050 A 
ATOM     10  C   UNL d   1      59.352  -0.463  29.082  0.00  0.00     0.107 A 
ATOM     11  O   UNL d   1      57.206  -1.473  30.861  0.00  0.00    -0.286 OA
ENDROOT
BRANCH   3  12
ATOM     12  C   UNL d   1      56.842  -0.235  31.884  0.00  0.00     0.005 A 
ATOM     13  C   UNL d   1      56.839  -0.903  32.363  0.00  0.00     0.002 A 
ATOM     14  C   UNL d   1      56.258  -0.998  32.936  0.00  0.00     0.024 A 
ATOM     15  C   UNL d   1      55.673  -0.417  33.029  0.00  0.00     0.094 A 
ATOM     16  C   UNL d   1      55.674   0.250  32.552  0.00  0.00     0.024 A 
ATOM     17  C   UNL d   1      56.260   0.343  31.976  0.00  0.00     0.002 A 
BRANCH  15  18
ATOM     18  O   UNL d   1      55.087  -0.510  33.605  0.00  0.00    -0.328 OA
ATOM     19  C   UNL d   1      54.644   0.145  33.859  0.00  0.00     0.181 C 
ENDBRANCH  15  18
ENDBRANCH   3  12
BRANCH   5  20
ATOM     20  O   UNL d   1      57.976  -1.995  29.770  0.00  0.00    -0.273 OA
BRANCH  20  21
ATOM     21  C   UNL d   1      58.225  -2.646  29.331  0.00  0.00     0.300 C 
ATOM     22  O   UNL d   1      58.799  -3.155  29.635  0.00  0.00    -0.259 OA
ATOM     23  C   UNL d   1      57.900  -2.788  28.588  0.00  0.00     0.074 C 
ENDBRANCH  20  21
ENDBRANCH   5  20
BRANCH  10  24
ATOM     24  O   UNL d   1      59.940  -0.367  28.503  0.00  0.00    -0.273 OA
BRANCH  24  25
ATOM     25  C   UNL d   1      60.724  -0.253  28.730  0.00  0.00     0.300 C 
ATOM     26  O   UNL d   1      61.130  -0.850  29.127  0.00  0.00    -0.259 OA
ATOM     27  C   UNL d   1      61.112   0.459  28.564  0.00  0.00     0.074 C 
ENDBRANCH  24  25
ENDBRANCH  10  24
TORSDOF 6
ENDMDL
