MODEL 1
REMARK VINA RESULT:      -4.0      0.000      0.000
REMARK  6 active torsions:
REMARK  status: ('A' for Active; 'I' for Inactive)
REMARK    1  A    between atoms: C_10  and  N_2 
REMARK    2  A    between atoms: C_11  and  N_5 
REMARK    3  A    between atoms: C_21  and  C_10 
REMARK    4  A    between atoms: C_12  and  C_11 
REMARK       I    between atoms: N_16  and  C_12 
REMARK    5  A    between atoms: C_15  and  C_17 
REMARK    6  A    between atoms: C_17  and  N_16 
ROOT
ATOM      1  C   UNL d   1     -39.283  15.436  20.127  0.00  0.00     0.102 A 
ATOM      2  N   UNL d   1     -40.036  14.915  19.042  0.00  0.00    -0.225 N 
ATOM      3  C   UNL d   1     -40.444  14.416  19.558  0.00  0.00     0.342 A 
ATOM      4  C   UNL d   1     -39.694  14.933  20.648  0.00  0.00     0.080 A 
ATOM      5  N   UNL d   1     -40.270  14.428  20.363  0.00  0.00    -0.253 N 
ATOM      6  C   UNL d   1     -39.451  15.429  19.325  0.00  0.00     0.276 A 
ATOM      7  S   UNL d   1     -38.740  15.875  20.582  0.00  0.00    -0.081 SA
ATOM      8  C   UNL d   1     -39.402  15.067  21.414  0.00  0.00     0.023 A 
ATOM      9  C   UNL d   1     -38.813  15.649  21.371  0.00  0.00     0.031 A 
ATOM     10  O   UNL d   1     -41.022  13.910  19.270  0.00  0.00    -0.245 OA
ATOM     11  O   UNL d   1     -39.052  15.919  18.809  0.00  0.00    -0.266 OA
ATOM     12  C   UNL d   1     -39.601  14.731  22.137  0.00  0.00     0.002 A 
ATOM     13  C   UNL d   1     -38.427  15.891  22.051  0.00  0.00     0.006 A 
ATOM     14  C   UNL d   1     -39.213  14.974  22.825  0.00  0.00     0.000 A 
ATOM     15  C   UNL d   1     -38.624  15.557  22.782  0.00  0.00     0.001 A 
ENDROOT
BRANCH   5  16
ATOM     16  C   UNL d   1     -40.677  13.931  20.878  0.00  0.00     0.147 C 
BRANCH  16  17
ATOM     17  C   UNL d   1     -41.505  13.969  20.924  0.00  0.00     0.297 C 
ATOM     18  N   UNL d   1     -41.925  13.324  21.203  0.00  0.00    -0.205 NA
ATOM     19  O   UNL d   1     -41.898  14.651  20.690  0.00  0.00    -0.264 OA
BRANCH  18  20
ATOM     20  C   UNL d   1     -42.754  13.366  21.248  0.00  0.00     0.103 C 
BRANCH  20  21
ATOM     21  C   UNL d   1     -43.169  12.790  21.686  0.00  0.00     0.030 A 
ATOM     22  C   UNL d   1     -43.984  12.859  21.797  0.00  0.00     0.059 A 
ATOM     23 CL   UNL d   1     -44.395  13.502  21.473  0.00  0.00    -0.082 Cl
ATOM     24  C   UNL d   1     -44.383  12.282  22.232  0.00  0.00     0.011 A 
ATOM     25  C   UNL d   1     -43.972  11.642  22.554  0.00  0.00     0.001 A 
ATOM     26  C   UNL d   1     -43.158  11.581  22.438  0.00  0.00     0.000 A 
ATOM     27  C   UNL d   1     -42.750  12.150  22.006  0.00  0.00     0.002 A 
ENDBRANCH  20  21
ENDBRANCH  18  20
ENDBRANCH  16  17
ENDBRANCH   5  16
BRANCH   2  28
ATOM     28  C   UNL d   1     -40.212  14.903  18.231  0.00  0.00     0.087 C 
BRANCH  28  29
ATOM     29  C   UNL d   1     -39.724  14.487  17.712  0.00  0.00     0.018 A 
ATOM     30  C   UNL d   1     -39.422  14.879  17.053  0.00  0.00     0.002 A 
ATOM     31  C   UNL d   1     -38.929  14.460  16.527  0.00  0.00     0.000 A 
ATOM     32  C   UNL d   1     -38.750  13.663  16.673  0.00  0.00     0.000 A 
ATOM     33  C   UNL d   1     -39.061  13.294  17.333  0.00  0.00     0.000 A 
ATOM     34  C   UNL d   1     -39.549  13.705  17.855  0.00  0.00     0.002 A 
ENDBRANCH  28  29
ENDBRANCH   2  28
TORSDOF 6
ENDMDL
MODEL 2
REMARK VINA RESULT:      -3.1      1.209      3.271
REMARK  6 active torsions:
REMARK  status: ('A' for Active; 'I' for Inactive)
REMARK    1  A    between atoms: C_10  and  N_2 
REMARK    2  A    between atoms: C_11  and  N_5 
REMARK    3  A    between atoms: C_21  and  C_10 
REMARK    4  A    between atoms: C_12  and  C_11 
REMARK       I    between atoms: N_16  and  C_12 
REMARK    5  A    between atoms: C_15  and  C_17 
REMARK    6  A    between atoms: C_17  and  N_16 
ROOT
ATOM      1  C   UNL d   1     -39.301  15.374  19.826  0.00  0.00     0.102 A 
ATOM      2  N   UNL d   1     -39.383  15.150  21.226  0.00  0.00    -0.225 N 
ATOM      3  C   UNL d   1     -40.168  14.909  21.148  0.00  0.00     0.342 A 
ATOM      4  C   UNL d   1     -40.094  15.130  19.747  0.00  0.00     0.080 A 
ATOM      5  N   UNL d   1     -40.521  14.900  20.404  0.00  0.00    -0.253 N 
ATOM      6  C   UNL d   1     -38.943  15.385  20.563  0.00  0.00     0.276 A 
ATOM      7  S   UNL d   1     -39.023  15.571  19.066  0.00  0.00    -0.081 SA
ATOM      8  C   UNL d   1     -40.295  15.179  18.942  0.00  0.00     0.023 A 
ATOM      9  C   UNL d   1     -39.632  15.451  18.523  0.00  0.00     0.031 A 
ATOM     10  O   UNL d   1     -40.595  14.678  21.808  0.00  0.00    -0.245 OA
ATOM     11  O   UNL d   1     -38.168  15.622  20.650  0.00  0.00    -0.266 OA
ATOM     12  C   UNL d   1     -40.994  15.010  18.546  0.00  0.00     0.002 A 
ATOM     13  C   UNL d   1     -39.674  15.553  17.712  0.00  0.00     0.006 A 
ATOM     14  C   UNL d   1     -41.039  15.112  17.727  0.00  0.00     0.000 A 
ATOM     15  C   UNL d   1     -40.376  15.384  17.308  0.00  0.00     0.001 A 
ENDROOT
BRANCH   5  16
ATOM     16  C   UNL d   1     -41.305  14.659  20.324  0.00  0.00     0.147 C 
BRANCH  16  17
ATOM     17  C   UNL d   1     -41.530  13.895  20.556  0.00  0.00     0.297 C 
ATOM     18  N   UNL d   1     -42.237  13.783  20.953  0.00  0.00    -0.205 NA
ATOM     19  O   UNL d   1     -41.043  13.255  20.387  0.00  0.00    -0.264 OA
BRANCH  18  20
ATOM     20  C   UNL d   1     -42.458  13.016  21.183  0.00  0.00     0.103 C 
BRANCH  20  21
ATOM     21  C   UNL d   1     -43.221  12.887  21.495  0.00  0.00     0.030 A 
ATOM     22  C   UNL d   1     -43.362  12.254  22.005  0.00  0.00     0.059 A 
ATOM     23 CL   UNL d   1     -42.743  11.741  22.211  0.00  0.00    -0.082 Cl
ATOM     24  C   UNL d   1     -44.121  12.137  22.307  0.00  0.00     0.011 A 
ATOM     25  C   UNL d   1     -44.736  12.649  22.100  0.00  0.00     0.001 A 
ATOM     26  C   UNL d   1     -44.587  13.280  21.590  0.00  0.00     0.000 A 
ATOM     27  C   UNL d   1     -43.834  13.405  21.284  0.00  0.00     0.002 A 
ENDBRANCH  20  21
ENDBRANCH  18  20
ENDBRANCH  16  17
ENDBRANCH   5  16
BRANCH   2  28
ATOM     28  C   UNL d   1     -39.027  15.159  21.976  0.00  0.00     0.087 C 
BRANCH  28  29
ATOM     29  C   UNL d   1     -38.751  14.455  22.307  0.00  0.00     0.018 A 
ATOM     30  C   UNL d   1     -38.218  13.996  21.878  0.00  0.00     0.002 A 
ATOM     31  C   UNL d   1     -37.940  13.286  22.212  0.00  0.00     0.000 A 
ATOM     32  C   UNL d   1     -38.199  13.052  22.965  0.00  0.00     0.000 A 
ATOM     33  C   UNL d   1     -38.729  13.523  23.374  0.00  0.00     0.000 A 
ATOM     34  C   UNL d   1     -39.007  14.226  23.046  0.00  0.00     0.002 A 
ENDBRANCH  28  29
ENDBRANCH   2  28
TORSDOF 6
ENDMDL
MODEL 3
REMARK VINA RESULT:      -2.5      5.362      8.359
REMARK  6 active torsions:
REMARK  status: ('A' for Active; 'I' for Inactive)
REMARK    1  A    between atoms: C_10  and  N_2 
REMARK    2  A    between atoms: C_11  and  N_5 
REMARK    3  A    between atoms: C_21  and  C_10 
REMARK    4  A    between atoms: C_12  and  C_11 
REMARK       I    between atoms: N_16  and  C_12 
REMARK    5  A    between atoms: C_15  and  C_17 
REMARK    6  A    between atoms: C_17  and  N_16 
ROOT
ATOM      1  C   UNL d   1     -46.053  12.143  22.758  0.00  0.00     0.102 A 
ATOM      2  N   UNL d   1     -47.344  12.063  23.344  0.00  0.00    -0.225 N 
ATOM      3  C   UNL d   1     -47.418  12.884  23.306  0.00  0.00     0.342 A 
ATOM      4  C   UNL d   1     -46.127  12.972  22.720  0.00  0.00     0.080 A 
ATOM      5  N   UNL d   1     -46.805  13.337  22.992  0.00  0.00    -0.253 N 
ATOM      6  C   UNL d   1     -46.658  11.687  23.069  0.00  0.00     0.276 A 
ATOM      7  S   UNL d   1     -45.308  11.945  22.441  0.00  0.00    -0.081 SA
ATOM      8  C   UNL d   1     -45.431  13.274  22.381  0.00  0.00     0.023 A 
ATOM      9  C   UNL d   1     -44.926  12.638  22.210  0.00  0.00     0.031 A 
ATOM     10  O   UNL d   1     -48.099  13.249  23.581  0.00  0.00    -0.245 OA
ATOM     11  O   UNL d   1     -46.593  10.874  23.110  0.00  0.00    -0.266 OA
ATOM     12  C   UNL d   1     -45.200  14.043  22.211  0.00  0.00     0.002 A 
ATOM     13  C   UNL d   1     -44.195  12.776  21.870  0.00  0.00     0.006 A 
ATOM     14  C   UNL d   1     -44.461  14.186  21.868  0.00  0.00     0.000 A 
ATOM     15  C   UNL d   1     -43.957  13.550  21.696  0.00  0.00     0.001 A 
ENDROOT
BRANCH   5  16
ATOM     16  C   UNL d   1     -46.878  14.157  22.954  0.00  0.00     0.147 C 
BRANCH  16  17
ATOM     17  C   UNL d   1     -47.456  14.499  22.468  0.00  0.00     0.297 C 
ATOM     18  N   UNL d   1     -48.129  14.822  22.804  0.00  0.00    -0.205 NA
ATOM     19  O   UNL d   1     -47.352  14.513  21.653  0.00  0.00    -0.264 OA
BRANCH  18  20
ATOM     20  C   UNL d   1     -48.706  15.164  22.313  0.00  0.00     0.103 C 
BRANCH  20  21
ATOM     21  C   UNL d   1     -49.460  15.334  22.627  0.00  0.00     0.030 A 
ATOM     22  C   UNL d   1     -50.140  15.178  22.186  0.00  0.00     0.059 A 
ATOM     23 CL   UNL d   1     -50.076  14.850  21.426  0.00  0.00    -0.082 Cl
ATOM     24  C   UNL d   1     -50.880  15.350  22.507  0.00  0.00     0.011 A 
ATOM     25  C   UNL d   1     -50.942  15.676  23.264  0.00  0.00     0.001 A 
ATOM     26  C   UNL d   1     -50.257  15.829  23.698  0.00  0.00     0.000 A 
ATOM     27  C   UNL d   1     -49.515  15.661  23.387  0.00  0.00     0.002 A 
ENDBRANCH  20  21
ENDBRANCH  18  20
ENDBRANCH  16  17
ENDBRANCH   5  16
BRANCH   2  28
ATOM     28  C   UNL d   1     -47.960  11.607  23.660  0.00  0.00     0.087 C 
BRANCH  28  29
ATOM     29  C   UNL d   1     -48.694  11.591  23.282  0.00  0.00     0.018 A 
ATOM     30  C   UNL d   1     -48.725  11.384  22.485  0.00  0.00     0.002 A 
ATOM     31  C   UNL d   1     -49.465  11.367  22.103  0.00  0.00     0.000 A 
ATOM     32  C   UNL d   1     -50.154  11.557  22.525  0.00  0.00     0.000 A 
ATOM     33  C   UNL d   1     -50.100  11.759  23.316  0.00  0.00     0.000 A 
ATOM     34  C   UNL d   1     -49.370  11.777  23.697  0.00  0.00     0.002 A 
ENDBRANCH  28  29
ENDBRANCH   2  28
TORSDOF 6
ENDMDL
MODEL 4
REMARK VINA RESULT:      -1.6      3.171      6.992
REMARK  6 active torsions:
REMARK  status: ('A' for Active; 'I' for Inactive)
REMARK    1  A    between atoms: C_10  and  N_2 
REMARK    2  A    between atoms: C_11  and  N_5 
REMARK    3  A    between atoms: C_21  and  C_10 
REMARK    4  A    between atoms: C_12  and  C_11 
REMARK       I    between atoms: N_16  and  C_12 
REMARK    5  A    between atoms: C_15  and  C_17 
REMARK    6  A    between atoms: C_17  and  N_16 
ROOT
ATOM      1  C   UNL d   1     -45.888  11.956  23.232  0.00  0.00     0.102 A 
ATOM      2  N   UNL d   1     -46.417  13.167  22.711  0.00  0.00    -0.225 N 
ATOM      3  C   UNL d   1     -45.756  13.252  22.224  0.00  0.00     0.342 A 
ATOM      4  C   UNL d   1     -45.221  12.042  22.741  0.00  0.00     0.080 A 
ATOM      5  N   UNL d   1     -45.158  12.686  22.242  0.00  0.00    -0.253 N 
ATOM      6  C   UNL d   1     -46.486  12.515  23.220  0.00  0.00     0.276 A 
ATOM      7  S   UNL d   1     -45.788  11.253  23.668  0.00  0.00    -0.081 SA
ATOM      8  C   UNL d   1     -44.719  11.394  22.878  0.00  0.00     0.023 A 
ATOM      9  C   UNL d   1     -45.071  10.908  23.451  0.00  0.00     0.031 A 
ATOM     10  O   UNL d   1     -45.694  13.899  21.724  0.00  0.00    -0.245 OA
ATOM     11  O   UNL d   1     -47.143  12.438  23.698  0.00  0.00    -0.266 OA
ATOM     12  C   UNL d   1     -43.992  11.192  22.553  0.00  0.00     0.002 A 
ATOM     13  C   UNL d   1     -44.694  10.224  23.695  0.00  0.00     0.006 A 
ATOM     14  C   UNL d   1     -43.609  10.501  22.798  0.00  0.00     0.000 A 
ATOM     15  C   UNL d   1     -43.961  10.015  23.371  0.00  0.00     0.001 A 
ENDROOT
BRANCH   5  16
ATOM     16  C   UNL d   1     -44.498  12.770  21.756  0.00  0.00     0.147 C 
BRANCH  16  17
ATOM     17  C   UNL d   1     -44.047  13.466  21.786  0.00  0.00     0.297 C 
ATOM     18  N   UNL d   1     -43.308  13.486  21.435  0.00  0.00    -0.205 NA
ATOM     19  O   UNL d   1     -44.344  14.130  22.168  0.00  0.00    -0.264 OA
BRANCH  18  20
ATOM     20  C   UNL d   1     -42.860  14.185  21.467  0.00  0.00     0.103 C 
BRANCH  20  21
ATOM     21  C   UNL d   1     -42.109  14.207  21.104  0.00  0.00     0.030 A 
ATOM     22  C   UNL d   1     -41.751  14.929  20.930  0.00  0.00     0.059 A 
ATOM     23 CL   UNL d   1     -42.136  15.640  21.116  0.00  0.00    -0.082 Cl
ATOM     24  C   UNL d   1     -41.008  14.937  20.570  0.00  0.00     0.011 A 
ATOM     25  C   UNL d   1     -40.626  14.228  20.385  0.00  0.00     0.001 A 
ATOM     26  C   UNL d   1     -40.991  13.510  20.563  0.00  0.00     0.000 A 
ATOM     27  C   UNL d   1     -41.731  13.491  20.922  0.00  0.00     0.002 A 
ENDBRANCH  20  21
ENDBRANCH  18  20
ENDBRANCH  16  17
ENDBRANCH   5  16
BRANCH   2  28
ATOM     28  C   UNL d   1     -47.019  13.737  22.693  0.00  0.00     0.087 C 
BRANCH  28  29
ATOM     29  C   UNL d   1     -47.714  13.587  22.274  0.00  0.00     0.018 A 
ATOM     30  C   UNL d   1     -48.395  14.005  22.474  0.00  0.00     0.002 A 
ATOM     31  C   UNL d   1     -49.097  13.855  22.052  0.00  0.00     0.000 A 
ATOM     32  C   UNL d   1     -49.102  13.292  21.442  0.00  0.00     0.000 A 
ATOM     33  C   UNL d   1     -48.414  12.888  21.260  0.00  0.00     0.000 A 
ATOM     34  C   UNL d   1     -47.717  13.034  21.676  0.00  0.00     0.002 A 
ENDBRANCH  28  29
ENDBRANCH   2  28
TORSDOF 6
ENDMDL
MODEL 5
REMARK VINA RESULT:      -1.4      4.370      8.173
REMARK  6 active torsions:
REMARK  status: ('A' for Active; 'I' for Inactive)
REMARK    1  A    between atoms: C_10  and  N_2 
REMARK    2  A    between atoms: C_11  and  N_5 
REMARK    3  A    between atoms: C_21  and  C_10 
REMARK    4  A    between atoms: C_12  and  C_11 
REMARK       I    between atoms: N_16  and  C_12 
REMARK    5  A    between atoms: C_15  and  C_17 
REMARK    6  A    between atoms: C_17  and  N_16 
ROOT
ATOM      1  C   UNL d   1     -47.964  12.360  22.809  0.00  0.00     0.102 A 
ATOM      2  N   UNL d   1     -48.134  13.697  22.364  0.00  0.00    -0.225 N 
ATOM      3  C   UNL d   1     -47.324  13.833  22.444  0.00  0.00     0.342 A 
ATOM      4  C   UNL d   1     -47.146  12.496  22.891  0.00  0.00     0.080 A 
ATOM      5  N   UNL d   1     -46.832  13.228  22.709  0.00  0.00    -0.253 N 
ATOM      6  C   UNL d   1     -48.459  12.957  22.546  0.00  0.00     0.276 A 
ATOM      7  S   UNL d   1     -48.108  11.570  23.034  0.00  0.00    -0.081 SA
ATOM      8  C   UNL d   1     -46.797  11.794  23.164  0.00  0.00     0.023 A 
ATOM      9  C   UNL d   1     -47.393  11.223  23.252  0.00  0.00     0.031 A 
ATOM     10  O   UNL d   1     -47.010  14.568  22.262  0.00  0.00    -0.245 OA
ATOM     11  O   UNL d   1     -49.261  12.831  22.464  0.00  0.00    -0.266 OA
ATOM     12  C   UNL d   1     -46.017  11.608  23.341  0.00  0.00     0.002 A 
ATOM     13  C   UNL d   1     -47.205  10.472  23.516  0.00  0.00     0.006 A 
ATOM     14  C   UNL d   1     -45.824  10.850  23.608  0.00  0.00     0.000 A 
ATOM     15  C   UNL d   1     -46.420  10.279  23.696  0.00  0.00     0.001 A 
ENDROOT
BRANCH   5  16
ATOM     16  C   UNL d   1     -46.023  13.362  22.790  0.00  0.00     0.147 C 
BRANCH  16  17
ATOM     17  C   UNL d   1     -45.557  13.508  22.119  0.00  0.00     0.297 C 
ATOM     18  N   UNL d   1     -44.745  13.416  22.160  0.00  0.00    -0.205 NA
ATOM     19  O   UNL d   1     -45.913  13.744  21.417  0.00  0.00    -0.264 OA
BRANCH  18  20
ATOM     20  C   UNL d   1     -44.283  13.563  21.486  0.00  0.00     0.103 C 
BRANCH  20  21
ATOM     21  C   UNL d   1     -43.484  13.322  21.478  0.00  0.00     0.030 A 
ATOM     22  C   UNL d   1     -42.884  13.872  21.343  0.00  0.00     0.059 A 
ATOM     23 CL   UNL d   1     -43.073  14.669  21.214  0.00  0.00    -0.082 Cl
ATOM     24  C   UNL d   1     -42.098  13.621  21.337  0.00  0.00     0.011 A 
ATOM     25  C   UNL d   1     -41.912  12.826  21.465  0.00  0.00     0.001 A 
ATOM     26  C   UNL d   1     -42.518  12.283  21.599  0.00  0.00     0.000 A 
ATOM     27  C   UNL d   1     -43.305  12.522  21.607  0.00  0.00     0.002 A 
ENDBRANCH  20  21
ENDBRANCH  18  20
ENDBRANCH  16  17
ENDBRANCH   5  16
BRANCH   2  28
ATOM     28  C   UNL d   1     -48.630  14.307  22.097  0.00  0.00     0.087 C 
BRANCH  28  29
ATOM     29  C   UNL d   1     -49.119  14.701  22.631  0.00  0.00     0.018 A 
ATOM     30  C   UNL d   1     -49.720  14.279  23.005  0.00  0.00     0.002 A 
ATOM     31  C   UNL d   1     -50.215  14.676  23.545  0.00  0.00     0.000 A 
ATOM     32  C   UNL d   1     -50.097  15.483  23.698  0.00  0.00     0.000 A 
ATOM     33  C   UNL d   1     -49.494  15.883  23.316  0.00  0.00     0.000 A 
ATOM     34  C   UNL d   1     -49.003  15.493  22.782  0.00  0.00     0.002 A 
ENDBRANCH  28  29
ENDBRANCH   2  28
TORSDOF 6
ENDMDL
MODEL 6
REMARK VINA RESULT:      -1.0      2.157      4.574
REMARK  6 active torsions:
REMARK  status: ('A' for Active; 'I' for Inactive)
REMARK    1  A    between atoms: C_10  and  N_2 
REMARK    2  A    between atoms: C_11  and  N_5 
REMARK    3  A    between atoms: C_21  and  C_10 
REMARK    4  A    between atoms: C_12  and  C_11 
REMARK       I    between atoms: N_16  and  C_12 
REMARK    5  A    between atoms: C_15  and  C_17 
REMARK    6  A    between atoms: C_17  and  N_16 
ROOT
ATOM      1  C   UNL d   1     -40.170  14.794  17.736  0.00  0.00     0.102 A 
ATOM      2  N   UNL d   1     -40.508  15.435  18.957  0.00  0.00    -0.225 N 
ATOM      3  C   UNL d   1     -39.757  15.270  19.258  0.00  0.00     0.342 A 
ATOM      4  C   UNL d   1     -39.412  14.628  18.039  0.00  0.00     0.080 A 
ATOM      5  N   UNL d   1     -39.210  14.865  18.794  0.00  0.00    -0.253 N 
ATOM      6  C   UNL d   1     -40.719  15.197  18.191  0.00  0.00     0.276 A 
ATOM      7  S   UNL d   1     -40.203  14.484  16.963  0.00  0.00    -0.081 SA
ATOM      8  C   UNL d   1     -38.988  14.219  17.453  0.00  0.00     0.023 A 
ATOM      9  C   UNL d   1     -39.478  14.132  16.789  0.00  0.00     0.031 A 
ATOM     10  O   UNL d   1     -39.556  15.509  20.016  0.00  0.00    -0.245 OA
ATOM     11  O   UNL d   1     -41.463  15.364  17.902  0.00  0.00    -0.266 OA
ATOM     12  C   UNL d   1     -38.223  13.920  17.445  0.00  0.00     0.002 A 
ATOM     13  C   UNL d   1     -39.200  13.746  16.123  0.00  0.00     0.006 A 
ATOM     14  C   UNL d   1     -37.940  13.530  16.774  0.00  0.00     0.000 A 
ATOM     15  C   UNL d   1     -38.429  13.442  16.110  0.00  0.00     0.001 A 
ENDROOT
BRANCH   5  16
ATOM     16  C   UNL d   1     -38.460  14.700  19.093  0.00  0.00     0.147 C 
BRANCH  16  17
ATOM     17  C   UNL d   1     -38.380  14.250  19.786  0.00  0.00     0.297 C 
ATOM     18  N   UNL d   1     -38.075  14.597  20.462  0.00  0.00    -0.205 NA
ATOM     19  O   UNL d   1     -38.606  13.461  19.791  0.00  0.00    -0.264 OA
BRANCH  18  20
ATOM     20  C   UNL d   1     -37.997  14.144  21.154  0.00  0.00     0.103 C 
BRANCH  20  21
ATOM     21  C   UNL d   1     -38.115  14.506  21.896  0.00  0.00     0.030 A 
ATOM     22  C   UNL d   1     -38.402  14.068  22.533  0.00  0.00     0.059 A 
ATOM     23 CL   UNL d   1     -38.574  13.262  22.439  0.00  0.00    -0.082 Cl
ATOM     24  C   UNL d   1     -38.514  14.438  23.262  0.00  0.00     0.011 A 
ATOM     25  C   UNL d   1     -38.342  15.241  23.354  0.00  0.00     0.001 A 
ATOM     26  C   UNL d   1     -38.056  15.672  22.712  0.00  0.00     0.000 A 
ATOM     27  C   UNL d   1     -37.940  15.313  21.981  0.00  0.00     0.002 A 
ENDBRANCH  20  21
ENDBRANCH  18  20
ENDBRANCH  16  17
ENDBRANCH   5  16
BRANCH   2  28
ATOM     28  C   UNL d   1     -41.059  15.843  19.424  0.00  0.00     0.087 C 
BRANCH  28  29
ATOM     29  C   UNL d   1     -41.367  15.486  20.101  0.00  0.00     0.018 A 
ATOM     30  C   UNL d   1     -41.592  14.694  20.065  0.00  0.00     0.002 A 
ATOM     31  C   UNL d   1     -41.904  14.333  20.748  0.00  0.00     0.000 A 
ATOM     32  C   UNL d   1     -41.983  14.771  21.449  0.00  0.00     0.000 A 
ATOM     33  C   UNL d   1     -41.753  15.556  21.462  0.00  0.00     0.000 A 
ATOM     34  C   UNL d   1     -41.445  15.917  20.789  0.00  0.00     0.002 A 
ENDBRANCH  28  29
ENDBRANCH   2  28
TORSDOF 6
ENDMDL
