MODEL 1
REMARK VINA RESULT:      54.1      0.000      0.000
REMARK  5 active torsions:
REMARK  status: ('A' for Active; 'I' for Inactive)
REMARK       I    between atoms: N_3  and  C_1 
REMARK    1  A    between atoms: C_4  and  C_1 
REMARK    2  A    between atoms: N_2  and  C_4 
REMARK       I    between atoms: C_5  and  N_2 
REMARK    3  A    between atoms: C_18  and  C_4 
REMARK    4  A    between atoms: C_9  and  C_5 
REMARK    5  A    between atoms: C_7  and  N_6 
ROOT
ATOM      1  C   UNL d   1      15.253  13.247  -0.931  0.00  0.00     0.283 C 
ATOM      2  N   UNL d   1      15.209  14.067  -1.013  0.00  0.00    -0.268 N 
ATOM      3  N   UNL d   1      15.122  15.699  -1.176  0.00  0.00    -0.286 N 
ATOM      4  O   UNL d   1      15.947  12.891  -0.661  0.00  0.00    -0.265 OA
ATOM      5  C   UNL d   1      14.514  14.416  -1.283  0.00  0.00     0.102 A 
ATOM      6  C   UNL d   1      15.865  14.530  -0.822  0.00  0.00     0.102 A 
ATOM      7  C   UNL d   1      15.819  15.352  -0.905  0.00  0.00     0.101 A 
ATOM      8  C   UNL d   1      14.476  15.234  -1.363  0.00  0.00     0.101 A 
ENDROOT
BRANCH   1   9
ATOM      9  C   UNL d   1      14.597  12.784  -1.122  0.00  0.00     0.141 C 
BRANCH   9  10
ATOM     10  N   UNL d   1      14.202  12.901  -1.843  0.00  0.00    -0.203 NA
ATOM     11  C   UNL d   1      14.349  12.398  -2.476  0.00  0.00     0.279 C 
ATOM     12  O   UNL d   1      14.883  11.781  -2.398  0.00  0.00    -0.265 OA
BRANCH  11  13
ATOM     13  C   UNL d   1      13.954  12.517  -3.191  0.00  0.00     0.058 A 
ATOM     14  C   UNL d   1      13.605  11.885  -3.582  0.00  0.00     0.005 A 
ATOM     15  C   UNL d   1      13.213  11.996  -4.292  0.00  0.00     0.000 A 
ATOM     16  C   UNL d   1      13.167  12.752  -4.619  0.00  0.00     0.000 A 
ATOM     17  C   UNL d   1      13.514  13.399  -4.237  0.00  0.00     0.000 A 
ATOM     18  C   UNL d   1      12.773  12.878  -5.338  0.00  0.00     0.000 C 
ATOM     19  C   UNL d   1      13.909  13.273  -3.518  0.00  0.00     0.005 A 
ENDBRANCH  11  13
ENDBRANCH   9  10
BRANCH   9  20
ATOM     20  C   UNL d   1      14.329  12.207  -0.605  0.00  0.00     0.022 C 
ATOM     21  C   UNL d   1      13.549  11.924  -0.679  0.00  0.00     0.002 C 
ATOM     22  C   UNL d   1      14.821  11.905  -0.017  0.00  0.00     0.002 C 
ENDBRANCH   9  20
ENDBRANCH   1   9
BRANCH   3  23
ATOM     23  C   UNL d   1      15.080  16.521  -1.257  0.00  0.00     0.148 A 
ATOM     24  N   UNL d   1      14.955  16.995  -0.593  0.00  0.00    -0.227 NA
ATOM     25  C   UNL d   1      14.914  17.813  -0.679  0.00  0.00     0.101 A 
ATOM     26  C   UNL d   1      14.995  18.161  -1.418  0.00  0.00     0.021 A 
ATOM     27  C   UNL d   1      15.120  17.678  -2.086  0.00  0.00     0.005 A 
ATOM     28  C   UNL d   1      15.162  16.861  -2.003  0.00  0.00     0.037 A 
ENDBRANCH   3  23
TORSDOF 5
ENDMDL
