MODEL 1
REMARK VINA RESULT:      -3.1      0.000      0.000
REMARK  7 active torsions:
REMARK  status: ('A' for Active; 'I' for Inactive)
REMARK    1  A    between atoms: C_3  and  S_1 
REMARK    2  A    between atoms: N_4  and  S_1 
REMARK    3  A    between atoms: C_2  and  C_9 
REMARK       I    between atoms: N_5  and  C_2 
REMARK    4  A    between atoms: C_15  and  N_4 
REMARK    5  A    between atoms: C_10  and  N_5 
REMARK    6  A    between atoms: C_18  and  C_15 
REMARK    7  A    between atoms: O_22  and  C_16 
ROOT
ATOM      1  C   UNL d   1      32.662  18.515 -23.148  0.00  0.00     0.058 A 
ATOM      2  C   UNL d   1      32.340  19.208 -23.466  0.00  0.00     0.005 A 
ATOM      3  C   UNL d   1      33.113  18.547 -22.461  0.00  0.00     0.005 A 
ATOM      4  C   UNL d   1      32.920  19.962 -22.411  0.00  0.00     0.020 A 
ATOM      5  C   UNL d   1      32.470  19.928 -23.097  0.00  0.00     0.002 A 
ATOM      6  C   UNL d   1      33.241  19.274 -22.093  0.00  0.00     0.002 A 
ENDROOT
BRANCH   4   7
ATOM      7  C   UNL d   1      33.054  20.686 -22.035  0.00  0.00     0.112 C 
BRANCH   7   8
ATOM      8  N   UNL d   1      32.529  20.949 -21.451  0.00  0.00    -0.157 NA
BRANCH   8   9
ATOM      9  S   UNL d   1      32.701  21.637 -21.017  0.00  0.00     0.285 S 
ATOM     10  O   UNL d   1      33.091  21.960 -21.676  0.00  0.00    -0.198 OA
ATOM     11  O   UNL d   1      32.310  21.315 -20.352  0.00  0.00    -0.198 OA
BRANCH   9  12
ATOM     12  C   UNL d   1      32.871  22.321 -20.582  0.00  0.00     0.107 A 
ATOM     13  C   UNL d   1      32.847  22.305 -19.761  0.00  0.00     0.037 A 
ATOM     14  C   UNL d   1      33.015  22.985 -19.323  0.00  0.00     0.095 A 
ATOM     15  C   UNL d   1      33.208  23.682 -19.707  0.00  0.00     0.024 A 
ATOM     16  C   UNL d   1      33.234  23.702 -20.535  0.00  0.00     0.003 A 
ATOM     17  C   UNL d   1      33.065  23.022 -20.972  0.00  0.00     0.013 A 
BRANCH  14  18
ATOM     18  O   UNL d   1      32.990  22.967 -18.500  0.00  0.00    -0.328 OA
ATOM     19  C   UNL d   1      32.781  23.633 -18.080  0.00  0.00     0.181 C 
ENDBRANCH  14  18
ENDBRANCH   9  12
ENDBRANCH   8   9
ENDBRANCH   7   8
ENDBRANCH   4   7
BRANCH   1  20
ATOM     20  C   UNL d   1      32.535  17.783 -23.516  0.00  0.00     0.279 C 
ATOM     21  N   UNL d   1      31.843  17.656 -23.935  0.00  0.00    -0.208 NA
ATOM     22  O   UNL d   1      33.099  17.186 -23.463  0.00  0.00    -0.265 OA
BRANCH  21  23
ATOM     23  C   UNL d   1      31.715  16.928 -24.301  0.00  0.00     0.086 A 
ATOM     24  C   UNL d   1      30.973  16.564 -24.236  0.00  0.00     0.031 A 
ATOM     25  C   UNL d   1      30.849  15.836 -24.603  0.00  0.00     0.059 A 
ATOM     26 CL   UNL d   1      30.115  15.474 -24.540  0.00  0.00    -0.082 Cl
ATOM     27  C   UNL d   1      31.456  15.475 -25.031  0.00  0.00     0.011 A 
ATOM     28  C   UNL d   1      32.192  15.846 -25.091  0.00  0.00     0.002 A 
ATOM     29  C   UNL d   1      32.315  16.573 -24.723  0.00  0.00     0.019 A 
ENDBRANCH  21  23
ENDBRANCH   1  20
TORSDOF 7
ENDMDL
MODEL 2
REMARK VINA RESULT:      -2.9      2.324      6.698
REMARK  7 active torsions:
REMARK  status: ('A' for Active; 'I' for Inactive)
REMARK    1  A    between atoms: C_3  and  S_1 
REMARK    2  A    between atoms: N_4  and  S_1 
REMARK    3  A    between atoms: C_2  and  C_9 
REMARK       I    between atoms: N_5  and  C_2 
REMARK    4  A    between atoms: C_15  and  N_4 
REMARK    5  A    between atoms: C_10  and  N_5 
REMARK    6  A    between atoms: C_18  and  C_15 
REMARK    7  A    between atoms: O_22  and  C_16 
ROOT
ATOM      1  C   UNL d   1      33.014  20.673 -21.968  0.00  0.00     0.058 A 
ATOM      2  C   UNL d   1      33.182  19.994 -21.525  0.00  0.00     0.005 A 
ATOM      3  C   UNL d   1      32.869  20.613 -22.775  0.00  0.00     0.005 A 
ATOM      4  C   UNL d   1      33.058  19.199 -22.696  0.00  0.00     0.020 A 
ATOM      5  C   UNL d   1      33.204  19.260 -21.890  0.00  0.00     0.002 A 
ATOM      6  C   UNL d   1      32.891  19.873 -23.138  0.00  0.00     0.002 A 
ENDROOT
BRANCH   4   7
ATOM      7  C   UNL d   1      33.079  18.461 -23.069  0.00  0.00     0.112 C 
BRANCH   7   8
ATOM      8  N   UNL d   1      32.697  18.357 -23.795  0.00  0.00    -0.157 NA
BRANCH   8   9
ATOM      9  S   UNL d   1      32.339  17.628 -23.976  0.00  0.00     0.285 S 
ATOM     10  O   UNL d   1      31.848  18.003 -24.532  0.00  0.00    -0.198 OA
ATOM     11  O   UNL d   1      32.831  17.248 -23.418  0.00  0.00    -0.198 OA
BRANCH   9  12
ATOM     12  C   UNL d   1      31.984  16.902 -24.153  0.00  0.00     0.107 A 
ATOM     13  C   UNL d   1      31.343  16.637 -23.714  0.00  0.00     0.037 A 
ATOM     14  C   UNL d   1      30.985  15.912 -23.888  0.00  0.00     0.095 A 
ATOM     15  C   UNL d   1      31.270  15.453 -24.501  0.00  0.00     0.024 A 
ATOM     16  C   UNL d   1      31.918  15.715 -24.947  0.00  0.00     0.003 A 
ATOM     17  C   UNL d   1      32.274  16.440 -24.773  0.00  0.00     0.013 A 
BRANCH  14  18
ATOM     18  O   UNL d   1      30.342  15.649 -23.446  0.00  0.00    -0.328 OA
ATOM     19  C   UNL d   1      29.584  15.737 -23.732  0.00  0.00     0.181 C 
ENDBRANCH  14  18
ENDBRANCH   9  12
ENDBRANCH   8   9
ENDBRANCH   7   8
ENDBRANCH   4   7
BRANCH   1  20
ATOM     20  C   UNL d   1      32.991  21.418 -21.605  0.00  0.00     0.279 C 
ATOM     21  N   UNL d   1      32.717  21.485 -20.836  0.00  0.00    -0.208 NA
ATOM     22  O   UNL d   1      33.241  22.087 -22.012  0.00  0.00    -0.265 OA
BRANCH  21  23
ATOM     23  C   UNL d   1      32.694  22.225 -20.474  0.00  0.00     0.086 A 
ATOM     24  C   UNL d   1      32.980  22.310 -19.701  0.00  0.00     0.031 A 
ATOM     25  C   UNL d   1      32.956  23.052 -19.341  0.00  0.00     0.059 A 
ATOM     26 CL   UNL d   1      33.239  23.137 -18.575  0.00  0.00    -0.082 Cl
ATOM     27  C   UNL d   1      32.649  23.702 -19.748  0.00  0.00     0.011 A 
ATOM     28  C   UNL d   1      32.366  23.608 -20.518  0.00  0.00     0.002 A 
ATOM     29  C   UNL d   1      32.392  22.866 -20.876  0.00  0.00     0.019 A 
ENDBRANCH  21  23
ENDBRANCH   1  20
TORSDOF 7
ENDMDL
MODEL 3
REMARK VINA RESULT:      -0.8      1.217      1.709
REMARK  7 active torsions:
REMARK  status: ('A' for Active; 'I' for Inactive)
REMARK    1  A    between atoms: C_3  and  S_1 
REMARK    2  A    between atoms: N_4  and  S_1 
REMARK    3  A    between atoms: C_2  and  C_9 
REMARK       I    between atoms: N_5  and  C_2 
REMARK    4  A    between atoms: C_15  and  N_4 
REMARK    5  A    between atoms: C_10  and  N_5 
REMARK    6  A    between atoms: C_18  and  C_15 
REMARK    7  A    between atoms: O_22  and  C_16 
ROOT
ATOM      1  C   UNL d   1      31.776  17.919 -23.758  0.00  0.00     0.058 A 
ATOM      2  C   UNL d   1      32.256  17.843 -23.088  0.00  0.00     0.005 A 
ATOM      3  C   UNL d   1      31.760  18.627 -24.176  0.00  0.00     0.005 A 
ATOM      4  C   UNL d   1      32.700  19.182 -23.255  0.00  0.00     0.020 A 
ATOM      5  C   UNL d   1      32.716  18.474 -22.839  0.00  0.00     0.002 A 
ATOM      6  C   UNL d   1      32.224  19.259 -23.921  0.00  0.00     0.002 A 
ENDROOT
BRANCH   4   7
ATOM      7  C   UNL d   1      33.162  19.822 -23.007  0.00  0.00     0.112 C 
BRANCH   7   8
ATOM      8  N   UNL d   1      33.171  20.037 -22.208  0.00  0.00    -0.157 NA
BRANCH   8   9
ATOM      9  S   UNL d   1      33.067  20.833 -21.991  0.00  0.00     0.285 S 
ATOM     10  O   UNL d   1      33.093  21.059 -22.790  0.00  0.00    -0.198 OA
ATOM     11  O   UNL d   1      33.039  20.609 -21.186  0.00  0.00    -0.198 OA
BRANCH   9  12
ATOM     12  C   UNL d   1      32.963  21.623 -21.771  0.00  0.00     0.107 A 
ATOM     13  C   UNL d   1      32.584  21.811 -21.066  0.00  0.00     0.037 A 
ATOM     14  C   UNL d   1      32.478  22.599 -20.843  0.00  0.00     0.095 A 
ATOM     15  C   UNL d   1      32.751  23.201 -21.325  0.00  0.00     0.024 A 
ATOM     16  C   UNL d   1      33.134  23.018 -22.037  0.00  0.00     0.003 A 
ATOM     17  C   UNL d   1      33.240  22.229 -22.259  0.00  0.00     0.013 A 
BRANCH  14  18
ATOM     18  O   UNL d   1      32.097  22.784 -20.136  0.00  0.00    -0.328 OA
ATOM     19  C   UNL d   1      32.132  23.541 -19.836  0.00  0.00     0.181 C 
ENDBRANCH  14  18
ENDBRANCH   9  12
ENDBRANCH   8   9
ENDBRANCH   7   8
ENDBRANCH   4   7
BRANCH   1  20
ATOM     20  C   UNL d   1      31.308  17.285 -24.016  0.00  0.00     0.279 C 
ATOM     21  N   UNL d   1      30.492  17.346 -23.987  0.00  0.00    -0.208 NA
ATOM     22  O   UNL d   1      31.660  16.596 -24.299  0.00  0.00    -0.265 OA
BRANCH  21  23
ATOM     23  C   UNL d   1      30.027  16.716 -24.243  0.00  0.00     0.086 A 
ATOM     24  C   UNL d   1      29.284  16.590 -23.896  0.00  0.00     0.031 A 
ATOM     25  C   UNL d   1      28.821  15.959 -24.154  0.00  0.00     0.059 A 
ATOM     26 CL   UNL d   1      28.085  15.833 -23.810  0.00  0.00    -0.082 Cl
ATOM     27  C   UNL d   1      29.093  15.458 -24.751  0.00  0.00     0.011 A 
ATOM     28  C   UNL d   1      29.833  15.591 -25.092  0.00  0.00     0.002 A 
ATOM     29  C   UNL d   1      30.296  16.222 -24.833  0.00  0.00     0.019 A 
ENDBRANCH  21  23
ENDBRANCH   1  20
TORSDOF 7
ENDMDL
