MODEL 1
REMARK VINA RESULT:      -4.8      0.000      0.000
REMARK  4 active torsions:
REMARK  status: ('A' for Active; 'I' for Inactive)
REMARK    1  A    between atoms: C_5  and  C_1 
REMARK    2  A    between atoms: C_4  and  C_2 
REMARK    3  A    between atoms: C_12  and  C_4 
REMARK    4  A    between atoms: C_13  and  C_5 
ROOT
ATOM      1  C   UNL d   1     -41.128-122.477 -52.765  0.00  0.00     0.039 A 
ATOM      2  C   UNL d   1     -41.137-122.660 -51.280  0.00  0.00     0.039 A 
ATOM      3  C   UNL d   1     -41.134-122.998 -52.080  0.00  0.00     0.196 A 
ATOM      4  C   UNL d   1     -41.125-121.616 -52.658  0.00  0.00     0.003 A 
ATOM      5  C   UNL d   1     -41.135-121.800 -51.174  0.00  0.00     0.003 A 
ATOM      6  O   UNL d   1     -41.136-123.817 -52.181  0.00  0.00    -0.287 OA
ATOM      7  C   UNL d   1     -41.128-121.278 -51.867  0.00  0.00     0.000 A 
ATOM      8  C   UNL d   1     -41.126-120.458 -51.766  0.00  0.00     0.000 C 
ENDROOT
BRANCH   1   9
ATOM      9  C   UNL d   1     -41.124-122.792 -53.529  0.00  0.00     0.005 C 
BRANCH   9  10
ATOM     10  C   UNL d   1     -41.610-122.480 -54.112  0.00  0.00     0.019 A 
ATOM     11  C   UNL d   1     -42.427-122.549 -54.040  0.00  0.00     0.099 A 
ATOM     12  N   UNL d   1     -42.916-122.237 -54.623  0.00  0.00    -0.242 NA
ATOM     13  C   UNL d   1     -42.591-121.854 -55.282  0.00  0.00     0.099 A 
ATOM     14  C   UNL d   1     -41.769-121.786 -55.351  0.00  0.00     0.021 A 
ATOM     15  C   UNL d   1     -41.283-122.099 -54.767  0.00  0.00     0.003 A 
ENDBRANCH   9  10
ENDBRANCH   1   9
BRANCH   2  16
ATOM     16  C   UNL d   1     -41.143-123.152 -50.619  0.00  0.00     0.005 C 
BRANCH  16  17
ATOM     17  C   UNL d   1     -41.679-123.025 -50.005  0.00  0.00     0.019 A 
ATOM     18  C   UNL d   1     -41.401-122.832 -49.254  0.00  0.00     0.099 A 
ATOM     19  N   UNL d   1     -41.928-122.704 -48.639  0.00  0.00    -0.242 NA
ATOM     20  C   UNL d   1     -42.746-122.770 -48.772  0.00  0.00     0.099 A 
ATOM     21  C   UNL d   1     -43.019-122.964 -49.526  0.00  0.00     0.021 A 
ATOM     22  C   UNL d   1     -42.483-123.091 -50.138  0.00  0.00     0.003 A 
ENDBRANCH  16  17
ENDBRANCH   2  16
TORSDOF 4
ENDMDL
MODEL 2
REMARK VINA RESULT:      -3.0      1.238      2.187
REMARK  4 active torsions:
REMARK  status: ('A' for Active; 'I' for Inactive)
REMARK    1  A    between atoms: C_5  and  C_1 
REMARK    2  A    between atoms: C_4  and  C_2 
REMARK    3  A    between atoms: C_12  and  C_4 
REMARK    4  A    between atoms: C_13  and  C_5 
ROOT
ATOM      1  C   UNL d   1     -41.747-122.707 -50.939  0.00  0.00     0.039 A 
ATOM      2  C   UNL d   1     -42.381-123.260 -49.701  0.00  0.00     0.039 A 
ATOM      3  C   UNL d   1     -41.739-123.268 -50.285  0.00  0.00     0.196 A 
ATOM      4  C   UNL d   1     -42.394-122.135 -51.015  0.00  0.00     0.003 A 
ATOM      5  C   UNL d   1     -43.028-122.687 -49.777  0.00  0.00     0.003 A 
ATOM      6  O   UNL d   1     -41.123-123.813 -50.213  0.00  0.00    -0.287 OA
ATOM      7  C   UNL d   1     -43.032-122.124 -50.437  0.00  0.00     0.000 A 
ATOM      8  C   UNL d   1     -43.648-121.579 -50.510  0.00  0.00     0.000 C 
ENDROOT
BRANCH   1   9
ATOM      9  C   UNL d   1     -41.138-122.710 -51.498  0.00  0.00     0.005 C 
BRANCH   9  10
ATOM     10  C   UNL d   1     -41.308-122.698 -52.301  0.00  0.00     0.019 A 
ATOM     11  C   UNL d   1     -41.473-121.982 -52.670  0.00  0.00     0.099 A 
ATOM     12  N   UNL d   1     -41.644-121.967 -53.475  0.00  0.00    -0.242 NA
ATOM     13  C   UNL d   1     -41.651-122.669 -53.914  0.00  0.00     0.099 A 
ATOM     14  C   UNL d   1     -41.484-123.388 -53.539  0.00  0.00     0.021 A 
ATOM     15  C   UNL d   1     -41.314-123.399 -52.735  0.00  0.00     0.003 A 
ENDBRANCH   9  10
ENDBRANCH   1   9
BRANCH   2  16
ATOM     16  C   UNL d   1     -42.381-123.793 -49.073  0.00  0.00     0.005 C 
BRANCH  16  17
ATOM     17  C   UNL d   1     -42.273-123.531 -48.299  0.00  0.00     0.019 A 
ATOM     18  C   UNL d   1     -42.927-123.390 -47.820  0.00  0.00     0.099 A 
ATOM     19  N   UNL d   1     -42.826-123.129 -47.049  0.00  0.00    -0.242 NA
ATOM     20  C   UNL d   1     -42.061-123.007 -46.749  0.00  0.00     0.099 A 
ATOM     21  C   UNL d   1     -41.408-123.149 -47.232  0.00  0.00     0.021 A 
ATOM     22  C   UNL d   1     -41.518-123.411 -48.005  0.00  0.00     0.003 A 
ENDBRANCH  16  17
ENDBRANCH   2  16
TORSDOF 4
ENDMDL
