MODEL 1
REMARK VINA RESULT:      82.8      0.000      0.000
REMARK  3 active torsions:
REMARK  status: ('A' for Active; 'I' for Inactive)
REMARK    1  A    between atoms: C_3  and  S_1 
REMARK    2  A    between atoms: N_4  and  S_1 
REMARK       I    between atoms: C_2  and  N_5 
REMARK       I    between atoms: N_6  and  C_2 
REMARK    3  A    between atoms: C_13  and  N_6 
ROOT
ATOM      1  C   UNL d   1     -49.037  28.189  34.508  0.00  0.00     0.339 C 
ATOM      2  N   UNL d   1     -50.617  26.326  34.063  0.00  0.00    -0.226 N 
ATOM      3  N   UNL d   1     -49.563  27.570  34.366  0.00  0.00    -0.254 N 
ATOM      4  N   UNL d   1     -48.908  28.457  35.282  0.00  0.00    -0.257 N 
ATOM      5  C   UNL d   1     -50.500  26.582  34.838  0.00  0.00     0.111 A 
ATOM      6  C   UNL d   1     -50.208  26.693  33.435  0.00  0.00     0.111 A 
ATOM      7  O   UNL d   1     -48.632  28.550  33.875  0.00  0.00    -0.245 OA
ATOM      8  C   UNL d   1     -49.967  27.210  34.991  0.00  0.00     0.104 A 
ATOM      9  C   UNL d   1     -49.683  27.312  33.585  0.00  0.00     0.104 A 
ATOM     10  C   UNL d   1     -49.310  28.098  35.904  0.00  0.00     0.104 C 
ENDROOT
BRANCH   2  11
ATOM     11  S   UNL d   1     -51.137  25.714  33.913  0.00  0.00     0.271 S 
ATOM     12  O   UNL d   1     -51.627  25.982  34.520  0.00  0.00    -0.200 OA
ATOM     13  O   UNL d   1     -50.646  25.446  33.306  0.00  0.00    -0.200 OA
BRANCH  11  14
ATOM     14  C   UNL d   1     -51.661  25.095  33.762  0.00  0.00     0.104 A 
ATOM     15  C   UNL d   1     -51.379  24.366  33.518  0.00  0.00     0.012 A 
ATOM     16  C   UNL d   1     -51.896  23.756  33.370  0.00  0.00     0.001 A 
ATOM     17  C   UNL d   1     -50.567  24.255  33.425  0.00  0.00     0.001 C 
ATOM     18  C   UNL d   1     -52.705  23.870  33.464  0.00  0.00     0.000 A 
ATOM     19  C   UNL d   1     -52.988  24.600  33.709  0.00  0.00     0.001 A 
ATOM     20  C   UNL d   1     -53.230  23.251  33.314  0.00  0.00     0.000 C 
ATOM     21  C   UNL d   1     -52.469  25.212  33.858  0.00  0.00     0.012 A 
ATOM     22  C   UNL d   1     -52.749  25.951  34.104  0.00  0.00     0.001 C 
ENDBRANCH  11  14
ENDBRANCH   2  11
BRANCH   4  23
ATOM     23  C   UNL d   1     -48.378  29.081  35.422  0.00  0.00     0.068 A 
ATOM     24  C   UNL d   1     -47.723  28.985  35.919  0.00  0.00     0.018 A 
ATOM     25  C   UNL d   1     -47.208  29.606  36.050  0.00  0.00     0.002 A 
ATOM     26  C   UNL d   1     -47.341  30.338  35.681  0.00  0.00     0.000 A 
ATOM     27  C   UNL d   1     -47.997  30.438  35.182  0.00  0.00     0.002 A 
ATOM     28  C   UNL d   1     -46.817  30.959  35.818  0.00  0.00     0.000 C 
ATOM     29  C   UNL d   1     -48.510  29.804  35.058  0.00  0.00     0.018 A 
ENDBRANCH   4  23
TORSDOF 3
ENDMDL
