MODEL 1
REMARK VINA RESULT:      22.6      0.000      0.000
REMARK  5 active torsions:
REMARK  status: ('A' for Active; 'I' for Inactive)
REMARK    1  A    between atoms: C_4  and  C_1 
REMARK       I    between atoms: N_2  and  C_3 
REMARK    2  A    between atoms: C_6  and  N_2 
REMARK    3  A    between atoms: C_3  and  C_5 
REMARK    4  A    between atoms: C_5  and  C_7 
REMARK    5  A    between atoms: C_7  and  C_14 
ROOT
ATOM      1  C   UNL d   1      13.436  12.576  -1.587  0.00  0.00     0.062 C 
ENDROOT
BRANCH   1   2
ATOM      2  C   UNL d   1      13.480  12.393  -2.377  0.00  0.00     0.279 C 
ATOM      3  N   UNL d   1      13.044  12.834  -2.915  0.00  0.00    -0.208 NA
ATOM      4  O   UNL d   1      13.949  11.783  -2.629  0.00  0.00    -0.265 OA
BRANCH   3   5
ATOM      5  C   UNL d   1      13.086  12.650  -3.725  0.00  0.00     0.085 A 
ATOM      6  C   UNL d   1      13.430  13.201  -4.244  0.00  0.00     0.018 A 
ATOM      7  C   UNL d   1      13.722  13.915  -3.954  0.00  0.00     0.002 C 
ATOM      8  C   UNL d   1      13.477  13.028  -5.053  0.00  0.00     0.002 A 
ATOM      9  C   UNL d   1      13.186  12.319  -5.340  0.00  0.00     0.000 A 
ATOM     10  C   UNL d   1      12.848  11.779  -4.823  0.00  0.00     0.002 A 
ATOM     11  C   UNL d   1      12.795  11.940  -4.013  0.00  0.00     0.019 A 
ENDBRANCH   3   5
ENDBRANCH   1   2
BRANCH   1  12
ATOM     12  C   UNL d   1      13.991  12.256  -1.057  0.00  0.00     0.005 C 
BRANCH  12  13
ATOM     13  C   UNL d   1      14.571  12.733  -0.709  0.00  0.00     0.000 A 
ATOM     14  C   UNL d   1      14.457  13.538  -0.671  0.00  0.00     0.004 A 
ATOM     15  C   UNL d   1      15.049  13.994  -0.319  0.00  0.00     0.071 A 
ATOM     16  C   UNL d   1      15.721  13.680  -0.017  0.00  0.00     0.004 A 
ATOM     17  C   UNL d   1      15.835  12.876  -0.054  0.00  0.00    -0.000 A 
ATOM     18  C   UNL d   1      15.277  12.400  -0.392  0.00  0.00    -0.000 A 
BRANCH  15  19
ATOM     19  C   UNL d   1      14.913  14.812  -0.291  0.00  0.00     0.419 C 
ATOM     20  F   UNL d   1      14.801  15.650  -0.273  0.00  0.00    -0.166 F 
ATOM     21  F   UNL d   1      14.169  14.703  -0.015  0.00  0.00    -0.166 F 
ATOM     22  F   UNL d   1      15.699  14.944  -0.584  0.00  0.00    -0.166 F 
ENDBRANCH  15  19
ENDBRANCH  12  13
ENDBRANCH   1  12
TORSDOF 5
ENDMDL
MODEL 2
REMARK VINA RESULT:      23.4      1.011      1.607
REMARK  5 active torsions:
REMARK  status: ('A' for Active; 'I' for Inactive)
REMARK    1  A    between atoms: C_4  and  C_1 
REMARK       I    between atoms: N_2  and  C_3 
REMARK    2  A    between atoms: C_6  and  N_2 
REMARK    3  A    between atoms: C_3  and  C_5 
REMARK    4  A    between atoms: C_5  and  C_7 
REMARK    5  A    between atoms: C_7  and  C_14 
ROOT
ATOM      1  C   UNL d   1      12.921  12.326  -2.678  0.00  0.00     0.062 C 
ENDROOT
BRANCH   1   2
ATOM      2  C   UNL d   1      13.158  12.378  -3.452  0.00  0.00     0.279 C 
ATOM      3  N   UNL d   1      12.958  13.043  -3.890  0.00  0.00    -0.208 NA
ATOM      4  O   UNL d   1      13.589  11.779  -3.788  0.00  0.00    -0.265 OA
BRANCH   3   5
ATOM      5  C   UNL d   1      13.200  13.100  -4.684  0.00  0.00     0.085 A 
ATOM      6  C   UNL d   1      13.317  13.853  -5.014  0.00  0.00     0.018 A 
ATOM      7  C   UNL d   1      13.194  14.528  -4.557  0.00  0.00     0.002 C 
ATOM      8  C   UNL d   1      13.557  13.922  -5.804  0.00  0.00     0.002 A 
ATOM      9  C   UNL d   1      13.679  13.251  -6.257  0.00  0.00     0.000 A 
ATOM     10  C   UNL d   1      13.562  12.510  -5.925  0.00  0.00     0.002 A 
ATOM     11  C   UNL d   1      13.322  12.428  -5.137  0.00  0.00     0.019 A 
ENDBRANCH   3   5
ENDBRANCH   1   2
BRANCH   1  12
ATOM     12  C   UNL d   1      13.285  11.779  -2.169  0.00  0.00     0.005 C 
BRANCH  12  13
ATOM     13  C   UNL d   1      13.610  12.020  -1.447  0.00  0.00     0.000 A 
ATOM     14  C   UNL d   1      14.297  12.457  -1.444  0.00  0.00     0.004 A 
ATOM     15  C   UNL d   1      14.604  12.687  -0.712  0.00  0.00     0.071 A 
ATOM     16  C   UNL d   1      14.256  12.499  -0.014  0.00  0.00     0.004 A 
ATOM     17  C   UNL d   1      13.571  12.062  -0.018  0.00  0.00    -0.000 A 
ATOM     18  C   UNL d   1      13.244  11.821  -0.715  0.00  0.00    -0.000 A 
BRANCH  15  19
ATOM     19  C   UNL d   1      15.303  13.131  -0.732  0.00  0.00     0.419 C 
ATOM     20  F   UNL d   1      16.006  13.603  -0.732  0.00  0.00    -0.166 F 
ATOM     21  F   UNL d   1      15.631  12.636  -1.269  0.00  0.00    -0.166 F 
ATOM     22  F   UNL d   1      14.970  13.665  -0.162  0.00  0.00    -0.166 F 
ENDBRANCH  15  19
ENDBRANCH  12  13
ENDBRANCH   1  12
TORSDOF 5
ENDMDL
