MODEL 1
REMARK VINA RESULT:      67.6      0.000      0.000
REMARK  5 active torsions:
REMARK  status: ('A' for Active; 'I' for Inactive)
REMARK    1  A    between atoms: N_6  and  S_1 
REMARK    2  A    between atoms: C_11  and  S_1 
REMARK    3  A    between atoms: N_2  and  C_16 
REMARK       I    between atoms: C_9  and  N_8 
REMARK    4  A    between atoms: C_10  and  C_9 
REMARK    5  A    between atoms: C_16  and  C_10 
ROOT
ATOM      1  N   UNL d   1     -55.363-100.766 -42.430  0.00  0.00    -0.226 N 
ATOM      2  N   UNL d   1     -55.613 -99.926 -43.823  0.00  0.00    -0.269 N 
ATOM      3  C   UNL d   1     -55.748 -99.507 -44.521  0.00  0.00     0.267 C 
ATOM      4  C   UNL d   1     -56.121-100.710 -42.746  0.00  0.00     0.111 A 
ATOM      5  C   UNL d   1     -54.714-100.398 -42.811  0.00  0.00     0.111 A 
ATOM      6  C   UNL d   1     -56.246-100.289 -43.445  0.00  0.00     0.103 A 
ATOM      7  C   UNL d   1     -54.840 -99.977 -43.509  0.00  0.00     0.103 A 
ATOM      8  O   UNL d   1     -55.116 -99.140 -44.905  0.00  0.00    -0.267 OA
ENDROOT
BRANCH   3   9
ATOM      9  C   UNL d   1     -56.507 -99.455 -44.830  0.00  0.00     0.082 C 
BRANCH   9  10
ATOM     10  C   UNL d   1     -56.936 -98.757 -44.738  0.00  0.00     0.105 C 
BRANCH  10  11
ATOM     11  N   UNL d   1     -57.760 -98.769 -44.824  0.00  0.00    -0.228 N 
ATOM     12  N   UNL d   1     -58.181 -98.759 -45.533  0.00  0.00    -0.165 NA
ATOM     13  C   UNL d   1     -58.988 -98.778 -45.361  0.00  0.00     0.103 A 
ATOM     14  C   UNL d   1     -59.610 -98.775 -45.911  0.00  0.00     0.022 C 
ATOM     15  C   UNL d   1     -59.072 -98.801 -44.541  0.00  0.00     0.037 A 
ATOM     16  C   UNL d   1     -58.313 -98.796 -44.206  0.00  0.00     0.084 A 
ATOM     17  C   UNL d   1     -59.782 -98.824 -44.126  0.00  0.00     0.003 C 
ATOM     18  C   UNL d   1     -58.147 -98.814 -43.397  0.00  0.00     0.021 C 
ENDBRANCH  10  11
ENDBRANCH   9  10
ENDBRANCH   3   9
BRANCH   1  19
ATOM     19  S   UNL d   1     -55.237-101.189 -41.728  0.00  0.00     0.271 S 
ATOM     20  O   UNL d   1     -55.664-101.833 -42.040  0.00  0.00    -0.200 OA
ATOM     21  O   UNL d   1     -54.814-100.552 -41.420  0.00  0.00    -0.200 OA
BRANCH  19  22
ATOM     22  C   UNL d   1     -55.110-101.615 -41.022  0.00  0.00     0.104 A 
ATOM     23  C   UNL d   1     -55.198-102.429 -41.020  0.00  0.00     0.014 A 
ATOM     24  C   UNL d   1     -55.073-102.854 -40.324  0.00  0.00     0.012 A 
ATOM     25  C   UNL d   1     -54.859-102.457 -39.627  0.00  0.00     0.058 A 
ATOM     26  C   UNL d   1     -54.769-101.628 -39.630  0.00  0.00     0.012 A 
ATOM     27 CL   UNL d   1     -54.733-102.878 -38.929  0.00  0.00    -0.082 Cl
ATOM     28  C   UNL d   1     -54.896-101.203 -40.335  0.00  0.00     0.014 A 
ENDBRANCH  19  22
ENDBRANCH   1  19
TORSDOF 5
ENDMDL
