MODEL 1
REMARK VINA RESULT:      48.0      0.000      0.000
REMARK  4 active torsions:
REMARK  status: ('A' for Active; 'I' for Inactive)
REMARK    1  A    between atoms: S_7  and  C_3 
REMARK    2  A    between atoms: C_12  and  S_7 
REMARK    3  A    between atoms: C_9  and  C_12 
REMARK    4  A    between atoms: C_11  and  C_9 
ROOT
ATOM      1  S   UNL d   1     -51.501  25.753  33.647  0.00  0.00    -0.043 SA
ENDROOT
BRANCH   1   2
ATOM      2  C   UNL d   1     -52.017  25.112  33.640  0.00  0.00     0.220 A 
ATOM      3  N   UNL d   1     -52.817  25.228  33.478  0.00  0.00    -0.149 N 
ATOM      4  C   UNL d   1     -53.346  24.589  33.468  0.00  0.00     0.303 A 
ATOM      5  N   UNL d   1     -53.102  25.986  33.324  0.00  0.00    -0.037 N 
ATOM      6  C   UNL d   1     -53.050  23.830  33.624  0.00  0.00     0.161 A 
ATOM      7  O   UNL d   1     -54.139  24.704  33.307  0.00  0.00    -0.263 OA
ATOM      8  C   UNL d   1     -53.567  23.189  33.616  0.00  0.00     0.028 C 
ATOM      9  N   UNL d   1     -52.249  23.713  33.786  0.00  0.00    -0.141 NA
ATOM     10  N   UNL d   1     -51.737  24.356  33.793  0.00  0.00    -0.121 NA
ENDBRANCH   1   2
BRANCH   1  11
ATOM     11  C   UNL d   1     -50.823  25.730  34.111  0.00  0.00     0.080 C 
BRANCH  11  12
ATOM     12  C   UNL d   1     -50.102  25.942  33.784  0.00  0.00     0.202 C 
ATOM     13  O   UNL d   1     -49.681  25.423  33.308  0.00  0.00    -0.286 OA
BRANCH  12  14
ATOM     14  C   UNL d   1     -49.795  26.702  33.940  0.00  0.00     0.040 A 
ATOM     15  C   UNL d   1     -49.984  27.328  33.430  0.00  0.00     0.004 A 
ATOM     16  C   UNL d   1     -49.683  28.082  33.578  0.00  0.00     0.011 A 
ATOM     17  C   UNL d   1     -49.193  28.208  34.241  0.00  0.00     0.058 A 
ATOM     18  C   UNL d   1     -49.010  27.585  34.741  0.00  0.00     0.011 A 
ATOM     19 CL   UNL d   1     -48.896  28.954  34.388  0.00  0.00    -0.082 Cl
ATOM     20  C   UNL d   1     -49.309  26.830  34.596  0.00  0.00     0.004 A 
ENDBRANCH  12  14
ENDBRANCH  11  12
ENDBRANCH   1  11
TORSDOF 4
ENDMDL
MODEL 2
REMARK VINA RESULT:      49.2      1.636      2.407
REMARK  4 active torsions:
REMARK  status: ('A' for Active; 'I' for Inactive)
REMARK    1  A    between atoms: S_7  and  C_3 
REMARK    2  A    between atoms: C_12  and  S_7 
REMARK    3  A    between atoms: C_9  and  C_12 
REMARK    4  A    between atoms: C_11  and  C_9 
ROOT
ATOM      1  S   UNL d   1     -49.660  26.777  33.353  0.00  0.00    -0.043 SA
ENDROOT
BRANCH   1   2
ATOM      2  C   UNL d   1     -50.431  26.489  33.344  0.00  0.00     0.220 A 
ATOM      3  N   UNL d   1     -50.567  25.675  33.338  0.00  0.00    -0.149 N 
ATOM      4  C   UNL d   1     -51.339  25.374  33.329  0.00  0.00     0.303 A 
ATOM      5  N   UNL d   1     -49.932  25.150  33.341  0.00  0.00    -0.037 N 
ATOM      6  C   UNL d   1     -51.972  25.911  33.325  0.00  0.00     0.161 A 
ATOM      7  O   UNL d   1     -51.474  24.568  33.323  0.00  0.00    -0.263 OA
ATOM      8  C   UNL d   1     -52.743  25.621  33.316  0.00  0.00     0.028 C 
ATOM      9  N   UNL d   1     -51.836  26.724  33.331  0.00  0.00    -0.141 NA
ATOM     10  N   UNL d   1     -51.066  27.009  33.340  0.00  0.00    -0.121 NA
ENDBRANCH   1   2
BRANCH   1  11
ATOM     11  C   UNL d   1     -49.452  27.378  33.872  0.00  0.00     0.080 C 
BRANCH  11  12
ATOM     12  C   UNL d   1     -48.690  27.408  34.172  0.00  0.00     0.202 C 
ATOM     13  O   UNL d   1     -48.154  26.802  34.034  0.00  0.00    -0.286 OA
BRANCH  12  14
ATOM     14  C   UNL d   1     -48.460  28.068  34.627  0.00  0.00     0.040 A 
ATOM     15  C   UNL d   1     -48.803  28.186  35.373  0.00  0.00     0.004 A 
ATOM     16  C   UNL d   1     -48.581  28.836  35.829  0.00  0.00     0.011 A 
ATOM     17  C   UNL d   1     -48.011  29.371  35.535  0.00  0.00     0.058 A 
ATOM     18  C   UNL d   1     -47.676  29.249  34.797  0.00  0.00     0.011 A 
ATOM     19 CL   UNL d   1     -47.791  30.015  35.985  0.00  0.00    -0.082 Cl
ATOM     20  C   UNL d   1     -47.896  28.599  34.338  0.00  0.00     0.004 A 
ENDBRANCH  12  14
ENDBRANCH  11  12
ENDBRANCH   1  11
TORSDOF 4
ENDMDL
