MODEL 1
REMARK VINA RESULT:      -5.9      0.000      0.000
REMARK  7 active torsions:
REMARK  status: ('A' for Active; 'I' for Inactive)
REMARK    1  A    between atoms: C_2  and  S_1 
REMARK    2  A    between atoms: N_7  and  S_1 
REMARK    3  A    between atoms: O_11  and  C_6 
REMARK    4  A    between atoms: C_12  and  N_7 
REMARK    5  A    between atoms: O_13  and  C_9 
REMARK    6  A    between atoms: C_15  and  C_12 
REMARK    7  A    between atoms: C_14  and  C_15 
ROOT
ATOM      1  S   UNL d   1     -48.711  14.406  22.811  0.00  0.00     0.287 S 
ATOM      2  O   UNL d   1     -48.890  13.822  23.377  0.00  0.00    -0.198 OA
ATOM      3  O   UNL d   1     -48.524  14.981  22.261  0.00  0.00    -0.198 OA
ENDROOT
BRANCH   1   4
ATOM      4  C   UNL d   1     -49.488  14.371  22.526  0.00  0.00     0.129 A 
ATOM      5  C   UNL d   1     -49.675  13.820  21.957  0.00  0.00     0.039 A 
ATOM      6  C   UNL d   1     -50.445  13.779  21.668  0.00  0.00     0.095 A 
ATOM      7  C   UNL d   1     -51.016  14.289  21.953  0.00  0.00     0.026 A 
ATOM      8  C   UNL d   1     -50.830  14.852  22.533  0.00  0.00     0.027 A 
ATOM      9  C   UNL d   1     -50.069  14.891  22.816  0.00  0.00     0.106 A 
BRANCH   6  10
ATOM     10  O   UNL d   1     -50.645  13.219  21.087  0.00  0.00    -0.328 OA
ATOM     11  C   UNL d   1     -50.896  12.485  21.309  0.00  0.00     0.181 C 
ENDBRANCH   6  10
BRANCH   9  12
ATOM     12  O   UNL d   1     -49.889  15.450  23.390  0.00  0.00    -0.327 OA
ATOM     13  C   UNL d   1     -50.488  15.921  23.694  0.00  0.00     0.181 C 
ENDBRANCH   9  12
ENDBRANCH   1   4
BRANCH   1  14
ATOM     14  N   UNL d   1     -47.938  14.433  23.105  0.00  0.00    -0.157 NA
BRANCH  14  15
ATOM     15  C   UNL d   1     -47.339  13.938  22.791  0.00  0.00     0.112 C 
BRANCH  15  16
ATOM     16  C   UNL d   1     -46.603  13.870  23.163  0.00  0.00     0.021 C 
BRANCH  16  17
ATOM     17  C   UNL d   1     -46.024  13.374  22.853  0.00  0.00     0.002 A 
ATOM     18  C   UNL d   1     -45.926  12.614  23.153  0.00  0.00     0.000 A 
ATOM     19  C   UNL d   1     -45.346  12.115  22.843  0.00  0.00     0.000 A 
ATOM     20  C   UNL d   1     -44.858  12.383  22.226  0.00  0.00     0.000 A 
ATOM     21  C   UNL d   1     -44.966  13.158  21.929  0.00  0.00     0.000 A 
ATOM     22  C   UNL d   1     -45.537  13.642  22.236  0.00  0.00     0.000 A 
ENDBRANCH  16  17
ENDBRANCH  15  16
ENDBRANCH  14  15
ENDBRANCH   1  14
TORSDOF 7
ENDMDL
MODEL 2
REMARK VINA RESULT:      -5.8      8.748      9.878
REMARK  7 active torsions:
REMARK  status: ('A' for Active; 'I' for Inactive)
REMARK    1  A    between atoms: C_2  and  S_1 
REMARK    2  A    between atoms: N_7  and  S_1 
REMARK    3  A    between atoms: O_11  and  C_6 
REMARK    4  A    between atoms: C_12  and  N_7 
REMARK    5  A    between atoms: O_13  and  C_9 
REMARK    6  A    between atoms: C_15  and  C_12 
REMARK    7  A    between atoms: C_14  and  C_15 
ROOT
ATOM      1  S   UNL d   1     -40.218  14.660  18.697  0.00  0.00     0.287 S 
ATOM      2  O   UNL d   1     -39.827  15.382  18.830  0.00  0.00    -0.198 OA
ATOM      3  O   UNL d   1     -40.607  13.951  18.577  0.00  0.00    -0.198 OA
ENDROOT
BRANCH   1   4
ATOM      4  C   UNL d   1     -39.931  14.645  17.921  0.00  0.00     0.129 A 
ATOM      5  C   UNL d   1     -39.257  14.219  17.757  0.00  0.00     0.039 A 
ATOM      6  C   UNL d   1     -38.966  14.200  16.987  0.00  0.00     0.095 A 
ATOM      7  C   UNL d   1     -39.352  14.607  16.393  0.00  0.00     0.026 A 
ATOM      8  C   UNL d   1     -40.040  15.042  16.556  0.00  0.00     0.027 A 
ATOM      9  C   UNL d   1     -40.325  15.059  17.316  0.00  0.00     0.106 A 
BRANCH   6  10
ATOM     10  O   UNL d   1     -38.278  13.768  16.809  0.00  0.00    -0.328 OA
ATOM     11  C   UNL d   1     -38.113  13.575  16.043  0.00  0.00     0.181 C 
ENDBRANCH   6  10
BRANCH   9  12
ATOM     12  O   UNL d   1     -41.006  15.492  17.473  0.00  0.00    -0.327 OA
ATOM     13  C   UNL d   1     -41.368  15.906  16.864  0.00  0.00     0.181 C 
ENDBRANCH   9  12
ENDBRANCH   1   4
BRANCH   1  14
ATOM     14  N   UNL d   1     -40.499  14.685  19.475  0.00  0.00    -0.157 NA
BRANCH  14  15
ATOM     15  C   UNL d   1     -39.989  14.538  20.124  0.00  0.00     0.112 C 
BRANCH  15  16
ATOM     16  C   UNL d   1     -40.281  14.505  20.897  0.00  0.00     0.021 C 
BRANCH  16  17
ATOM     17  C   UNL d   1     -39.766  14.442  21.535  0.00  0.00     0.002 A 
ATOM     18  C   UNL d   1     -39.495  15.118  21.918  0.00  0.00     0.000 A 
ATOM     19  C   UNL d   1     -38.978  15.056  22.558  0.00  0.00     0.000 A 
ATOM     20  C   UNL d   1     -38.729  14.307  22.816  0.00  0.00     0.000 A 
ATOM     21  C   UNL d   1     -39.010  13.626  22.420  0.00  0.00     0.000 A 
ATOM     22  C   UNL d   1     -39.517  13.692  21.793  0.00  0.00     0.000 A 
ENDBRANCH  16  17
ENDBRANCH  15  16
ENDBRANCH  14  15
ENDBRANCH   1  14
TORSDOF 7
ENDMDL
MODEL 3
REMARK VINA RESULT:      -5.1      1.645      4.840
REMARK  7 active torsions:
REMARK  status: ('A' for Active; 'I' for Inactive)
REMARK    1  A    between atoms: C_2  and  S_1 
REMARK    2  A    between atoms: N_7  and  S_1 
REMARK    3  A    between atoms: O_11  and  C_6 
REMARK    4  A    between atoms: C_12  and  N_7 
REMARK    5  A    between atoms: O_13  and  C_9 
REMARK    6  A    between atoms: C_15  and  C_12 
REMARK    7  A    between atoms: C_14  and  C_15 
ROOT
ATOM      1  S   UNL d   1     -46.737  13.447  22.925  0.00  0.00     0.287 S 
ATOM      2  O   UNL d   1     -46.367  13.764  23.600  0.00  0.00    -0.198 OA
ATOM      3  O   UNL d   1     -47.111  13.142  22.264  0.00  0.00    -0.198 OA
ENDROOT
BRANCH   1   4
ATOM      4  C   UNL d   1     -46.049  13.025  22.743  0.00  0.00     0.129 A 
ATOM      5  C   UNL d   1     -45.495  13.365  22.253  0.00  0.00     0.039 A 
ATOM      6  C   UNL d   1     -44.807  12.951  22.068  0.00  0.00     0.095 A 
ATOM      7  C   UNL d   1     -44.685  12.204  22.375  0.00  0.00     0.026 A 
ATOM      8  C   UNL d   1     -45.246  11.853  22.874  0.00  0.00     0.027 A 
ATOM      9  C   UNL d   1     -45.924  12.264  23.056  0.00  0.00     0.106 A 
BRANCH   6  10
ATOM     10  O   UNL d   1     -44.236  13.290  21.568  0.00  0.00    -0.328 OA
ATOM     11  C   UNL d   1     -43.535  12.909  21.445  0.00  0.00     0.181 C 
ENDBRANCH   6  10
BRANCH   9  12
ATOM     12  O   UNL d   1     -46.478  11.913  23.551  0.00  0.00    -0.327 OA
ATOM     13  C   UNL d   1     -46.432  11.108  23.698  0.00  0.00     0.181 C 
ENDBRANCH   9  12
ENDBRANCH   1   4
BRANCH   1  14
ATOM     14  N   UNL d   1     -47.420  13.874  23.117  0.00  0.00    -0.157 NA
BRANCH  14  15
ATOM     15  C   UNL d   1     -48.122  13.791  22.666  0.00  0.00     0.112 C 
BRANCH  15  16
ATOM     16  C   UNL d   1     -48.770  14.290  22.791  0.00  0.00     0.021 C 
BRANCH  16  17
ATOM     17  C   UNL d   1     -49.532  14.036  22.615  0.00  0.00     0.002 A 
ATOM     18  C   UNL d   1     -49.949  14.374  21.990  0.00  0.00     0.000 A 
ATOM     19  C   UNL d   1     -50.713  14.119  21.813  0.00  0.00     0.000 A 
ATOM     20  C   UNL d   1     -51.064  13.518  22.267  0.00  0.00     0.000 A 
ATOM     21  C   UNL d   1     -50.632  13.181  22.899  0.00  0.00     0.000 A 
ATOM     22  C   UNL d   1     -49.883  13.435  23.069  0.00  0.00     0.000 A 
ENDBRANCH  16  17
ENDBRANCH  15  16
ENDBRANCH  14  15
ENDBRANCH   1  14
TORSDOF 7
ENDMDL
MODEL 4
REMARK VINA RESULT:      -5.0      1.313      1.905
REMARK  7 active torsions:
REMARK  status: ('A' for Active; 'I' for Inactive)
REMARK    1  A    between atoms: C_2  and  S_1 
REMARK    2  A    between atoms: N_7  and  S_1 
REMARK    3  A    between atoms: O_11  and  C_6 
REMARK    4  A    between atoms: C_12  and  N_7 
REMARK    5  A    between atoms: O_13  and  C_9 
REMARK    6  A    between atoms: C_15  and  C_12 
REMARK    7  A    between atoms: C_14  and  C_15 
ROOT
ATOM      1  S   UNL d   1     -48.729  12.651  22.823  0.00  0.00     0.287 S 
ATOM      2  O   UNL d   1     -48.697  13.111  23.516  0.00  0.00    -0.198 OA
ATOM      3  O   UNL d   1     -48.750  12.195  22.145  0.00  0.00    -0.198 OA
ENDROOT
BRANCH   1   4
ATOM      4  C   UNL d   1     -49.503  12.911  22.684  0.00  0.00     0.129 A 
ATOM      5  C   UNL d   1     -49.619  13.616  22.294  0.00  0.00     0.039 A 
ATOM      6  C   UNL d   1     -50.386  13.881  22.153  0.00  0.00     0.095 A 
ATOM      7  C   UNL d   1     -51.024  13.437  22.403  0.00  0.00     0.026 A 
ATOM      8  C   UNL d   1     -50.911  12.718  22.801  0.00  0.00     0.027 A 
ATOM      9  C   UNL d   1     -50.154  12.459  22.940  0.00  0.00     0.106 A 
BRANCH   6  10
ATOM     10  O   UNL d   1     -50.514  14.599  21.755  0.00  0.00    -0.328 OA
ATOM     11  C   UNL d   1     -50.820  15.229  22.156  0.00  0.00     0.181 C 
ENDBRANCH   6  10
BRANCH   9  12
ATOM     12  O   UNL d   1     -50.046  11.746  23.334  0.00  0.00    -0.327 OA
ATOM     13  C   UNL d   1     -50.687  11.387  23.698  0.00  0.00     0.181 C 
ENDBRANCH   9  12
ENDBRANCH   1   4
BRANCH   1  14
ATOM     14  N   UNL d   1     -47.956  12.398  22.972  0.00  0.00    -0.157 NA
BRANCH  14  15
ATOM     15  C   UNL d   1     -47.297  12.849  22.718  0.00  0.00     0.112 C 
BRANCH  15  16
ATOM     16  C   UNL d   1     -46.575  12.816  23.122  0.00  0.00     0.021 C 
BRANCH  16  17
ATOM     17  C   UNL d   1     -45.865  12.885  22.712  0.00  0.00     0.002 A 
ATOM     18  C   UNL d   1     -45.331  12.259  22.701  0.00  0.00     0.000 A 
ATOM     19  C   UNL d   1     -44.618  12.327  22.290  0.00  0.00     0.000 A 
ATOM     20  C   UNL d   1     -44.440  13.031  21.886  0.00  0.00     0.000 A 
ATOM     21  C   UNL d   1     -44.990  13.661  21.904  0.00  0.00     0.000 A 
ATOM     22  C   UNL d   1     -45.687  13.589  22.308  0.00  0.00     0.000 A 
ENDBRANCH  16  17
ENDBRANCH  15  16
ENDBRANCH  14  15
ENDBRANCH   1  14
TORSDOF 7
ENDMDL
MODEL 5
REMARK VINA RESULT:      -4.9      1.653      2.366
REMARK  7 active torsions:
REMARK  status: ('A' for Active; 'I' for Inactive)
REMARK    1  A    between atoms: C_2  and  S_1 
REMARK    2  A    between atoms: N_7  and  S_1 
REMARK    3  A    between atoms: O_11  and  C_6 
REMARK    4  A    between atoms: C_12  and  N_7 
REMARK    5  A    between atoms: O_13  and  C_9 
REMARK    6  A    between atoms: C_15  and  C_12 
REMARK    7  A    between atoms: C_14  and  C_15 
ROOT
ATOM      1  S   UNL d   1     -47.160  13.137  22.670  0.00  0.00     0.287 S 
ATOM      2  O   UNL d   1     -46.928  13.364  23.436  0.00  0.00    -0.198 OA
ATOM      3  O   UNL d   1     -47.377  12.912  21.914  0.00  0.00    -0.198 OA
ENDROOT
BRANCH   1   4
ATOM      4  C   UNL d   1     -47.946  13.328  22.849  0.00  0.00     0.129 A 
ATOM      5  C   UNL d   1     -48.435  12.747  23.142  0.00  0.00     0.039 A 
ATOM      6  C   UNL d   1     -49.218  12.929  23.323  0.00  0.00     0.095 A 
ATOM      7  C   UNL d   1     -49.498  13.688  23.208  0.00  0.00     0.026 A 
ATOM      8  C   UNL d   1     -49.003  14.283  22.910  0.00  0.00     0.027 A 
ATOM      9  C   UNL d   1     -48.231  14.100  22.732  0.00  0.00     0.106 A 
BRANCH   6  10
ATOM     10  O   UNL d   1     -49.726  12.344  23.623  0.00  0.00    -0.328 OA
ATOM     11  C   UNL d   1     -50.315  12.048  23.157  0.00  0.00     0.181 C 
ENDBRANCH   6  10
BRANCH   9  12
ATOM     12  O   UNL d   1     -47.744  14.692  22.437  0.00  0.00    -0.327 OA
ATOM     13  C   UNL d   1     -48.016  15.465  22.418  0.00  0.00     0.181 C 
ENDBRANCH   9  12
ENDBRANCH   1   4
BRANCH   1  14
ATOM     14  N   UNL d   1     -46.371  12.951  22.502  0.00  0.00    -0.157 NA
BRANCH  14  15
ATOM     15  C   UNL d   1     -46.013  12.263  22.820  0.00  0.00     0.112 C 
BRANCH  15  16
ATOM     16  C   UNL d   1     -45.190  12.178  22.834  0.00  0.00     0.021 C 
BRANCH  16  17
ATOM     17  C   UNL d   1     -44.848  11.470  23.075  0.00  0.00     0.002 A 
ATOM     18  C   UNL d   1     -44.049  11.328  22.939  0.00  0.00     0.000 A 
ATOM     19  C   UNL d   1     -43.705  10.618  23.181  0.00  0.00     0.000 A 
ATOM     20  C   UNL d   1     -44.168  10.044  23.564  0.00  0.00     0.000 A 
ATOM     21  C   UNL d   1     -44.979  10.198  23.697  0.00  0.00     0.000 A 
ATOM     22  C   UNL d   1     -45.312  10.896  23.458  0.00  0.00     0.000 A 
ENDBRANCH  16  17
ENDBRANCH  15  16
ENDBRANCH  14  15
ENDBRANCH   1  14
TORSDOF 7
ENDMDL
MODEL 6
REMARK VINA RESULT:      -4.2      8.871     10.945
REMARK  7 active torsions:
REMARK  status: ('A' for Active; 'I' for Inactive)
REMARK    1  A    between atoms: C_2  and  S_1 
REMARK    2  A    between atoms: N_7  and  S_1 
REMARK    3  A    between atoms: O_11  and  C_6 
REMARK    4  A    between atoms: C_12  and  N_7 
REMARK    5  A    between atoms: O_13  and  C_9 
REMARK    6  A    between atoms: C_15  and  C_12 
REMARK    7  A    between atoms: C_14  and  C_15 
ROOT
ATOM      1  S   UNL d   1     -38.820  13.878  18.304  0.00  0.00     0.287 S 
ATOM      2  O   UNL d   1     -38.057  14.064  18.581  0.00  0.00    -0.198 OA
ATOM      3  O   UNL d   1     -39.572  13.694  18.043  0.00  0.00    -0.198 OA
ENDROOT
BRANCH   1   4
ATOM      4  C   UNL d   1     -38.550  13.929  17.523  0.00  0.00     0.129 A 
ATOM      5  C   UNL d   1     -38.590  14.645  17.137  0.00  0.00     0.039 A 
ATOM      6  C   UNL d   1     -38.324  14.703  16.360  0.00  0.00     0.095 A 
ATOM      7  C   UNL d   1     -38.022  14.046  15.981  0.00  0.00     0.026 A 
ATOM      8  C   UNL d   1     -37.980  13.314  16.370  0.00  0.00     0.027 A 
ATOM      9  C   UNL d   1     -38.243  13.259  17.137  0.00  0.00     0.106 A 
BRANCH   6  10
ATOM     10  O   UNL d   1     -38.361  15.430  15.958  0.00  0.00    -0.328 OA
ATOM     11  C   UNL d   1     -37.941  15.532  15.277  0.00  0.00     0.181 C 
ENDBRANCH   6  10
BRANCH   9  12
ATOM     12  O   UNL d   1     -38.199  12.533  17.518  0.00  0.00    -0.327 OA
ATOM     13  C   UNL d   1     -37.944  11.874  17.101  0.00  0.00     0.181 C 
ENDBRANCH   9  12
ENDBRANCH   1   4
BRANCH   1  14
ATOM     14  N   UNL d   1     -39.077  13.829  19.089  0.00  0.00    -0.157 NA
BRANCH  14  15
ATOM     15  C   UNL d   1     -39.709  14.306  19.367  0.00  0.00     0.112 C 
BRANCH  15  16
ATOM     16  C   UNL d   1     -40.091  14.134  20.080  0.00  0.00     0.021 C 
BRANCH  16  17
ATOM     17  C   UNL d   1     -40.225  14.727  20.634  0.00  0.00     0.002 A 
ATOM     18  C   UNL d   1     -40.813  15.289  20.505  0.00  0.00     0.000 A 
ATOM     19  C   UNL d   1     -40.949  15.885  21.059  0.00  0.00     0.000 A 
ATOM     20  C   UNL d   1     -40.490  15.917  21.752  0.00  0.00     0.000 A 
ATOM     21  C   UNL d   1     -39.895  15.341  21.873  0.00  0.00     0.000 A 
ATOM     22  C   UNL d   1     -39.767  14.759  21.326  0.00  0.00     0.000 A 
ENDBRANCH  16  17
ENDBRANCH  15  16
ENDBRANCH  14  15
ENDBRANCH   1  14
TORSDOF 7
ENDMDL
MODEL 7
REMARK VINA RESULT:      -4.2      1.863      2.952
REMARK  7 active torsions:
REMARK  status: ('A' for Active; 'I' for Inactive)
REMARK    1  A    between atoms: C_2  and  S_1 
REMARK    2  A    between atoms: N_7  and  S_1 
REMARK    3  A    between atoms: O_11  and  C_6 
REMARK    4  A    between atoms: C_12  and  N_7 
REMARK    5  A    between atoms: O_13  and  C_9 
REMARK    6  A    between atoms: C_15  and  C_12 
REMARK    7  A    between atoms: C_14  and  C_15 
ROOT
ATOM      1  S   UNL d   1     -46.484  13.039  22.899  0.00  0.00     0.287 S 
ATOM      2  O   UNL d   1     -46.280  13.348  23.645  0.00  0.00    -0.198 OA
ATOM      3  O   UNL d   1     -46.674  12.730  22.167  0.00  0.00    -0.198 OA
ENDROOT
BRANCH   1   4
ATOM      4  C   UNL d   1     -47.229  13.397  22.952  0.00  0.00     0.129 A 
ATOM      5  C   UNL d   1     -47.312  14.173  22.720  0.00  0.00     0.039 A 
ATOM      6  C   UNL d   1     -48.050  14.535  22.771  0.00  0.00     0.095 A 
ATOM      7  C   UNL d   1     -48.692  14.117  23.052  0.00  0.00     0.026 A 
ATOM      8  C   UNL d   1     -48.613  13.326  23.290  0.00  0.00     0.027 A 
ATOM      9  C   UNL d   1     -47.884  12.971  23.239  0.00  0.00     0.106 A 
BRANCH   6  10
ATOM     10  O   UNL d   1     -48.144  15.327  22.536  0.00  0.00    -0.328 OA
ATOM     11  C   UNL d   1     -48.876  15.600  22.336  0.00  0.00     0.181 C 
ENDBRANCH   6  10
BRANCH   9  12
ATOM     12  O   UNL d   1     -47.809  12.187  23.475  0.00  0.00    -0.327 OA
ATOM     13  C   UNL d   1     -48.479  11.768  23.695  0.00  0.00     0.181 C 
ENDBRANCH   9  12
ENDBRANCH   1   4
BRANCH   1  14
ATOM     14  N   UNL d   1     -45.737  12.686  22.857  0.00  0.00    -0.157 NA
BRANCH  14  15
ATOM     15  C   UNL d   1     -45.170  12.941  22.295  0.00  0.00     0.112 C 
BRANCH  15  16
ATOM     16  C   UNL d   1     -44.660  12.401  21.928  0.00  0.00     0.021 C 
BRANCH  16  17
ATOM     17  C   UNL d   1     -43.896  12.624  21.723  0.00  0.00     0.002 A 
ATOM     18  C   UNL d   1     -43.250  12.198  22.005  0.00  0.00     0.000 A 
ATOM     19  C   UNL d   1     -42.482  12.421  21.800  0.00  0.00     0.000 A 
ATOM     20  C   UNL d   1     -42.361  13.078  21.306  0.00  0.00     0.000 A 
ATOM     21  C   UNL d   1     -43.024  13.504  21.025  0.00  0.00     0.000 A 
ATOM     22  C   UNL d   1     -43.774  13.281  21.229  0.00  0.00     0.000 A 
ENDBRANCH  16  17
ENDBRANCH  15  16
ENDBRANCH  14  15
ENDBRANCH   1  14
TORSDOF 7
ENDMDL
