MODEL 1
REMARK VINA RESULT:      38.3      0.000      0.000
REMARK  6 active torsions:
REMARK  status: ('A' for Active; 'I' for Inactive)
REMARK    1  A    between atoms: C_9  and  C_2 
REMARK    2  A    between atoms: N_12  and  C_6 
REMARK    3  A    between atoms: N_11  and  C_20 
REMARK    4  A    between atoms: C_19  and  N_12 
REMARK    5  A    between atoms: O_21  and  C_16 
REMARK    6  A    between atoms: C_20  and  C_19 
ROOT
ATOM      1  C   UNL d   1      13.412  13.073  -3.578  0.00  0.00     0.060 A 
ATOM      2  C   UNL d   1      13.441  12.332  -3.251  0.00  0.00     0.011 A 
ATOM      3  C   UNL d   1      13.146  11.779  -3.821  0.00  0.00     0.037 A 
ATOM      4  C   UNL d   1      13.098  13.005  -4.363  0.00  0.00     0.116 A 
ATOM      5  S   UNL d   1      12.936  12.196  -4.506  0.00  0.00    -0.067 SA
ATOM      6  C   UNL d   1      13.619  13.811  -3.296  0.00  0.00     0.166 A 
ATOM      7  N   UNL d   1      13.000  13.675  -4.843  0.00  0.00    -0.217 NA
ATOM      8  N   UNL d   1      13.523  14.462  -3.767  0.00  0.00    -0.205 NA
ATOM      9  C   UNL d   1      13.206  14.399  -4.560  0.00  0.00     0.201 A 
ENDROOT
BRANCH   6  10
ATOM     10  N   UNL d   1      13.929  13.907  -2.532  0.00  0.00    -0.224 NA
BRANCH  10  11
ATOM     11  C   UNL d   1      14.021  14.664  -2.222  0.00  0.00     0.120 C 
BRANCH  11  12
ATOM     12  C   UNL d   1      14.757  15.058  -2.281  0.00  0.00     0.101 C 
BRANCH  12  13
ATOM     13  N   UNL d   1      14.987  15.593  -1.685  0.00  0.00    -0.298 N 
ATOM     14  C   UNL d   1      15.025  16.367  -1.855  0.00  0.00     0.107 A 
ATOM     15  C   UNL d   1      15.256  16.892  -1.250  0.00  0.00     0.142 A 
ATOM     16  O   UNL d   1      15.432  16.610  -0.523  0.00  0.00    -0.300 OA
ATOM     17  C   UNL d   1      15.393  15.841  -0.357  0.00  0.00     0.142 A 
ATOM     18  C   UNL d   1      15.170  15.304  -0.930  0.00  0.00     0.107 A 
ENDBRANCH  12  13
ENDBRANCH  11  12
ENDBRANCH  10  11
ENDBRANCH   6  10
BRANCH   2  19
ATOM     19  C   UNL d   1      13.710  12.191  -2.510  0.00  0.00     0.001 A 
ATOM     20  C   UNL d   1      14.508  12.063  -2.362  0.00  0.00     0.002 A 
ATOM     21  C   UNL d   1      14.786  11.918  -1.603  0.00  0.00     0.024 A 
ATOM     22  C   UNL d   1      14.267  11.897  -0.962  0.00  0.00     0.094 A 
ATOM     23  C   UNL d   1      13.448  12.031  -1.125  0.00  0.00     0.024 A 
ATOM     24  C   UNL d   1      13.173  12.175  -1.882  0.00  0.00     0.002 A 
BRANCH  22  25
ATOM     25  O   UNL d   1      14.440  11.780  -0.298  0.00  0.00    -0.328 OA
ATOM     26  C   UNL d   1      15.238  11.839  -0.028  0.00  0.00     0.181 C 
ENDBRANCH  22  25
ENDBRANCH   2  19
TORSDOF 6
ENDMDL
