MODEL 1
REMARK VINA RESULT:      -7.4      0.000      0.000
REMARK  3 active torsions:
REMARK  status: ('A' for Active; 'I' for Inactive)
REMARK    1  A    between atoms: C_8  and  C_2 
REMARK    2  A    between atoms: O_11  and  C_8 
REMARK    3  A    between atoms: C_12  and  O_11 
ROOT
ATOM      1  O   UNL d   1     -47.264  12.479  22.793  0.00  0.00    -0.302 OA
ENDROOT
BRANCH   1   2
ATOM      2  C   UNL d   1     -46.868  12.286  23.496  0.00  0.00     0.161 C 
BRANCH   2   3
ATOM      3  C   UNL d   1     -46.206  11.795  23.473  0.00  0.00     0.188 A 
ATOM      4  N   UNL d   1     -45.429  12.026  23.225  0.00  0.00    -0.224 NA
ATOM      5  C   UNL d   1     -44.948  11.380  23.288  0.00  0.00     0.101 A 
ATOM      6  C   UNL d   1     -45.421  10.729  23.578  0.00  0.00     0.101 A 
ATOM      7  C   UNL d   1     -44.142  11.230  23.137  0.00  0.00     0.021 A 
ATOM      8  C   UNL d   1     -45.075   9.990  23.698  0.00  0.00     0.021 A 
ATOM      9  N   UNL d   1     -46.174  11.001  23.683  0.00  0.00    -0.224 NA
ATOM     10  C   UNL d   1     -44.274   9.878  23.538  0.00  0.00     0.002 A 
ATOM     11  C   UNL d   1     -43.817  10.507  23.258  0.00  0.00     0.002 A 
ENDBRANCH   2   3
ENDBRANCH   1   2
BRANCH   1  12
ATOM     12  C   UNL d   1     -47.921  12.976  22.844  0.00  0.00     0.100 A 
ATOM     13  C   UNL d   1     -47.887  13.761  22.676  0.00  0.00     0.025 A 
ATOM     14  C   UNL d   1     -48.560  14.236  22.735  0.00  0.00     0.002 A 
ATOM     15  C   UNL d   1     -48.501  15.060  22.552  0.00  0.00     0.000 A 
ATOM     16  C   UNL d   1     -49.265  13.925  22.964  0.00  0.00     0.000 A 
ATOM     17  C   UNL d   1     -49.173  15.535  22.612  0.00  0.00     0.000 A 
ATOM     18  C   UNL d   1     -49.929  15.202  22.857  0.00  0.00     0.000 A 
ATOM     19  C   UNL d   1     -49.938  14.400  23.023  0.00  0.00     0.000 A 
ATOM     20  C   UNL d   1     -49.327  13.097  23.148  0.00  0.00     0.002 A 
ATOM     21  C   UNL d   1     -48.655  12.622  23.088  0.00  0.00     0.025 A 
ENDBRANCH   1  12
TORSDOF 3
ENDMDL
MODEL 2
REMARK VINA RESULT:      -7.2      1.398      1.417
REMARK  3 active torsions:
REMARK  status: ('A' for Active; 'I' for Inactive)
REMARK    1  A    between atoms: C_8  and  C_2 
REMARK    2  A    between atoms: O_11  and  C_8 
REMARK    3  A    between atoms: C_12  and  O_11 
ROOT
ATOM      1  O   UNL d   1     -47.921  11.337  23.106  0.00  0.00    -0.302 OA
ENDROOT
BRANCH   1   2
ATOM      2  C   UNL d   1     -47.321  11.690  23.556  0.00  0.00     0.161 C 
BRANCH   2   3
ATOM      3  C   UNL d   1     -46.554  11.388  23.528  0.00  0.00     0.188 A 
ATOM      4  N   UNL d   1     -45.860  11.826  23.315  0.00  0.00    -0.224 NA
ATOM      5  C   UNL d   1     -45.229  11.323  23.358  0.00  0.00     0.101 A 
ATOM      6  C   UNL d   1     -45.521  10.557  23.601  0.00  0.00     0.101 A 
ATOM      7  C   UNL d   1     -44.409  11.395  23.223  0.00  0.00     0.021 A 
ATOM      8  C   UNL d   1     -44.998   9.926  23.693  0.00  0.00     0.021 A 
ATOM      9  N   UNL d   1     -46.320  10.618  23.697  0.00  0.00    -0.224 NA
ATOM     10  C   UNL d   1     -44.192  10.034  23.551  0.00  0.00     0.002 A 
ATOM     11  C   UNL d   1     -43.910  10.774  23.316  0.00  0.00     0.002 A 
ENDBRANCH   2   3
ENDBRANCH   1   2
BRANCH   1  12
ATOM     12  C   UNL d   1     -48.631  11.749  23.018  0.00  0.00     0.100 A 
ATOM     13  C   UNL d   1     -48.848  12.101  22.329  0.00  0.00     0.025 A 
ATOM     14  C   UNL d   1     -49.563  12.508  22.268  0.00  0.00     0.002 A 
ATOM     15  C   UNL d   1     -49.771  12.871  21.532  0.00  0.00     0.000 A 
ATOM     16  C   UNL d   1     -50.062  12.562  22.897  0.00  0.00     0.000 A 
ATOM     17  C   UNL d   1     -50.487  13.277  21.472  0.00  0.00     0.000 A 
ATOM     18  C   UNL d   1     -51.020  13.335  22.145  0.00  0.00     0.000 A 
ATOM     19  C   UNL d   1     -50.777  12.968  22.836  0.00  0.00     0.000 A 
ATOM     20  C   UNL d   1     -49.855  12.198  23.637  0.00  0.00     0.002 A 
ATOM     21  C   UNL d   1     -49.139  11.792  23.698  0.00  0.00     0.025 A 
ENDBRANCH   1  12
TORSDOF 3
ENDMDL
MODEL 3
REMARK VINA RESULT:      -6.5      1.332      2.089
REMARK  3 active torsions:
REMARK  status: ('A' for Active; 'I' for Inactive)
REMARK    1  A    between atoms: C_8  and  C_2 
REMARK    2  A    between atoms: O_11  and  C_8 
REMARK    3  A    between atoms: C_12  and  O_11 
ROOT
ATOM      1  O   UNL d   1     -47.341  13.031  22.353  0.00  0.00    -0.302 OA
ENDROOT
BRANCH   1   2
ATOM      2  C   UNL d   1     -46.706  13.144  22.875  0.00  0.00     0.161 C 
BRANCH   2   3
ATOM      3  C   UNL d   1     -45.939  12.961  22.635  0.00  0.00     0.188 A 
ATOM      4  N   UNL d   1     -45.488  13.387  22.056  0.00  0.00    -0.224 NA
ATOM      5  C   UNL d   1     -44.770  13.023  21.989  0.00  0.00     0.101 A 
ATOM      6  C   UNL d   1     -44.759  12.360  22.529  0.00  0.00     0.101 A 
ATOM      7  C   UNL d   1     -44.085  13.156  21.532  0.00  0.00     0.021 A 
ATOM      8  C   UNL d   1     -44.090  11.882  22.581  0.00  0.00     0.021 A 
ATOM      9  N   UNL d   1     -45.472  12.341  22.907  0.00  0.00    -0.224 NA
ATOM     10  C   UNL d   1     -43.429  12.043  22.113  0.00  0.00     0.002 A 
ATOM     11  C   UNL d   1     -43.440  12.684  21.592  0.00  0.00     0.002 A 
ENDBRANCH   2   3
ENDBRANCH   1   2
BRANCH   1  12
ATOM     12  C   UNL d   1     -48.106  13.098  22.655  0.00  0.00     0.100 A 
ATOM     13  C   UNL d   1     -48.586  12.464  22.770  0.00  0.00     0.025 A 
ATOM     14  C   UNL d   1     -49.347  12.560  23.074  0.00  0.00     0.002 A 
ATOM     15  C   UNL d   1     -49.836  11.877  23.186  0.00  0.00     0.000 A 
ATOM     16  C   UNL d   1     -49.628  13.289  23.263  0.00  0.00     0.000 A 
ATOM     17  C   UNL d   1     -50.597  11.973  23.490  0.00  0.00     0.000 A 
ATOM     18  C   UNL d   1     -50.897  12.754  23.692  0.00  0.00     0.000 A 
ATOM     19  C   UNL d   1     -50.389  13.385  23.566  0.00  0.00     0.000 A 
ATOM     20  C   UNL d   1     -49.139  13.976  23.151  0.00  0.00     0.002 A 
ATOM     21  C   UNL d   1     -48.378  13.881  22.847  0.00  0.00     0.025 A 
ENDBRANCH   1  12
TORSDOF 3
ENDMDL
MODEL 4
REMARK VINA RESULT:      -6.4      1.160      1.718
REMARK  3 active torsions:
REMARK  status: ('A' for Active; 'I' for Inactive)
REMARK    1  A    between atoms: C_8  and  C_2 
REMARK    2  A    between atoms: O_11  and  C_8 
REMARK    3  A    between atoms: C_12  and  O_11 
ROOT
ATOM      1  O   UNL d   1     -47.775  13.544  22.549  0.00  0.00    -0.302 OA
ENDROOT
BRANCH   1   2
ATOM      2  C   UNL d   1     -47.192  13.427  23.127  0.00  0.00     0.161 C 
BRANCH   2   3
ATOM      3  C   UNL d   1     -46.445  13.153  22.907  0.00  0.00     0.188 A 
ATOM      4  N   UNL d   1     -46.051  12.478  23.236  0.00  0.00    -0.224 NA
ATOM      5  C   UNL d   1     -45.337  12.407  22.866  0.00  0.00     0.101 A 
ATOM      6  C   UNL d   1     -45.272  13.041  22.296  0.00  0.00     0.101 A 
ATOM      7  C   UNL d   1     -44.695  11.877  22.924  0.00  0.00     0.021 A 
ATOM      8  C   UNL d   1     -44.595  13.109  21.831  0.00  0.00     0.021 A 
ATOM      9  N   UNL d   1     -45.949  13.478  22.337  0.00  0.00    -0.224 NA
ATOM     10  C   UNL d   1     -43.979  12.567  21.915  0.00  0.00     0.002 A 
ATOM     11  C   UNL d   1     -44.041  11.954  22.466  0.00  0.00     0.002 A 
ENDBRANCH   2   3
ENDBRANCH   1   2
BRANCH   1  12
ATOM     12  C   UNL d   1     -48.521  13.795  22.799  0.00  0.00     0.100 A 
ATOM     13  C   UNL d   1     -48.698  14.567  22.937  0.00  0.00     0.025 A 
ATOM     14  C   UNL d   1     -49.452  14.791  23.186  0.00  0.00     0.002 A 
ATOM     15  C   UNL d   1     -49.615  15.610  23.325  0.00  0.00     0.000 A 
ATOM     16  C   UNL d   1     -50.029  14.242  23.298  0.00  0.00     0.000 A 
ATOM     17  C   UNL d   1     -50.369  15.833  23.574  0.00  0.00     0.000 A 
ATOM     18  C   UNL d   1     -50.987  15.245  23.694  0.00  0.00     0.000 A 
ATOM     19  C   UNL d   1     -50.783  14.465  23.548  0.00  0.00     0.000 A 
ATOM     20  C   UNL d   1     -49.867  13.418  23.160  0.00  0.00     0.002 A 
ATOM     21  C   UNL d   1     -49.113  13.195  22.910  0.00  0.00     0.025 A 
ENDBRANCH   1  12
TORSDOF 3
ENDMDL
MODEL 5
REMARK VINA RESULT:      -6.3      1.566      5.240
REMARK  3 active torsions:
REMARK  status: ('A' for Active; 'I' for Inactive)
REMARK    1  A    between atoms: C_8  and  C_2 
REMARK    2  A    between atoms: O_11  and  C_8 
REMARK    3  A    between atoms: C_12  and  O_11 
ROOT
ATOM      1  O   UNL d   1     -47.342  13.203  22.951  0.00  0.00    -0.302 OA
ENDROOT
BRANCH   1   2
ATOM      2  C   UNL d   1     -47.724  13.306  22.223  0.00  0.00     0.161 C 
BRANCH   2   3
ATOM      3  C   UNL d   1     -48.485  13.625  22.199  0.00  0.00     0.188 A 
ATOM      4  N   UNL d   1     -49.097  13.401  21.656  0.00  0.00    -0.224 NA
ATOM      5  C   UNL d   1     -49.749  13.847  21.825  0.00  0.00     0.101 A 
ATOM      6  C   UNL d   1     -49.554  14.360  22.480  0.00  0.00     0.101 A 
ATOM      7  C   UNL d   1     -50.519  13.903  21.510  0.00  0.00     0.021 A 
ATOM      8  C   UNL d   1     -50.118  14.883  22.776  0.00  0.00     0.021 A 
ATOM      9  N   UNL d   1     -48.789  14.210  22.690  0.00  0.00    -0.224 NA
ATOM     10  C   UNL d   1     -50.871  14.912  22.440  0.00  0.00     0.002 A 
ATOM     11  C   UNL d   1     -51.060  14.416  21.806  0.00  0.00     0.002 A 
ENDBRANCH   2   3
ENDBRANCH   1   2
BRANCH   1  12
ATOM     12  C   UNL d   1     -46.654  12.747  22.965  0.00  0.00     0.100 A 
ATOM     13  C   UNL d   1     -46.614  12.027  23.320  0.00  0.00     0.025 A 
ATOM     14  C   UNL d   1     -45.912  11.593  23.318  0.00  0.00     0.002 A 
ATOM     15  C   UNL d   1     -45.894  10.837  23.698  0.00  0.00     0.000 A 
ATOM     16  C   UNL d   1     -45.251  11.879  22.961  0.00  0.00     0.000 A 
ATOM     17  C   UNL d   1     -45.193  10.403  23.696  0.00  0.00     0.000 A 
ATOM     18  C   UNL d   1     -44.484  10.709  23.315  0.00  0.00     0.000 A 
ATOM     19  C   UNL d   1     -44.549  11.444  22.960  0.00  0.00     0.000 A 
ATOM     20  C   UNL d   1     -45.267  12.639  22.579  0.00  0.00     0.002 A 
ATOM     21  C   UNL d   1     -45.968  13.073  22.580  0.00  0.00     0.025 A 
ENDBRANCH   1  12
TORSDOF 3
ENDMDL
