MODEL 1
REMARK VINA RESULT:      -6.4      0.000      0.000
REMARK  3 active torsions:
REMARK  status: ('A' for Active; 'I' for Inactive)
REMARK    1  A    between atoms: C_3  and  C_9 
REMARK    2  A    between atoms: C_6  and  C_4 
REMARK    3  A    between atoms: C_9  and  C_6 
ROOT
ATOM      1  C   UNL d   1     -48.854  13.803  22.018  0.00  0.00     0.199 A 
ATOM      2  C   UNL d   1     -49.559  14.206  21.956  0.00  0.00     0.084 A 
ATOM      3  C   UNL d   1     -48.235  14.110  22.469  0.00  0.00     0.039 A 
ATOM      4  C   UNL d   1     -48.331  14.817  22.851  0.00  0.00     0.006 A 
ATOM      5  C   UNL d   1     -49.650  14.922  22.346  0.00  0.00     0.199 A 
ATOM      6  O   UNL d   1     -48.765  13.080  21.623  0.00  0.00    -0.286 OA
ATOM      7  C   UNL d   1     -49.031  15.230  22.797  0.00  0.00     0.042 A 
ATOM      8  O   UNL d   1     -50.355  15.326  22.284  0.00  0.00    -0.286 OA
ENDROOT
BRANCH   3   9
ATOM      9  C   UNL d   1     -47.523  13.697  22.529  0.00  0.00     0.009 C 
BRANCH   9  10
ATOM     10  C   UNL d   1     -46.891  14.024  22.946  0.00  0.00     0.070 C 
BRANCH  10  11
ATOM     11  C   UNL d   1     -46.194  13.593  23.043  0.00  0.00     0.211 C 
ATOM     12  O   UNL d   1     -45.592  13.663  22.490  0.00  0.00    -0.644 OA
ATOM     13  O   UNL d   1     -46.106  13.106  23.680  0.00  0.00    -0.644 OA
ENDBRANCH  10  11
ENDBRANCH   9  10
ENDBRANCH   3   9
TORSDOF 3
ENDMDL
MODEL 2
REMARK VINA RESULT:      -6.4      0.869      3.196
REMARK  3 active torsions:
REMARK  status: ('A' for Active; 'I' for Inactive)
REMARK    1  A    between atoms: C_3  and  C_9 
REMARK    2  A    between atoms: C_6  and  C_4 
REMARK    3  A    between atoms: C_9  and  C_6 
ROOT
ATOM      1  C   UNL d   1     -47.813  13.082  23.139  0.00  0.00     0.199 A 
ATOM      2  C   UNL d   1     -47.084  12.729  23.228  0.00  0.00     0.084 A 
ATOM      3  C   UNL d   1     -47.869  13.882  22.945  0.00  0.00     0.039 A 
ATOM      4  C   UNL d   1     -47.195  14.318  22.843  0.00  0.00     0.006 A 
ATOM      5  C   UNL d   1     -46.405  13.176  23.123  0.00  0.00     0.199 A 
ATOM      6  O   UNL d   1     -48.498  12.629  23.246  0.00  0.00    -0.286 OA
ATOM      7  C   UNL d   1     -46.460  13.976  22.929  0.00  0.00     0.042 A 
ATOM      8  O   UNL d   1     -45.675  12.823  23.211  0.00  0.00    -0.286 OA
ENDROOT
BRANCH   3   9
ATOM      9  C   UNL d   1     -48.610  14.235  22.857  0.00  0.00     0.009 C 
BRANCH   9  10
ATOM     10  C   UNL d   1     -48.672  15.056  22.810  0.00  0.00     0.070 C 
BRANCH  10  11
ATOM     11  C   UNL d   1     -49.416  15.415  22.830  0.00  0.00     0.211 C 
ATOM     12  O   UNL d   1     -49.689  15.747  23.529  0.00  0.00    -0.644 OA
ATOM     13  O   UNL d   1     -49.871  15.438  22.164  0.00  0.00    -0.644 OA
ENDBRANCH  10  11
ENDBRANCH   9  10
ENDBRANCH   3   9
TORSDOF 3
ENDMDL
MODEL 3
REMARK VINA RESULT:      -6.3      1.282      1.576
REMARK  3 active torsions:
REMARK  status: ('A' for Active; 'I' for Inactive)
REMARK    1  A    between atoms: C_3  and  C_9 
REMARK    2  A    between atoms: C_6  and  C_4 
REMARK    3  A    between atoms: C_9  and  C_6 
ROOT
ATOM      1  C   UNL d   1     -48.799  12.113  22.289  0.00  0.00     0.199 A 
ATOM      2  C   UNL d   1     -49.560  12.168  22.004  0.00  0.00     0.084 A 
ATOM      3  C   UNL d   1     -48.304  12.774  22.287  0.00  0.00     0.039 A 
ATOM      4  C   UNL d   1     -48.578  13.479  22.001  0.00  0.00     0.006 A 
ATOM      5  C   UNL d   1     -49.832  12.886  21.716  0.00  0.00     0.199 A 
ATOM      6  O   UNL d   1     -48.526  11.388  22.579  0.00  0.00    -0.286 OA
ATOM      7  C   UNL d   1     -49.338  13.546  21.714  0.00  0.00     0.042 A 
ATOM      8  O   UNL d   1     -50.594  12.941  21.431  0.00  0.00    -0.286 OA
ENDROOT
BRANCH   3   9
ATOM      9  C   UNL d   1     -47.533  12.713  22.576  0.00  0.00     0.009 C 
BRANCH   9  10
ATOM     10  C   UNL d   1     -47.049  13.380  22.601  0.00  0.00     0.070 C 
BRANCH  10  11
ATOM     11  C   UNL d   1     -46.282  13.322  22.901  0.00  0.00     0.211 C 
ATOM     12  O   UNL d   1     -45.644  13.292  22.385  0.00  0.00    -0.644 OA
ATOM     13  O   UNL d   1     -46.161  13.294  23.698  0.00  0.00    -0.644 OA
ENDBRANCH  10  11
ENDBRANCH   9  10
ENDBRANCH   3   9
TORSDOF 3
ENDMDL
MODEL 4
REMARK VINA RESULT:      -6.2      1.793      3.650
REMARK  3 active torsions:
REMARK  status: ('A' for Active; 'I' for Inactive)
REMARK    1  A    between atoms: C_3  and  C_9 
REMARK    2  A    between atoms: C_6  and  C_4 
REMARK    3  A    between atoms: C_9  and  C_6 
ROOT
ATOM      1  C   UNL d   1     -47.786  11.671  23.452  0.00  0.00     0.199 A 
ATOM      2  C   UNL d   1     -47.019  11.822  23.682  0.00  0.00     0.084 A 
ATOM      3  C   UNL d   1     -48.205  12.226  23.007  0.00  0.00     0.039 A 
ATOM      4  C   UNL d   1     -47.851  12.923  22.799  0.00  0.00     0.006 A 
ATOM      5  C   UNL d   1     -46.665  12.530  23.467  0.00  0.00     0.199 A 
ATOM      6  O   UNL d   1     -48.142  10.955  23.669  0.00  0.00    -0.286 OA
ATOM      7  C   UNL d   1     -47.084  13.084  23.023  0.00  0.00     0.042 A 
ATOM      8  O   UNL d   1     -45.898  12.680  23.697  0.00  0.00    -0.286 OA
ENDROOT
BRANCH   3   9
ATOM      9  C   UNL d   1     -48.982  12.068  22.777  0.00  0.00     0.009 C 
BRANCH   9  10
ATOM     10  C   UNL d   1     -49.444  12.668  22.450  0.00  0.00     0.070 C 
BRANCH  10  11
ATOM     11  C   UNL d   1     -50.204  12.500  22.175  0.00  0.00     0.211 C 
ATOM     12  O   UNL d   1     -50.332  12.388  21.372  0.00  0.00    -0.644 OA
ATOM     13  O   UNL d   1     -50.819  12.446  22.695  0.00  0.00    -0.644 OA
ENDBRANCH  10  11
ENDBRANCH   9  10
ENDBRANCH   3   9
TORSDOF 3
ENDMDL
