MODEL 1
REMARK VINA RESULT:      -6.5      0.000      0.000
REMARK  4 active torsions:
REMARK  status: ('A' for Active; 'I' for Inactive)
REMARK    1  A    between atoms: C_2  and  C_1 
REMARK    2  A    between atoms: C_11  and  N_5 
REMARK    3  A    between atoms: C_14  and  C_11 
REMARK    4  A    between atoms: C_17  and  C_14 
ROOT
ATOM      1  C   UNL d   1     -47.575  13.354  22.934  0.00  0.00     0.112 A 
ATOM      2  C   UNL d   1     -47.444  12.584  23.172  0.00  0.00     0.176 A 
ATOM      3  N   UNL d   1     -46.621  12.465  23.208  0.00  0.00    -0.285 N 
ATOM      4  C   UNL d   1     -46.846  13.716  22.820  0.00  0.00     0.219 A 
ATOM      5  C   UNL d   1     -46.264  13.161  22.992  0.00  0.00     0.124 A 
ATOM      6  O   UNL d   1     -46.711  14.491  22.580  0.00  0.00    -0.285 OA
ATOM      7  N   UNL d   1     -48.027  12.012  23.350  0.00  0.00    -0.128 N 
ENDROOT
BRANCH   1   8
ATOM      8  C   UNL d   1     -48.332  13.679  22.834  0.00  0.00     0.169 A 
ATOM      9  N   UNL d   1     -48.798  14.143  23.327  0.00  0.00    -0.225 NA
ATOM     10  C   UNL d   1     -49.503  14.302  22.930  0.00  0.00     0.101 A 
ATOM     11  C   UNL d   1     -50.170  14.732  23.145  0.00  0.00     0.021 A 
ATOM     12  C   UNL d   1     -49.467  13.934  22.191  0.00  0.00     0.101 A 
ATOM     13  C   UNL d   1     -50.807  14.798  22.621  0.00  0.00     0.002 A 
ATOM     14  C   UNL d   1     -50.772  14.430  21.882  0.00  0.00     0.002 A 
ATOM     15  C   UNL d   1     -50.100  13.997  21.668  0.00  0.00     0.021 A 
ATOM     16  N   UNL d   1     -48.741  13.551  22.137  0.00  0.00    -0.225 NA
ENDBRANCH   1   8
BRANCH   3  17
ATOM     17  C   UNL d   1     -46.238  11.766  23.423  0.00  0.00     0.082 C 
BRANCH  17  18
ATOM     18  C   UNL d   1     -45.471  11.615  23.161  0.00  0.00     0.019 C 
BRANCH  18  19
ATOM     19  C   UNL d   1     -45.079  10.931  23.394  0.00  0.00     0.002 C 
ATOM     20  C   UNL d   1     -45.502  10.290  23.697  0.00  0.00     0.000 C 
ATOM     21  C   UNL d   1     -44.256  10.884  23.325  0.00  0.00     0.000 C 
ENDBRANCH  18  19
ENDBRANCH  17  18
ENDBRANCH   3  17
TORSDOF 4
ENDMDL
MODEL 2
REMARK VINA RESULT:      -6.3      0.715      4.667
REMARK  4 active torsions:
REMARK  status: ('A' for Active; 'I' for Inactive)
REMARK    1  A    between atoms: C_2  and  C_1 
REMARK    2  A    between atoms: C_11  and  N_5 
REMARK    3  A    between atoms: C_14  and  C_11 
REMARK    4  A    between atoms: C_17  and  C_14 
ROOT
ATOM      1  C   UNL d   1     -46.736  13.040  23.073  0.00  0.00     0.112 A 
ATOM      2  C   UNL d   1     -47.550  12.989  23.036  0.00  0.00     0.176 A 
ATOM      3  N   UNL d   1     -47.849  13.759  22.931  0.00  0.00    -0.285 N 
ATOM      4  C   UNL d   1     -46.523  13.831  22.993  0.00  0.00     0.219 A 
ATOM      5  C   UNL d   1     -47.215  14.266  22.906  0.00  0.00     0.124 A 
ATOM      6  O   UNL d   1     -45.761  14.140  22.998  0.00  0.00    -0.285 OA
ATOM      7  N   UNL d   1     -48.007  12.293  23.092  0.00  0.00    -0.128 N 
ENDROOT
BRANCH   1   8
ATOM      8  C   UNL d   1     -46.240  12.383  23.176  0.00  0.00     0.169 A 
ATOM      9  N   UNL d   1     -46.372  11.645  23.513  0.00  0.00    -0.225 NA
ATOM     10  C   UNL d   1     -45.671  11.215  23.458  0.00  0.00     0.101 A 
ATOM     11  C   UNL d   1     -45.472  10.453  23.698  0.00  0.00     0.021 A 
ATOM     12  C   UNL d   1     -45.108  11.691  23.085  0.00  0.00     0.101 A 
ATOM     13  C   UNL d   1     -44.709  10.163  23.566  0.00  0.00     0.002 A 
ATOM     14  C   UNL d   1     -44.147  10.640  23.193  0.00  0.00     0.002 A 
ATOM     15  C   UNL d   1     -44.348  11.405  22.953  0.00  0.00     0.021 A 
ATOM     16  N   UNL d   1     -45.466  12.412  22.913  0.00  0.00    -0.225 NA
ENDBRANCH   1   8
BRANCH   3  17
ATOM     17  C   UNL d   1     -48.645  13.969  22.865  0.00  0.00     0.082 C 
BRANCH  17  18
ATOM     18  C   UNL d   1     -48.863  14.763  22.840  0.00  0.00     0.019 C 
BRANCH  18  19
ATOM     19  C   UNL d   1     -49.658  14.976  22.847  0.00  0.00     0.002 C 
ATOM     20  C   UNL d   1     -49.941  15.514  23.406  0.00  0.00     0.000 C 
ATOM     21  C   UNL d   1     -50.176  14.649  22.292  0.00  0.00     0.000 C 
ENDBRANCH  18  19
ENDBRANCH  17  18
ENDBRANCH   3  17
TORSDOF 4
ENDMDL
MODEL 3
REMARK VINA RESULT:      -5.8      8.718     10.514
REMARK  4 active torsions:
REMARK  status: ('A' for Active; 'I' for Inactive)
REMARK    1  A    between atoms: C_2  and  C_1 
REMARK    2  A    between atoms: C_11  and  N_5 
REMARK    3  A    between atoms: C_14  and  C_11 
REMARK    4  A    between atoms: C_17  and  C_14 
ROOT
ATOM      1  C   UNL d   1     -39.465  14.566  18.155  0.00  0.00     0.112 A 
ATOM      2  C   UNL d   1     -39.069  14.851  18.809  0.00  0.00     0.176 A 
ATOM      3  N   UNL d   1     -39.593  14.824  19.455  0.00  0.00    -0.285 N 
ATOM      4  C   UNL d   1     -40.228  14.361  18.383  0.00  0.00     0.219 A 
ATOM      5  C   UNL d   1     -40.298  14.524  19.187  0.00  0.00     0.124 A 
ATOM      6  O   UNL d   1     -40.821  14.051  17.905  0.00  0.00    -0.285 OA
ATOM      7  N   UNL d   1     -38.280  15.123  18.834  0.00  0.00    -0.128 N 
ENDROOT
BRANCH   1   8
ATOM      8  C   UNL d   1     -39.121  14.507  17.402  0.00  0.00     0.169 A 
ATOM      9  N   UNL d   1     -38.973  15.070  16.822  0.00  0.00    -0.225 NA
ATOM     10  C   UNL d   1     -38.618  14.687  16.184  0.00  0.00     0.101 A 
ATOM     11  C   UNL d   1     -38.349  14.962  15.457  0.00  0.00     0.021 A 
ATOM     12  C   UNL d   1     -38.548  13.886  16.375  0.00  0.00     0.101 A 
ATOM     13  C   UNL d   1     -38.009  14.438  14.916  0.00  0.00     0.002 A 
ATOM     14  C   UNL d   1     -37.940  13.637  15.106  0.00  0.00     0.002 A 
ATOM     15  C   UNL d   1     -38.210  13.362  15.838  0.00  0.00     0.021 A 
ATOM     16  N   UNL d   1     -38.861  13.781  17.129  0.00  0.00    -0.225 NA
ENDBRANCH   1   8
BRANCH   3  17
ATOM     17  C   UNL d   1     -39.427  15.060  20.229  0.00  0.00     0.082 C 
BRANCH  17  18
ATOM     18  C   UNL d   1     -39.959  14.893  20.837  0.00  0.00     0.019 C 
BRANCH  18  19
ATOM     19  C   UNL d   1     -39.810  15.154  21.602  0.00  0.00     0.002 C 
ATOM     20  C   UNL d   1     -39.447  14.655  22.150  0.00  0.00     0.000 C 
ATOM     21  C   UNL d   1     -40.024  15.922  21.825  0.00  0.00     0.000 C 
ENDBRANCH  18  19
ENDBRANCH  17  18
ENDBRANCH   3  17
TORSDOF 4
ENDMDL
MODEL 4
REMARK VINA RESULT:      -5.6      8.068      9.480
REMARK  4 active torsions:
REMARK  status: ('A' for Active; 'I' for Inactive)
REMARK    1  A    between atoms: C_2  and  C_1 
REMARK    2  A    between atoms: C_11  and  N_5 
REMARK    3  A    between atoms: C_14  and  C_11 
REMARK    4  A    between atoms: C_17  and  C_14 
ROOT
ATOM      1  C   UNL d   1     -39.967  14.580  20.572  0.00  0.00     0.112 A 
ATOM      2  C   UNL d   1     -39.607  14.847  19.890  0.00  0.00     0.176 A 
ATOM      3  N   UNL d   1     -40.179  14.849  19.285  0.00  0.00    -0.285 N 
ATOM      4  C   UNL d   1     -40.755  14.415  20.402  0.00  0.00     0.219 A 
ATOM      5  C   UNL d   1     -40.876  14.584  19.606  0.00  0.00     0.124 A 
ATOM      6  O   UNL d   1     -41.325  14.134  20.923  0.00  0.00    -0.285 OA
ATOM      7  N   UNL d   1     -38.810  15.079  19.806  0.00  0.00    -0.128 N 
ENDROOT
BRANCH   1   8
ATOM      8  C   UNL d   1     -39.571  14.502  21.297  0.00  0.00     0.169 A 
ATOM      9  N   UNL d   1     -39.391  15.047  21.885  0.00  0.00    -0.225 NA
ATOM     10  C   UNL d   1     -38.988  14.649  22.483  0.00  0.00     0.101 A 
ATOM     11  C   UNL d   1     -38.673  14.903  23.199  0.00  0.00     0.021 A 
ATOM     12  C   UNL d   1     -38.921  13.856  22.261  0.00  0.00     0.101 A 
ATOM     13  C   UNL d   1     -38.290  14.367  23.698  0.00  0.00     0.002 A 
ATOM     14  C   UNL d   1     -38.223  13.574  23.475  0.00  0.00     0.002 A 
ATOM     15  C   UNL d   1     -38.539  13.319  22.755  0.00  0.00     0.021 A 
ATOM     16  N   UNL d   1     -39.283  13.771  21.527  0.00  0.00    -0.225 NA
ENDBRANCH   1   8
BRANCH   3  17
ATOM     17  C   UNL d   1     -40.059  15.078  18.501  0.00  0.00     0.082 C 
BRANCH  17  18
ATOM     18  C   UNL d   1     -40.607  14.872  17.920  0.00  0.00     0.019 C 
BRANCH  18  19
ATOM     19  C   UNL d   1     -40.520  15.148  17.150  0.00  0.00     0.002 C 
ATOM     20  C   UNL d   1     -40.972  15.785  16.882  0.00  0.00     0.000 C 
ATOM     21  C   UNL d   1     -39.977  14.787  16.641  0.00  0.00     0.000 C 
ENDBRANCH  18  19
ENDBRANCH  17  18
ENDBRANCH   3  17
TORSDOF 4
ENDMDL
