MODEL 1
REMARK VINA RESULT:     116.5      0.000      0.000
REMARK  4 active torsions:
REMARK  status: ('A' for Active; 'I' for Inactive)
REMARK    1  A    between atoms: N_5  and  C_1 
REMARK    2  A    between atoms: C_10  and  C_2 
REMARK    3  A    between atoms: C_12  and  N_3 
REMARK       I    between atoms: C_8  and  N_5 
REMARK    4  A    between atoms: C_9  and  C_8 
ROOT
ATOM      1  C   UNL d   1     -56.856 -99.194 -44.742  0.00  0.00     0.170 A 
ATOM      2  C   UNL d   1     -56.038 -99.263 -44.650  0.00  0.00     0.076 A 
ATOM      3  N   UNL d   1     -57.173 -98.981 -45.479  0.00  0.00    -0.212 N 
ATOM      4  N   UNL d   1     -56.666 -98.839 -46.115  0.00  0.00    -0.161 NA
ATOM      5  C   UNL d   1     -55.534 -99.119 -45.293  0.00  0.00     0.218 A 
ATOM      6  C   UNL d   1     -55.847 -98.907 -46.024  0.00  0.00     0.140 A 
ATOM      7  O   UNL d   1     -54.716 -99.187 -45.202  0.00  0.00    -0.285 OA
ATOM      8  C   UNL d   1     -55.336 -98.765 -46.661  0.00  0.00     0.026 C 
ENDROOT
BRANCH   1   9
ATOM      9  N   UNL d   1     -57.356 -99.335 -44.110  0.00  0.00    -0.188 NA
ATOM     10  C   UNL d   1     -57.676 -99.853 -43.549  0.00  0.00     0.286 C 
ATOM     11  O   UNL d   1     -57.429-100.637 -43.544  0.00  0.00    -0.265 OA
BRANCH  10  12
ATOM     12  C   UNL d   1     -58.228 -99.581 -43.009  0.00  0.00     0.087 A 
ATOM     13  S   UNL d   1     -58.690-100.042 -42.500  0.00  0.00    -0.082 SA
ATOM     14  C   UNL d   1     -59.163 -99.532 -42.061  0.00  0.00     0.036 A 
ATOM     15  C   UNL d   1     -59.004 -98.761 -42.286  0.00  0.00     0.008 A 
ATOM     16  C   UNL d   1     -58.420 -98.788 -42.878  0.00  0.00     0.012 A 
ENDBRANCH  10  12
ENDBRANCH   1   9
BRANCH   2  17
ATOM     17  C   UNL d   1     -55.720 -99.474 -43.922  0.00  0.00     0.006 A 
ATOM     18  C   UNL d   1     -55.552-100.260 -43.760  0.00  0.00     0.001 A 
ATOM     19  C   UNL d   1     -55.231-100.473 -43.024  0.00  0.00     0.011 A 
ATOM     20  C   UNL d   1     -55.084 -99.892 -42.461  0.00  0.00     0.058 A 
ATOM     21  C   UNL d   1     -55.254 -99.096 -42.622  0.00  0.00     0.011 A 
ATOM     22 CL   UNL d   1     -54.766-100.107 -41.730  0.00  0.00    -0.082 Cl
ATOM     23  C   UNL d   1     -55.572 -98.893 -43.355  0.00  0.00     0.001 A 
ENDBRANCH   2  17
BRANCH   3  24
ATOM     24  C   UNL d   1     -57.988 -98.912 -45.572  0.00  0.00     0.085 A 
ATOM     25  C   UNL d   1     -58.308 -98.839 -46.330  0.00  0.00     0.019 A 
ATOM     26  C   UNL d   1     -59.132 -98.769 -46.423  0.00  0.00     0.002 A 
ATOM     27  C   UNL d   1     -59.621 -98.774 -45.766  0.00  0.00     0.000 A 
ATOM     28  C   UNL d   1     -59.292 -98.848 -45.008  0.00  0.00     0.002 A 
ATOM     29  C   UNL d   1     -58.477 -98.917 -44.915  0.00  0.00     0.019 A 
ENDBRANCH   3  24
TORSDOF 4
ENDMDL
MODEL 2
REMARK VINA RESULT:     118.5      1.814      4.308
REMARK  4 active torsions:
REMARK  status: ('A' for Active; 'I' for Inactive)
REMARK    1  A    between atoms: N_5  and  C_1 
REMARK    2  A    between atoms: C_10  and  C_2 
REMARK    3  A    between atoms: C_12  and  N_3 
REMARK       I    between atoms: C_8  and  N_5 
REMARK    4  A    between atoms: C_9  and  C_8 
ROOT
ATOM      1  C   UNL d   1     -57.448 -99.199 -43.667  0.00  0.00     0.170 A 
ATOM      2  C   UNL d   1     -58.231 -99.038 -43.876  0.00  0.00     0.076 A 
ATOM      3  N   UNL d   1     -57.234 -99.239 -42.866  0.00  0.00    -0.212 N 
ATOM      4  N   UNL d   1     -57.808 -99.117 -42.284  0.00  0.00    -0.161 NA
ATOM      5  C   UNL d   1     -58.802 -98.917 -43.286  0.00  0.00     0.218 A 
ATOM      6  C   UNL d   1     -58.591 -98.956 -42.493  0.00  0.00     0.140 A 
ATOM      7  O   UNL d   1     -59.585 -98.756 -43.495  0.00  0.00    -0.285 OA
ATOM      8  C   UNL d   1     -59.169 -98.834 -41.910  0.00  0.00     0.026 C 
ENDROOT
BRANCH   1   9
ATOM      9  N   UNL d   1     -56.883 -99.319 -44.245  0.00  0.00    -0.188 NA
ATOM     10  C   UNL d   1     -56.605 -99.739 -44.902  0.00  0.00     0.286 C 
ATOM     11  O   UNL d   1     -57.052-100.365 -45.192  0.00  0.00    -0.265 OA
BRANCH  10  12
ATOM     12  C   UNL d   1     -55.895 -99.529 -45.253  0.00  0.00     0.087 A 
ATOM     13  S   UNL d   1     -55.332-100.042 -45.574  0.00  0.00    -0.082 SA
ATOM     14  C   UNL d   1     -54.712 -99.584 -45.863  0.00  0.00     0.036 A 
ATOM     15  C   UNL d   1     -54.880 -98.794 -45.728  0.00  0.00     0.008 A 
ATOM     16  C   UNL d   1     -55.619 -98.756 -45.347  0.00  0.00     0.012 A 
ENDBRANCH  10  12
ENDBRANCH   1   9
BRANCH   2  17
ATOM     17  C   UNL d   1     -58.447 -98.998 -44.668  0.00  0.00     0.006 A 
ATOM     18  C   UNL d   1     -57.884 -98.819 -45.237  0.00  0.00     0.001 A 
ATOM     19  C   UNL d   1     -58.102 -98.778 -46.038  0.00  0.00     0.011 A 
ATOM     20  C   UNL d   1     -58.883 -98.917 -46.255  0.00  0.00     0.058 A 
ATOM     21  C   UNL d   1     -59.454 -99.098 -45.680  0.00  0.00     0.011 A 
ATOM     22 CL   UNL d   1     -59.096 -98.876 -47.051  0.00  0.00    -0.082 Cl
ATOM     23  C   UNL d   1     -59.230 -99.137 -44.888  0.00  0.00     0.001 A 
ENDBRANCH   2  17
BRANCH   3  24
ATOM     24  C   UNL d   1     -56.455 -99.399 -42.655  0.00  0.00     0.085 A 
ATOM     25  C   UNL d   1     -56.172-100.175 -42.692  0.00  0.00     0.019 A 
ATOM     26  C   UNL d   1     -55.384-100.336 -42.479  0.00  0.00     0.002 A 
ATOM     27  C   UNL d   1     -54.893 -99.728 -42.235  0.00  0.00     0.000 A 
ATOM     28  C   UNL d   1     -55.184 -98.951 -42.201  0.00  0.00     0.002 A 
ATOM     29  C   UNL d   1     -55.964 -98.791 -42.411  0.00  0.00     0.019 A 
ENDBRANCH   3  24
TORSDOF 4
ENDMDL
