MODEL 1
REMARK VINA RESULT:      -2.7      0.000      0.000
REMARK  3 active torsions:
REMARK  status: ('A' for Active; 'I' for Inactive)
REMARK    1  A    between atoms: S_2  and  N_1 
REMARK    2  A    between atoms: C_6  and  S_2 
REMARK    3  A    between atoms: O_17  and  C_11 
ROOT
ATOM      1  S   UNL d   1      58.650  -1.179  29.556  0.00  0.00     0.273 S 
ATOM      2  O   UNL d   1      59.202  -1.054  30.155  0.00  0.00    -0.200 OA
ATOM      3  O   UNL d   1      58.096  -1.305  28.952  0.00  0.00    -0.200 OA
ENDROOT
BRANCH   1   4
ATOM      4  N   UNL d   1      58.205  -0.541  29.827  0.00  0.00    -0.214 N 
ATOM      5  C   UNL d   1      58.146   0.202  29.465  0.00  0.00     0.157 A 
ATOM      6  N   UNL d   1      57.641   0.676  29.925  0.00  0.00    -0.226 NA
ATOM      7  C   UNL d   1      58.521   0.429  28.775  0.00  0.00     0.041 C 
ATOM      8  C   UNL d   1      57.390   0.218  30.572  0.00  0.00     0.100 A 
ATOM      9  C   UNL d   1      57.734  -0.526  30.513  0.00  0.00     0.094 A 
ATOM     10  C   UNL d   1      56.890   0.395  31.203  0.00  0.00     0.021 A 
ATOM     11  C   UNL d   1      57.578  -1.102  31.092  0.00  0.00     0.020 A 
ATOM     12  C   UNL d   1      57.080  -0.926  31.720  0.00  0.00     0.002 A 
ATOM     13  C   UNL d   1      56.734  -0.181  31.782  0.00  0.00     0.002 A 
ENDBRANCH   1   4
BRANCH   1  14
ATOM     14  C   UNL d   1      59.093  -1.819  29.281  0.00  0.00     0.106 A 
ATOM     15  C   UNL d   1      58.721  -2.545  29.126  0.00  0.00     0.039 A 
ATOM     16  C   UNL d   1      59.163  -3.186  28.851  0.00  0.00     0.122 A 
ATOM     17  C   UNL d   1      59.980  -3.105  28.728  0.00  0.00     0.162 A 
ATOM     18  C   UNL d   1      60.350  -2.383  28.882  0.00  0.00     0.032 A 
ATOM     19  F   UNL d   1      60.413  -3.741  28.456  0.00  0.00    -0.202 F 
ATOM     20  C   UNL d   1      59.908  -1.744  29.157  0.00  0.00     0.015 A 
BRANCH  16  21
ATOM     21  O   UNL d   1      58.794  -3.899  28.699  0.00  0.00    -0.326 OA
ATOM     22  C   UNL d   1      57.983  -3.934  28.649  0.00  0.00     0.181 C 
ENDBRANCH  16  21
ENDBRANCH   1  14
TORSDOF 3
ENDMDL
MODEL 2
REMARK VINA RESULT:      -2.2      1.994      3.038
REMARK  3 active torsions:
REMARK  status: ('A' for Active; 'I' for Inactive)
REMARK    1  A    between atoms: S_2  and  N_1 
REMARK    2  A    between atoms: C_6  and  S_2 
REMARK    3  A    between atoms: O_17  and  C_11 
ROOT
ATOM      1  S   UNL d   1      57.519  -0.027  31.557  0.00  0.00     0.273 S 
ATOM      2  O   UNL d   1      57.095   0.666  31.419  0.00  0.00    -0.200 OA
ATOM      3  O   UNL d   1      57.946  -0.724  31.696  0.00  0.00    -0.200 OA
ENDROOT
BRANCH   1   4
ATOM      4  N   UNL d   1      57.242  -0.045  32.334  0.00  0.00    -0.214 N 
ATOM      5  C   UNL d   1      57.620   0.283  32.994  0.00  0.00     0.157 A 
ATOM      6  N   UNL d   1      57.149   0.137  33.663  0.00  0.00    -0.226 NA
ATOM      7  C   UNL d   1      58.334   0.682  32.988  0.00  0.00     0.041 C 
ATOM      8  C   UNL d   1      56.478  -0.284  33.408  0.00  0.00     0.100 A 
ATOM      9  C   UNL d   1      56.534  -0.395  32.596  0.00  0.00     0.094 A 
ATOM     10  C   UNL d   1      55.828  -0.575  33.823  0.00  0.00     0.021 A 
ATOM     11  C   UNL d   1      55.934  -0.803  32.191  0.00  0.00     0.020 A 
ATOM     12  C   UNL d   1      55.286  -1.093  32.604  0.00  0.00     0.002 A 
ATOM     13  C   UNL d   1      55.228  -0.983  33.418  0.00  0.00     0.002 A 
ENDBRANCH   1   4
BRANCH   1  14
ATOM     14  C   UNL d   1      57.798  -0.012  30.782  0.00  0.00     0.106 A 
ATOM     15  C   UNL d   1      58.208  -0.667  30.475  0.00  0.00     0.039 A 
ATOM     16  C   UNL d   1      58.487  -0.653  29.698  0.00  0.00     0.122 A 
ATOM     17  C   UNL d   1      58.359   0.015  29.222  0.00  0.00     0.162 A 
ATOM     18  C   UNL d   1      57.952   0.666  29.527  0.00  0.00     0.032 A 
ATOM     19  F   UNL d   1      58.638   0.024  28.455  0.00  0.00    -0.202 F 
ATOM     20  C   UNL d   1      57.673   0.652  30.302  0.00  0.00     0.015 A 
BRANCH  16  21
ATOM     21  O   UNL d   1      58.890  -1.298  29.400  0.00  0.00    -0.326 OA
ATOM     22  C   UNL d   1      58.494  -1.996  29.263  0.00  0.00     0.181 C 
ENDBRANCH  16  21
ENDBRANCH   1  14
TORSDOF 3
ENDMDL
