MODEL 1
REMARK VINA RESULT:      -9.4      0.000      0.000
REMARK  4 active torsions:
REMARK  status: ('A' for Active; 'I' for Inactive)
REMARK    1  A    between atoms: C_2  and  S_1 
REMARK    2  A    between atoms: N_3  and  S_1 
REMARK    3  A    between atoms: C_5  and  C_6 
REMARK       I    between atoms: N_7  and  C_5 
REMARK    4  A    between atoms: C_15  and  N_7 
ROOT
ATOM      1  C   UNL d   1      52.544  33.199  53.159  0.00  0.00     0.115 A 
ATOM      2  C   UNL d   1      51.848  33.383  52.739  0.00  0.00     0.019 A 
ATOM      3  C   UNL d   1      51.613  34.169  52.650  0.00  0.00     0.059 A 
ATOM      4  C   UNL d   1      52.992  33.810  53.483  0.00  0.00     0.070 A 
ATOM      5  C   UNL d   1      52.072  34.774  52.981  0.00  0.00     0.006 A 
ATOM      6  C   UNL d   1      52.756  34.596  53.394  0.00  0.00     0.012 A 
ATOM      7 CL   UNL d   1      53.688  33.626  53.904  0.00  0.00    -0.082 Cl
ENDROOT
BRANCH   1   8
ATOM      8  S   UNL d   1      52.779  32.413  53.248  0.00  0.00     0.272 S 
ATOM      9  O   UNL d   1      53.131  32.434  52.498  0.00  0.00    -0.200 OA
ATOM     10  O   UNL d   1      52.431  32.393  53.991  0.00  0.00    -0.200 OA
BRANCH   8  11
ATOM     11  N   UNL d   1      53.013  31.633  53.337  0.00  0.00    -0.229 N 
ATOM     12  C   UNL d   1      52.468  31.078  52.963  0.00  0.00     0.092 A 
ATOM     13  C   UNL d   1      52.438  30.365  52.894  0.00  0.00     0.020 A 
ATOM     14  C   UNL d   1      52.999  29.824  53.201  0.00  0.00     0.002 A 
ATOM     15  C   UNL d   1      53.720  30.014  53.657  0.00  0.00     0.002 A 
ATOM     16  C   UNL d   1      54.011  30.819  53.893  0.00  0.00     0.020 A 
ATOM     17  C   UNL d   1      53.638  31.548  53.715  0.00  0.00     0.092 A 
ENDBRANCH   8  11
ENDBRANCH   1   8
BRANCH   3  18
ATOM     18  C   UNL d   1      50.926  34.355  52.235  0.00  0.00     0.279 C 
ATOM     19  N   UNL d   1      50.212  34.443  52.630  0.00  0.00    -0.206 NA
ATOM     20  O   UNL d   1      50.957  34.454  51.416  0.00  0.00    -0.265 OA
BRANCH  19  21
ATOM     21  C   UNL d   1      49.522  34.630  52.218  0.00  0.00     0.104 A 
ATOM     22  C   UNL d   1      49.349  34.244  51.524  0.00  0.00     0.118 A 
ATOM     23  N   UNL d   1      48.660  34.433  51.115  0.00  0.00    -0.241 NA
ATOM     24  C   UNL d   1      48.149  35.014  51.413  0.00  0.00     0.099 A 
ATOM     25  C   UNL d   1      48.328  35.401  52.114  0.00  0.00     0.022 A 
ATOM     26  C   UNL d   1      49.025  35.210  52.527  0.00  0.00     0.022 A 
ENDBRANCH  19  21
ENDBRANCH   3  18
TORSDOF 4
ENDMDL
MODEL 2
REMARK VINA RESULT:      -8.9      1.077      4.783
REMARK  4 active torsions:
REMARK  status: ('A' for Active; 'I' for Inactive)
REMARK    1  A    between atoms: C_2  and  S_1 
REMARK    2  A    between atoms: N_3  and  S_1 
REMARK    3  A    between atoms: C_5  and  C_6 
REMARK       I    between atoms: N_7  and  C_5 
REMARK    4  A    between atoms: C_15  and  N_7 
ROOT
ATOM      1  C   UNL d   1      51.697  33.811  52.884  0.00  0.00     0.115 A 
ATOM      2  C   UNL d   1      51.846  32.992  52.846  0.00  0.00     0.019 A 
ATOM      3  C   UNL d   1      52.583  32.694  53.066  0.00  0.00     0.059 A 
ATOM      4  C   UNL d   1      52.293  34.317  53.143  0.00  0.00     0.070 A 
ATOM      5  C   UNL d   1      53.175  33.214  53.325  0.00  0.00     0.006 A 
ATOM      6  C   UNL d   1      53.030  34.019  53.363  0.00  0.00     0.012 A 
ATOM      7 CL   UNL d   1      52.144  35.137  53.181  0.00  0.00    -0.082 Cl
ENDROOT
BRANCH   1   8
ATOM      8  S   UNL d   1      50.960  34.109  52.664  0.00  0.00     0.272 S 
ATOM      9  O   UNL d   1      50.640  33.847  53.382  0.00  0.00    -0.200 OA
ATOM     10  O   UNL d   1      51.277  34.369  51.952  0.00  0.00    -0.200 OA
BRANCH   8  11
ATOM     11  N   UNL d   1      50.227  34.405  52.445  0.00  0.00    -0.229 N 
ATOM     12  C   UNL d   1      50.022  34.215  51.629  0.00  0.00     0.092 A 
ATOM     13  C   UNL d   1      49.461  34.348  51.203  0.00  0.00     0.020 A 
ATOM     14  C   UNL d   1      48.776  34.778  51.423  0.00  0.00     0.002 A 
ATOM     15  C   UNL d   1      48.609  35.144  52.199  0.00  0.00     0.002 A 
ATOM     16  C   UNL d   1      49.130  35.138  52.919  0.00  0.00     0.020 A 
ATOM     17  C   UNL d   1      49.882  34.774  52.979  0.00  0.00     0.092 A 
ENDBRANCH   8  11
ENDBRANCH   1   8
BRANCH   3  18
ATOM     18  C   UNL d   1      52.735  31.886  53.030  0.00  0.00     0.279 C 
ATOM     19  N   UNL d   1      52.732  31.430  53.713  0.00  0.00    -0.206 NA
ATOM     20  O   UNL d   1      52.893  31.531  52.301  0.00  0.00    -0.265 OA
BRANCH  19  21
ATOM     21  C   UNL d   1      52.884  30.620  53.680  0.00  0.00     0.104 A 
ATOM     22  C   UNL d   1      52.307  30.110  53.417  0.00  0.00     0.118 A 
ATOM     23  N   UNL d   1      52.462  29.302  53.386  0.00  0.00    -0.241 NA
ATOM     24  C   UNL d   1      53.203  29.014  53.622  0.00  0.00     0.099 A 
ATOM     25  C   UNL d   1      53.782  29.533  53.887  0.00  0.00     0.022 A 
ATOM     26  C   UNL d   1      53.625  30.349  53.918  0.00  0.00     0.022 A 
ENDBRANCH  19  21
ENDBRANCH   3  18
TORSDOF 4
ENDMDL
MODEL 3
REMARK VINA RESULT:      -8.1      1.674      2.475
REMARK  4 active torsions:
REMARK  status: ('A' for Active; 'I' for Inactive)
REMARK    1  A    between atoms: C_2  and  S_1 
REMARK    2  A    between atoms: N_3  and  S_1 
REMARK    3  A    between atoms: C_5  and  C_6 
REMARK       I    between atoms: N_7  and  C_5 
REMARK    4  A    between atoms: C_15  and  N_7 
ROOT
ATOM      1  C   UNL d   1      52.938  32.680  53.506  0.00  0.00     0.115 A 
ATOM      2  C   UNL d   1      52.254  33.156  53.469  0.00  0.00     0.019 A 
ATOM      3  C   UNL d   1      51.569  32.868  53.110  0.00  0.00     0.059 A 
ATOM      4  C   UNL d   1      52.921  31.924  53.182  0.00  0.00     0.070 A 
ATOM      5  C   UNL d   1      51.565  32.105  52.786  0.00  0.00     0.006 A 
ATOM      6  C   UNL d   1      52.236  31.637  52.822  0.00  0.00     0.012 A 
ATOM      7 CL   UNL d   1      53.605  31.448  53.219  0.00  0.00    -0.082 Cl
ENDROOT
BRANCH   1   8
ATOM      8  S   UNL d   1      53.623  32.967  53.866  0.00  0.00     0.272 S 
ATOM      9  O   UNL d   1      53.824  33.363  53.166  0.00  0.00    -0.200 OA
ATOM     10  O   UNL d   1      53.423  32.575  54.559  0.00  0.00    -0.200 OA
BRANCH   8  11
ATOM     11  N   UNL d   1      54.304  33.252  54.223  0.00  0.00    -0.229 N 
ATOM     12  C   UNL d   1      54.207  33.376  55.071  0.00  0.00     0.092 A 
ATOM     13  C   UNL d   1      54.630  33.609  55.601  0.00  0.00     0.020 A 
ATOM     14  C   UNL d   1      55.428  33.852  55.514  0.00  0.00     0.002 A 
ATOM     15  C   UNL d   1      55.896  33.869  54.777  0.00  0.00     0.002 A 
ATOM     16  C   UNL d   1      55.628  33.633  53.963  0.00  0.00     0.020 A 
ATOM     17  C   UNL d   1      54.866  33.350  53.760  0.00  0.00     0.092 A 
ENDBRANCH   8  11
ENDBRANCH   1   8
BRANCH   3  18
ATOM     18  C   UNL d   1      50.891  33.334  53.070  0.00  0.00     0.279 C 
ATOM     19  N   UNL d   1      50.816  33.913  52.493  0.00  0.00    -0.206 NA
ATOM     20  O   UNL d   1      50.282  33.217  53.615  0.00  0.00    -0.265 OA
BRANCH  19  21
ATOM     21  C   UNL d   1      50.138  34.381  52.451  0.00  0.00     0.104 A 
ATOM     22  C   UNL d   1      49.951  34.878  53.066  0.00  0.00     0.118 A 
ATOM     23  N   UNL d   1      49.274  35.344  53.021  0.00  0.00    -0.241 NA
ATOM     24  C   UNL d   1      48.789  35.303  52.349  0.00  0.00     0.099 A 
ATOM     25  C   UNL d   1      48.982  34.800  51.730  0.00  0.00     0.022 A 
ATOM     26  C   UNL d   1      49.667  34.329  51.777  0.00  0.00     0.022 A 
ENDBRANCH  19  21
ENDBRANCH   3  18
TORSDOF 4
ENDMDL
MODEL 4
REMARK VINA RESULT:      -8.0      1.766      2.556
REMARK  4 active torsions:
REMARK  status: ('A' for Active; 'I' for Inactive)
REMARK    1  A    between atoms: C_2  and  S_1 
REMARK    2  A    between atoms: N_3  and  S_1 
REMARK    3  A    between atoms: C_5  and  C_6 
REMARK       I    between atoms: N_7  and  C_5 
REMARK    4  A    between atoms: C_15  and  N_7 
ROOT
ATOM      1  C   UNL d   1      51.542  34.185  53.021  0.00  0.00     0.115 A 
ATOM      2  C   UNL d   1      50.819  34.468  53.324  0.00  0.00     0.019 A 
ATOM      3  C   UNL d   1      50.185  34.612  52.816  0.00  0.00     0.059 A 
ATOM      4  C   UNL d   1      51.615  34.052  52.212  0.00  0.00     0.070 A 
ATOM      5  C   UNL d   1      50.271  34.474  52.003  0.00  0.00     0.006 A 
ATOM      6  C   UNL d   1      50.982  34.196  51.704  0.00  0.00     0.012 A 
ATOM      7 CL   UNL d   1      52.339  33.769  51.909  0.00  0.00    -0.082 Cl
ENDROOT
BRANCH   1   8
ATOM      8  S   UNL d   1      52.176  34.042  53.529  0.00  0.00     0.272 S 
ATOM      9  O   UNL d   1      52.484  34.792  53.357  0.00  0.00    -0.200 OA
ATOM     10  O   UNL d   1      51.871  33.299  53.700  0.00  0.00    -0.200 OA
BRANCH   8  11
ATOM     11  N   UNL d   1      52.806  33.899  54.034  0.00  0.00    -0.229 N 
ATOM     12  C   UNL d   1      53.060  33.075  54.023  0.00  0.00     0.092 A 
ATOM     13  C   UNL d   1      53.570  32.696  54.357  0.00  0.00     0.020 A 
ATOM     14  C   UNL d   1      54.115  33.003  54.915  0.00  0.00     0.002 A 
ATOM     15  C   UNL d   1      54.173  33.828  55.196  0.00  0.00     0.002 A 
ATOM     16  C   UNL d   1      53.667  34.517  54.952  0.00  0.00     0.020 A 
ATOM     17  C   UNL d   1      53.037  34.492  54.400  0.00  0.00     0.092 A 
ENDBRANCH   8  11
ENDBRANCH   1   8
BRANCH   3  18
ATOM     18  C   UNL d   1      49.469  34.891  53.110  0.00  0.00     0.279 C 
ATOM     19  N   UNL d   1      49.166  35.611  52.856  0.00  0.00    -0.206 NA
ATOM     20  O   UNL d   1      49.051  34.444  53.665  0.00  0.00    -0.265 OA
BRANCH  19  21
ATOM     21  C   UNL d   1      48.448  35.894  53.149  0.00  0.00     0.104 A 
ATOM     22  C   UNL d   1      48.404  36.174  53.911  0.00  0.00     0.118 A 
ATOM     23  N   UNL d   1      47.687  36.455  54.200  0.00  0.00    -0.241 NA
ATOM     24  C   UNL d   1      47.015  36.451  53.713  0.00  0.00     0.099 A 
ATOM     25  C   UNL d   1      47.065  36.168  52.944  0.00  0.00     0.022 A 
ATOM     26  C   UNL d   1      47.790  35.883  52.652  0.00  0.00     0.022 A 
ENDBRANCH  19  21
ENDBRANCH   3  18
TORSDOF 4
ENDMDL
MODEL 5
REMARK VINA RESULT:      -6.7      2.471      5.674
REMARK  4 active torsions:
REMARK  status: ('A' for Active; 'I' for Inactive)
REMARK    1  A    between atoms: C_2  and  S_1 
REMARK    2  A    between atoms: N_3  and  S_1 
REMARK    3  A    between atoms: C_5  and  C_6 
REMARK       I    between atoms: N_7  and  C_5 
REMARK    4  A    between atoms: C_15  and  N_7 
ROOT
ATOM      1  C   UNL d   1      48.946  34.997  52.302  0.00  0.00     0.115 A 
ATOM      2  C   UNL d   1      49.589  34.776  52.785  0.00  0.00     0.019 A 
ATOM      3  C   UNL d   1      50.228  34.366  52.462  0.00  0.00     0.059 A 
ATOM      4  C   UNL d   1      48.957  34.801  51.502  0.00  0.00     0.070 A 
ATOM      5  C   UNL d   1      50.227  34.174  51.655  0.00  0.00     0.006 A 
ATOM      6  C   UNL d   1      49.596  34.391  51.179  0.00  0.00     0.012 A 
ATOM      7 CL   UNL d   1      48.314  35.022  51.019  0.00  0.00    -0.082 Cl
ENDROOT
BRANCH   1   8
ATOM      8  S   UNL d   1      48.307  35.407  52.624  0.00  0.00     0.272 S 
ATOM      9  O   UNL d   1      47.808  34.769  52.448  0.00  0.00    -0.200 OA
ATOM     10  O   UNL d   1      48.801  36.039  52.799  0.00  0.00    -0.200 OA
BRANCH   8  11
ATOM     11  N   UNL d   1      47.672  35.815  52.945  0.00  0.00    -0.229 N 
ATOM     12  C   UNL d   1      47.757  35.949  53.792  0.00  0.00     0.092 A 
ATOM     13  C   UNL d   1      47.361  36.269  54.298  0.00  0.00     0.020 A 
ATOM     14  C   UNL d   1      46.620  36.639  54.172  0.00  0.00     0.002 A 
ATOM     15  C   UNL d   1      46.188  36.709  53.415  0.00  0.00     0.002 A 
ATOM     16  C   UNL d   1      46.441  36.404  52.620  0.00  0.00     0.020 A 
ATOM     17  C   UNL d   1      47.151  35.990  52.457  0.00  0.00     0.092 A 
ENDBRANCH   8  11
ENDBRANCH   1   8
BRANCH   3  18
ATOM     18  C   UNL d   1      50.864  34.145  52.935  0.00  0.00     0.279 C 
ATOM     19  N   UNL d   1      51.621  34.419  52.769  0.00  0.00    -0.206 NA
ATOM     20  O   UNL d   1      50.741  33.645  53.580  0.00  0.00    -0.265 OA
BRANCH  19  21
ATOM     21  C   UNL d   1      52.261  34.199  53.241  0.00  0.00     0.104 A 
ATOM     22  C   UNL d   1      52.565  33.447  53.187  0.00  0.00     0.118 A 
ATOM     23  N   UNL d   1      53.204  33.232  53.659  0.00  0.00    -0.241 NA
ATOM     24  C   UNL d   1      53.532  33.782  54.185  0.00  0.00     0.099 A 
ATOM     25  C   UNL d   1      53.222  34.541  54.236  0.00  0.00     0.022 A 
ATOM     26  C   UNL d   1      52.576  34.758  53.759  0.00  0.00     0.022 A 
ENDBRANCH  19  21
ENDBRANCH   3  18
TORSDOF 4
ENDMDL
