MODEL 1
REMARK VINA RESULT:       5.6      0.000      0.000
REMARK  6 active torsions:
REMARK  status: ('A' for Active; 'I' for Inactive)
REMARK    1  A    between atoms: N_3  and  S_1 
REMARK    2  A    between atoms: C_6  and  S_1 
REMARK    3  A    between atoms: N_2  and  C_5 
REMARK    4  A    between atoms: C_4  and  N_3 
REMARK    5  A    between atoms: C_5  and  C_4 
REMARK    6  A    between atoms: C_10  and  C_5 
ROOT
ATOM      1  C   UNL d   1     -42.133-122.624 -50.032  0.00  0.00     0.086 C 
ENDROOT
BRANCH   1   2
ATOM      2  N   UNL d   1     -42.937-122.415 -50.077  0.00  0.00    -0.300 N 
ATOM      3  C   UNL d   1     -43.519-122.964 -49.874  0.00  0.00     0.100 A 
ATOM      4  C   UNL d   1     -44.316-122.755 -49.918  0.00  0.00     0.100 A 
ATOM      5  N   UNL d   1     -44.529-122.001 -50.165  0.00  0.00    -0.299 N 
ATOM      6  C   UNL d   1     -43.947-121.453 -50.368  0.00  0.00     0.100 A 
ATOM      7  C   UNL d   1     -45.333-121.792 -50.209  0.00  0.00     0.100 C 
ATOM      8  C   UNL d   1     -43.153-121.657 -50.324  0.00  0.00     0.100 A 
ENDBRANCH   1   2
BRANCH   1   9
ATOM      9  C   UNL d   1     -41.669-122.606 -50.709  0.00  0.00     0.130 C 
BRANCH   9  10
ATOM     10  N   UNL d   1     -41.710-123.224 -51.253  0.00  0.00    -0.155 NA
BRANCH  10  11
ATOM     11  S   UNL d   1     -41.594-123.077 -52.057  0.00  0.00     0.285 S 
ATOM     12  O   UNL d   1     -41.921-123.817 -52.254  0.00  0.00    -0.198 OA
ATOM     13  O   UNL d   1     -41.262-122.329 -51.879  0.00  0.00    -0.198 OA
BRANCH  11  14
ATOM     14  C   UNL d   1     -41.476-122.927 -52.867  0.00  0.00     0.105 A 
ATOM     15  C   UNL d   1     -41.300-123.547 -53.381  0.00  0.00     0.014 A 
ATOM     16  C   UNL d   1     -41.183-123.400 -54.181  0.00  0.00     0.012 A 
ATOM     17  C   UNL d   1     -41.242-122.626 -54.473  0.00  0.00     0.058 A 
ATOM     18  C   UNL d   1     -41.417-122.005 -53.959  0.00  0.00     0.012 A 
ATOM     19 CL   UNL d   1     -41.124-122.472 -55.280  0.00  0.00    -0.082 Cl
ATOM     20  C   UNL d   1     -41.534-122.156 -53.156  0.00  0.00     0.014 A 
ENDBRANCH  11  14
ENDBRANCH  10  11
ENDBRANCH   9  10
ENDBRANCH   1   9
BRANCH   1  21
ATOM     21  C   UNL d   1     -41.804-122.849 -49.310  0.00  0.00     0.037 A 
ATOM     22  C   UNL d   1     -41.453-123.592 -49.230  0.00  0.00     0.100 A 
ATOM     23  N   UNL d   1     -41.123-123.817 -48.508  0.00  0.00    -0.242 NA
ATOM     24  C   UNL d   1     -41.145-123.299 -47.866  0.00  0.00     0.099 A 
ATOM     25  C   UNL d   1     -41.494-122.564 -47.949  0.00  0.00     0.021 A 
ATOM     26  C   UNL d   1     -41.823-122.339 -48.671  0.00  0.00     0.005 A 
ENDBRANCH   1  21
TORSDOF 6
ENDMDL
MODEL 2
REMARK VINA RESULT:       6.2      0.652      2.502
REMARK  6 active torsions:
REMARK  status: ('A' for Active; 'I' for Inactive)
REMARK    1  A    between atoms: N_3  and  S_1 
REMARK    2  A    between atoms: C_6  and  S_1 
REMARK    3  A    between atoms: N_2  and  C_5 
REMARK    4  A    between atoms: C_4  and  N_3 
REMARK    5  A    between atoms: C_5  and  C_4 
REMARK    6  A    between atoms: C_10  and  C_5 
ROOT
ATOM      1  C   UNL d   1     -42.575-122.374 -50.567  0.00  0.00     0.086 C 
ENDROOT
BRANCH   1   2
ATOM      2  N   UNL d   1     -42.211-122.714 -49.900  0.00  0.00    -0.300 N 
ATOM      3  C   UNL d   1     -41.603-122.314 -49.512  0.00  0.00     0.100 A 
ATOM      4  C   UNL d   1     -41.243-122.652 -48.851  0.00  0.00     0.100 A 
ATOM      5  N   UNL d   1     -41.493-123.385 -48.579  0.00  0.00    -0.299 N 
ATOM      6  C   UNL d   1     -42.102-123.785 -48.967  0.00  0.00     0.100 A 
ATOM      7  C   UNL d   1     -41.130-123.725 -47.912  0.00  0.00     0.100 C 
ATOM      8  C   UNL d   1     -42.461-123.451 -49.625  0.00  0.00     0.100 A 
ENDBRANCH   1   2
BRANCH   1   9
ATOM      9  C   UNL d   1     -42.136-122.244 -51.248  0.00  0.00     0.130 C 
BRANCH   9  10
ATOM     10  N   UNL d   1     -41.814-122.884 -51.659  0.00  0.00    -0.155 NA
BRANCH  10  11
ATOM     11  S   UNL d   1     -41.729-122.848 -52.479  0.00  0.00     0.285 S 
ATOM     12  O   UNL d   1     -42.209-123.522 -52.571  0.00  0.00    -0.198 OA
ATOM     13  O   UNL d   1     -41.243-122.170 -52.406  0.00  0.00    -0.198 OA
BRANCH  11  14
ATOM     14  C   UNL d   1     -41.642-122.811 -53.306  0.00  0.00     0.105 A 
ATOM     15  C   UNL d   1     -41.930-122.160 -53.723  0.00  0.00     0.014 A 
ATOM     16  C   UNL d   1     -41.845-122.122 -54.539  0.00  0.00     0.012 A 
ATOM     17  C   UNL d   1     -41.468-122.740 -54.946  0.00  0.00     0.058 A 
ATOM     18  C   UNL d   1     -41.180-123.391 -54.529  0.00  0.00     0.012 A 
ATOM     19 CL   UNL d   1     -41.380-122.706 -55.771  0.00  0.00    -0.082 Cl
ATOM     20  C   UNL d   1     -41.267-123.426 -53.709  0.00  0.00     0.014 A 
ENDBRANCH  11  14
ENDBRANCH  10  11
ENDBRANCH   9  10
ENDBRANCH   1   9
BRANCH   1  21
ATOM     21  C   UNL d   1     -43.373-122.170 -50.544  0.00  0.00     0.037 A 
ATOM     22  C   UNL d   1     -43.941-122.686 -50.849  0.00  0.00     0.100 A 
ATOM     23  N   UNL d   1     -44.740-122.481 -50.825  0.00  0.00    -0.242 NA
ATOM     24  C   UNL d   1     -44.971-121.760 -50.497  0.00  0.00     0.099 A 
ATOM     25  C   UNL d   1     -44.406-121.251 -50.196  0.00  0.00     0.021 A 
ATOM     26  C   UNL d   1     -43.608-121.456 -50.219  0.00  0.00     0.005 A 
ENDBRANCH   1  21
TORSDOF 6
ENDMDL
MODEL 3
REMARK VINA RESULT:       6.4      2.378      4.538
REMARK  6 active torsions:
REMARK  status: ('A' for Active; 'I' for Inactive)
REMARK    1  A    between atoms: N_3  and  S_1 
REMARK    2  A    between atoms: C_6  and  S_1 
REMARK    3  A    between atoms: N_2  and  C_5 
REMARK    4  A    between atoms: C_4  and  N_3 
REMARK    5  A    between atoms: C_5  and  C_4 
REMARK    6  A    between atoms: C_10  and  C_5 
ROOT
ATOM      1  C   UNL d   1     -41.667-122.396 -51.933  0.00  0.00     0.086 C 
ENDROOT
BRANCH   1   2
ATOM      2  N   UNL d   1     -41.544-121.574 -51.919  0.00  0.00    -0.300 N 
ATOM      3  C   UNL d   1     -41.262-121.209 -51.234  0.00  0.00     0.100 A 
ATOM      4  C   UNL d   1     -41.140-120.393 -51.222  0.00  0.00     0.100 A 
ATOM      5  N   UNL d   1     -41.300-119.945 -51.891  0.00  0.00    -0.299 N 
ATOM      6  C   UNL d   1     -41.581-120.310 -52.576  0.00  0.00     0.100 A 
ATOM      7  C   UNL d   1     -41.177-119.123 -51.877  0.00  0.00     0.100 C 
ATOM      8  C   UNL d   1     -41.704-121.122 -52.591  0.00  0.00     0.100 A 
ENDBRANCH   1   2
BRANCH   1   9
ATOM      9  C   UNL d   1     -41.693-122.817 -51.228  0.00  0.00     0.130 C 
BRANCH   9  10
ATOM     10  N   UNL d   1     -42.272-122.643 -50.666  0.00  0.00    -0.155 NA
BRANCH  10  11
ATOM     11  S   UNL d   1     -42.171-122.876 -49.881  0.00  0.00     0.285 S 
ATOM     12  O   UNL d   1     -41.363-122.677 -49.913  0.00  0.00    -0.198 OA
ATOM     13  O   UNL d   1     -42.981-123.082 -49.830  0.00  0.00    -0.198 OA
BRANCH  11  14
ATOM     14  C   UNL d   1     -42.070-123.112 -49.090  0.00  0.00     0.105 A 
ATOM     15  C   UNL d   1     -42.686-123.018 -48.549  0.00  0.00     0.014 A 
ATOM     16  C   UNL d   1     -42.588-123.251 -47.767  0.00  0.00     0.012 A 
ATOM     17  C   UNL d   1     -41.868-123.581 -47.520  0.00  0.00     0.058 A 
ATOM     18  C   UNL d   1     -41.252-123.675 -48.061  0.00  0.00     0.012 A 
ATOM     19 CL   UNL d   1     -41.764-123.817 -46.731  0.00  0.00    -0.082 Cl
ATOM     20  C   UNL d   1     -41.353-123.440 -48.846  0.00  0.00     0.014 A 
ENDBRANCH  11  14
ENDBRANCH  10  11
ENDBRANCH   9  10
ENDBRANCH   1   9
BRANCH   1  21
ATOM     21  C   UNL d   1     -41.762-122.788 -52.653  0.00  0.00     0.037 A 
ATOM     22  C   UNL d   1     -41.189-123.323 -52.910  0.00  0.00     0.100 A 
ATOM     23  N   UNL d   1     -41.284-123.715 -53.630  0.00  0.00    -0.242 NA
ATOM     24  C   UNL d   1     -41.952-123.571 -54.092  0.00  0.00     0.099 A 
ATOM     25  C   UNL d   1     -42.518-123.041 -53.834  0.00  0.00     0.021 A 
ATOM     26  C   UNL d   1     -42.423-122.649 -53.114  0.00  0.00     0.005 A 
ENDBRANCH   1  21
TORSDOF 6
ENDMDL
MODEL 4
REMARK VINA RESULT:       7.4      0.733      2.491
REMARK  6 active torsions:
REMARK  status: ('A' for Active; 'I' for Inactive)
REMARK    1  A    between atoms: N_3  and  S_1 
REMARK    2  A    between atoms: C_6  and  S_1 
REMARK    3  A    between atoms: N_2  and  C_5 
REMARK    4  A    between atoms: C_4  and  N_3 
REMARK    5  A    between atoms: C_5  and  C_4 
REMARK    6  A    between atoms: C_10  and  C_5 
ROOT
ATOM      1  C   UNL d   1     -42.360-123.045 -49.903  0.00  0.00     0.086 C 
ENDROOT
BRANCH   1   2
ATOM      2  N   UNL d   1     -42.050-123.075 -49.132  0.00  0.00    -0.300 N 
ATOM      3  C   UNL d   1     -41.645-122.425 -48.823  0.00  0.00     0.100 A 
ATOM      4  C   UNL d   1     -41.338-122.456 -48.058  0.00  0.00     0.100 A 
ATOM      5  N   UNL d   1     -41.436-123.134 -47.605  0.00  0.00    -0.299 N 
ATOM      6  C   UNL d   1     -41.841-123.783 -47.913  0.00  0.00     0.100 A 
ATOM      7  C   UNL d   1     -41.126-123.163 -46.833  0.00  0.00     0.100 C 
ATOM      8  C   UNL d   1     -42.147-123.756 -48.674  0.00  0.00     0.100 A 
ENDBRANCH   1   2
BRANCH   1   9
ATOM      9  C   UNL d   1     -41.897-123.283 -50.538  0.00  0.00     0.130 C 
BRANCH   9  10
ATOM     10  N   UNL d   1     -42.239-123.700 -51.163  0.00  0.00    -0.155 NA
BRANCH  10  11
ATOM     11  S   UNL d   1     -42.047-123.508 -51.942  0.00  0.00     0.285 S 
ATOM     12  O   UNL d   1     -41.248-123.404 -51.734  0.00  0.00    -0.198 OA
ATOM     13  O   UNL d   1     -42.846-123.608 -52.171  0.00  0.00    -0.198 OA
BRANCH  11  14
ATOM     14  C   UNL d   1     -41.856-123.315 -52.729  0.00  0.00     0.105 A 
ATOM     15  C   UNL d   1     -42.079-123.817 -53.344  0.00  0.00     0.014 A 
ATOM     16  C   UNL d   1     -41.891-123.627 -54.121  0.00  0.00     0.012 A 
ATOM     17  C   UNL d   1     -41.475-122.928 -54.288  0.00  0.00     0.058 A 
ATOM     18  C   UNL d   1     -41.252-122.426 -53.672  0.00  0.00     0.012 A 
ATOM     19 CL   UNL d   1     -41.283-122.732 -55.071  0.00  0.00    -0.082 Cl
ATOM     20  C   UNL d   1     -41.442-122.620 -52.893  0.00  0.00     0.014 A 
ENDBRANCH  11  14
ENDBRANCH  10  11
ENDBRANCH   9  10
ENDBRANCH   1   9
BRANCH   1  21
ATOM     21  C   UNL d   1     -43.130-122.778 -50.029  0.00  0.00     0.037 A 
ATOM     22  C   UNL d   1     -43.770-123.277 -49.880  0.00  0.00     0.100 A 
ATOM     23  N   UNL d   1     -44.540-123.009 -50.006  0.00  0.00    -0.242 NA
ATOM     24  C   UNL d   1     -44.670-122.242 -50.282  0.00  0.00     0.099 A 
ATOM     25  C   UNL d   1     -44.033-121.750 -50.429  0.00  0.00     0.021 A 
ATOM     26  C   UNL d   1     -43.263-122.018 -50.302  0.00  0.00     0.005 A 
ENDBRANCH   1  21
TORSDOF 6
ENDMDL
