MODEL 1
REMARK VINA RESULT:      24.3      0.000      0.000
REMARK  4 active torsions:
REMARK  status: ('A' for Active; 'I' for Inactive)
REMARK    1  A    between atoms: C_2  and  C_1 
REMARK       I    between atoms: N_6  and  C_2 
REMARK    2  A    between atoms: C_4  and  C_11 
REMARK    3  A    between atoms: N_8  and  N_6 
REMARK    4  A    between atoms: C_11  and  N_8 
ROOT
ATOM      1  C   UNL d   1     -55.376 -99.248 -43.987  0.00  0.00     0.300 C 
ATOM      2  O   UNL d   1     -54.713 -98.859 -43.687  0.00  0.00    -0.264 OA
ATOM      3  N   UNL d   1     -56.061 -98.821 -44.180  0.00  0.00    -0.105 NA
ENDROOT
BRANCH   3   4
ATOM      4  N   UNL d   1     -56.725 -99.208 -44.480  0.00  0.00    -0.143 NA
BRANCH   4   5
ATOM      5  C   UNL d   1     -57.385 -98.769 -44.756  0.00  0.00     0.126 C 
BRANCH   5   6
ATOM      6  C   UNL d   1     -58.090 -98.774 -44.337  0.00  0.00     0.060 A 
ATOM      7  C   UNL d   1     -58.821 -98.795 -44.736  0.00  0.00     0.197 A 
ATOM      8  O   UNL d   1     -58.832 -98.810 -45.554  0.00  0.00    -0.286 OA
ATOM      9  C   UNL d   1     -59.525 -98.800 -44.317  0.00  0.00     0.042 A 
ATOM     10  C   UNL d   1     -59.516 -98.785 -43.496  0.00  0.00     0.003 A 
ATOM     11  C   UNL d   1     -58.780 -98.764 -43.082  0.00  0.00     0.000 A 
ATOM     12  C   UNL d   1     -58.072 -98.759 -43.503  0.00  0.00     0.005 A 
ENDBRANCH   5   6
ENDBRANCH   4   5
ENDBRANCH   3   4
BRANCH   1  13
ATOM     13  C   UNL d   1     -55.360-100.066 -44.095  0.00  0.00     0.098 A 
ATOM     14  C   UNL d   1     -55.024-100.375 -44.783  0.00  0.00     0.200 A 
ATOM     15  O   UNL d   1     -54.713 -99.867 -45.347  0.00  0.00    -0.286 OA
ATOM     16  C   UNL d   1     -54.998-101.193 -44.910  0.00  0.00     0.042 A 
ATOM     17  C   UNL d   1     -55.310-101.702 -44.344  0.00  0.00     0.003 A 
ATOM     18  C   UNL d   1     -55.651-101.399 -43.645  0.00  0.00     0.000 A 
ATOM     19  C   UNL d   1     -55.679-100.588 -43.515  0.00  0.00     0.008 A 
ENDBRANCH   1  13
TORSDOF 4
ENDMDL
