MODEL 1
REMARK VINA RESULT:      18.0      0.000      0.000
REMARK  2 active torsions:
REMARK  status: ('A' for Active; 'I' for Inactive)
REMARK    1  A    between atoms: C_8  and  C_1 
REMARK    2  A    between atoms: N_5  and  C_8 
ROOT
ATOM      1  C   UNL d   1      46.283 -17.799  44.175  0.00  0.00     0.059 A 
ATOM      2  C   UNL d   1      46.388 -19.061  43.531  0.00  0.00     0.121 A 
ATOM      3  C   UNL d   1      46.326 -18.617  44.210  0.00  0.00     0.214 A 
ATOM      4  C   UNL d   1      46.408 -18.682  42.792  0.00  0.00     0.032 A 
ATOM      5  C   UNL d   1      46.366 -17.867  42.745  0.00  0.00     0.059 A 
ATOM      6  C   UNL d   1      46.303 -17.425  43.447  0.00  0.00     0.016 A 
ATOM      7  N   UNL d   1      46.430 -19.876  43.567  0.00  0.00    -0.241 NA
ATOM      8 CL   UNL d   1      46.387 -17.492  42.013  0.00  0.00    -0.082 Cl
ATOM      9  O   UNL d   1      46.305 -18.997  44.950  0.00  0.00    -0.285 OA
ATOM     10  C   UNL d   1      46.471 -19.131  42.115  0.00  0.00     0.004 A 
ATOM     11  C   UNL d   1      46.493 -20.328  42.885  0.00  0.00     0.099 A 
ATOM     12  C   UNL d   1      46.514 -19.954  42.156  0.00  0.00     0.021 A 
ENDROOT
BRANCH   1  13
ATOM     13  C   UNL d   1      46.219 -17.346  44.873  0.00  0.00     0.084 C 
BRANCH  13  14
ATOM     14  N   UNL d   1      45.844 -16.605  44.853  0.00  0.00    -0.302 N 
ATOM     15  C   UNL d   1      46.287 -15.932  44.735  0.00  0.00     0.080 A 
ATOM     16  C   UNL d   1      45.911 -15.190  44.716  0.00  0.00     0.018 A 
ATOM     17  C   UNL d   1      46.358 -14.507  44.596  0.00  0.00     0.002 A 
ATOM     18  C   UNL d   1      45.091 -15.142  44.816  0.00  0.00     0.003 A 
ATOM     19  C   UNL d   1      45.980 -13.761  44.577  0.00  0.00     0.000 A 
ATOM     20  C   UNL d   1      45.163 -13.711  44.677  0.00  0.00     0.000 A 
ATOM     21  C   UNL d   1      44.724 -14.390  44.795  0.00  0.00     0.000 A 
ATOM     22  C   UNL d   1      44.659 -15.817  44.933  0.00  0.00     0.019 A 
ATOM     23  C   UNL d   1      45.023 -16.565  44.955  0.00  0.00     0.080 A 
ENDBRANCH  13  14
ENDBRANCH   1  13
TORSDOF 2
ENDMDL
