MODEL 1
REMARK VINA RESULT:      47.1      0.000      0.000
REMARK  5 active torsions:
REMARK  status: ('A' for Active; 'I' for Inactive)
REMARK    1  A    between atoms: C_6  and  C_1 
REMARK    2  A    between atoms: C_14  and  N_3 
REMARK    3  A    between atoms: O_9  and  C_6 
REMARK    4  A    between atoms: C_15  and  O_9 
REMARK    5  A    between atoms: C_16  and  C_14 
ROOT
ATOM      1  C   UNL d   1     -51.696  25.947  33.344  0.00  0.00     0.120 A 
ATOM      2  C   UNL d   1     -51.458  26.738  33.332  0.00  0.00     0.177 A 
ATOM      3  N   UNL d   1     -50.634  26.752  33.322  0.00  0.00    -0.273 N 
ATOM      4  C   UNL d   1     -50.361  25.975  33.327  0.00  0.00     0.167 A 
ATOM      5  C   UNL d   1     -51.016  25.481  33.340  0.00  0.00     0.124 A 
ATOM      6  N   UNL d   1     -49.602  25.664  33.321  0.00  0.00    -0.225 NA
ATOM      7  N   UNL d   1     -50.910  24.667  33.348  0.00  0.00    -0.241 NA
ATOM      8  C   UNL d   1     -49.497  24.850  33.329  0.00  0.00     0.101 A 
ATOM      9  C   UNL d   1     -50.149  24.348  33.342  0.00  0.00     0.099 A 
ATOM     10  N   UNL d   1     -51.950  27.402  33.331  0.00  0.00    -0.128 N 
ATOM     11  C   UNL d   1     -48.738  24.540  33.323  0.00  0.00     0.021 A 
ATOM     12  C   UNL d   1     -50.040  23.537  33.349  0.00  0.00     0.021 A 
ATOM     13  C   UNL d   1     -48.629  23.714  33.330  0.00  0.00     0.002 A 
ATOM     14  C   UNL d   1     -49.282  23.225  33.343  0.00  0.00     0.002 A 
ENDROOT
BRANCH   1  15
ATOM     15  C   UNL d   1     -52.479  25.682  33.356  0.00  0.00     0.300 C 
ATOM     16  O   UNL d   1     -53.093  26.228  33.338  0.00  0.00    -0.259 OA
BRANCH  15  17
ATOM     17  O   UNL d   1     -52.647  24.872  33.387  0.00  0.00    -0.303 OA
BRANCH  17  18
ATOM     18  C   UNL d   1     -53.418  24.624  33.473  0.00  0.00     0.102 C 
ATOM     19  C   UNL d   1     -53.666  25.401  33.606  0.00  0.00     0.030 C 
ATOM     20  C   UNL d   1     -53.182  23.842  33.340  0.00  0.00     0.030 C 
ATOM     21  C   UNL d   1     -54.210  24.361  33.559  0.00  0.00     0.030 C 
ENDBRANCH  17  18
ENDBRANCH  15  17
ENDBRANCH   1  15
BRANCH   3  22
ATOM     22  C   UNL d   1     -50.160  27.424  33.309  0.00  0.00     0.083 C 
BRANCH  22  23
ATOM     23  C   UNL d   1     -49.857  27.720  34.018  0.00  0.00     0.019 C 
ATOM     24  C   UNL d   1     -49.103  28.061  34.029  0.00  0.00     0.002 C 
ENDBRANCH  22  23
ENDBRANCH   3  22
TORSDOF 5
ENDMDL
MODEL 2
REMARK VINA RESULT:      48.9      1.106      2.833
REMARK  5 active torsions:
REMARK  status: ('A' for Active; 'I' for Inactive)
REMARK    1  A    between atoms: C_6  and  C_1 
REMARK    2  A    between atoms: C_14  and  N_3 
REMARK    3  A    between atoms: O_9  and  C_6 
REMARK    4  A    between atoms: C_15  and  O_9 
REMARK    5  A    between atoms: C_16  and  C_14 
ROOT
ATOM      1  C   UNL d   1     -51.332  24.515  33.551  0.00  0.00     0.120 A 
ATOM      2  C   UNL d   1     -50.540  24.291  33.486  0.00  0.00     0.177 A 
ATOM      3  N   UNL d   1     -50.091  24.977  33.398  0.00  0.00    -0.273 N 
ATOM      4  C   UNL d   1     -50.600  25.624  33.408  0.00  0.00     0.167 A 
ATOM      5  C   UNL d   1     -51.364  25.337  33.502  0.00  0.00     0.124 A 
ATOM      6  N   UNL d   1     -50.460  26.429  33.344  0.00  0.00    -0.225 NA
ATOM      7  N   UNL d   1     -51.994  25.863  33.532  0.00  0.00    -0.241 NA
ATOM      8  C   UNL d   1     -51.090  26.954  33.373  0.00  0.00     0.101 A 
ATOM      9  C   UNL d   1     -51.859  26.674  33.468  0.00  0.00     0.099 A 
ATOM     10  N   UNL d   1     -50.241  23.520  33.504  0.00  0.00    -0.128 N 
ATOM     11  C   UNL d   1     -50.950  27.759  33.309  0.00  0.00     0.021 A 
ATOM     12  C   UNL d   1     -52.485  27.202  33.497  0.00  0.00     0.021 A 
ATOM     13  C   UNL d   1     -51.587  28.294  33.339  0.00  0.00     0.002 A 
ATOM     14  C   UNL d   1     -52.345  28.007  33.432  0.00  0.00     0.002 A 
ENDROOT
BRANCH   1  15
ATOM     15  C   UNL d   1     -51.970  23.998  33.646  0.00  0.00     0.300 C 
ATOM     16  O   UNL d   1     -51.932  23.242  33.327  0.00  0.00    -0.259 OA
BRANCH  15  17
ATOM     17  O   UNL d   1     -52.645  24.238  34.062  0.00  0.00    -0.303 OA
BRANCH  17  18
ATOM     18  C   UNL d   1     -53.275  23.727  34.134  0.00  0.00     0.102 C 
ATOM     19  C   UNL d   1     -53.159  23.680  34.952  0.00  0.00     0.030 C 
ATOM     20  C   UNL d   1     -53.401  23.766  33.318  0.00  0.00     0.030 C 
ATOM     21  C   UNL d   1     -53.926  23.201  34.201  0.00  0.00     0.030 C 
ENDBRANCH  17  18
ENDBRANCH  15  17
ENDBRANCH   1  15
BRANCH   3  22
ATOM     22  C   UNL d   1     -49.274  25.015  33.314  0.00  0.00     0.083 C 
BRANCH  22  23
ATOM     23  C   UNL d   1     -48.793  24.910  33.978  0.00  0.00     0.019 C 
ATOM     24  C   UNL d   1     -48.929  25.365  34.656  0.00  0.00     0.002 C 
ENDBRANCH  22  23
ENDBRANCH   3  22
TORSDOF 5
ENDMDL
