MODEL 1
REMARK VINA RESULT:      -5.4      0.000      0.000
REMARK  0 active torsions:
REMARK  status: ('A' for Active; 'I' for Inactive)
ROOT
ATOM      1  C   UNL d   1     -41.312-122.048 -52.529  0.00  0.00     0.166 A 
ATOM      2  C   UNL d   1     -41.383-122.831 -52.272  0.00  0.00     0.117 A 
ATOM      3  N   UNL d   1     -41.223-121.558 -51.864  0.00  0.00    -0.288 N 
ATOM      4  C   UNL d   1     -41.339-122.827 -51.446  0.00  0.00     0.037 A 
ATOM      5  N   UNL d   1     -41.334-121.860 -53.335  0.00  0.00    -0.225 NA
ATOM      6  C   UNL d   1     -41.242-122.048 -51.209  0.00  0.00     0.067 A 
ATOM      7  N   UNL d   1     -41.477-123.428 -52.824  0.00  0.00    -0.241 NA
ATOM      8  C   UNL d   1     -41.428-122.458 -53.888  0.00  0.00     0.101 A 
ATOM      9  C   UNL d   1     -41.499-123.246 -53.629  0.00  0.00     0.099 A 
ATOM     10  C   UNL d   1     -41.180-121.881 -50.390  0.00  0.00     0.018 A 
ATOM     11  C   UNL d   1     -41.377-123.456 -50.893  0.00  0.00     0.003 A 
ATOM     12  C   UNL d   1     -41.124-120.825 -51.485  0.00  0.00     0.101 C 
ATOM     13  C   UNL d   1     -41.317-123.285 -50.104  0.00  0.00     0.000 A 
ATOM     14  C   UNL d   1     -41.221-122.516 -49.864  0.00  0.00     0.002 A 
ATOM     15  C   UNL d   1     -41.590-123.810 -54.181  0.00  0.00     0.021 A 
ATOM     16  C   UNL d   1     -41.451-122.275 -54.693  0.00  0.00     0.021 A 
ATOM     17  C   UNL d   1     -41.344-123.812 -49.531  0.00  0.00     0.000 C 
ATOM     18  C   UNL d   1     -41.615-123.651 -54.986  0.00  0.00     0.002 A 
ATOM     19  C   UNL d   1     -41.544-122.870 -55.243  0.00  0.00     0.002 A 
ENDROOT
TORSDOF 0
ENDMDL
MODEL 2
REMARK VINA RESULT:      -4.1      1.092      3.656
REMARK  0 active torsions:
REMARK  status: ('A' for Active; 'I' for Inactive)
ROOT
ATOM      1  C   UNL d   1     -41.717-122.103 -50.964  0.00  0.00     0.166 A 
ATOM      2  C   UNL d   1     -41.851-122.862 -51.264  0.00  0.00     0.117 A 
ATOM      3  N   UNL d   1     -41.420-121.626 -51.576  0.00  0.00    -0.288 N 
ATOM      4  C   UNL d   1     -41.637-122.856 -52.063  0.00  0.00     0.037 A 
ATOM      5  N   UNL d   1     -41.876-121.922 -50.173  0.00  0.00    -0.225 NA
ATOM      6  C   UNL d   1     -41.377-122.100 -52.242  0.00  0.00     0.067 A 
ATOM      7  N   UNL d   1     -42.147-123.443 -50.769  0.00  0.00    -0.241 NA
ATOM      8  C   UNL d   1     -42.173-122.505 -49.677  0.00  0.00     0.101 A 
ATOM      9  C   UNL d   1     -42.308-123.269 -49.978  0.00  0.00     0.099 A 
ATOM     10  C   UNL d   1     -41.123-121.935 -53.023  0.00  0.00     0.018 A 
ATOM     11  C   UNL d   1     -41.656-123.465 -52.639  0.00  0.00     0.003 A 
ATOM     12  C   UNL d   1     -41.134-120.914 -51.895  0.00  0.00     0.101 C 
ATOM     13  C   UNL d   1     -41.409-123.297 -53.391  0.00  0.00     0.000 A 
ATOM     14  C   UNL d   1     -41.150-122.550 -53.573  0.00  0.00     0.002 A 
ATOM     15  C   UNL d   1     -42.595-123.817 -49.481  0.00  0.00     0.021 A 
ATOM     16  C   UNL d   1     -42.333-122.329 -48.886  0.00  0.00     0.021 A 
ATOM     17  C   UNL d   1     -41.396-123.807 -53.980  0.00  0.00     0.000 C 
ATOM     18  C   UNL d   1     -42.761-123.665 -48.692  0.00  0.00     0.002 A 
ATOM     19  C   UNL d   1     -42.628-122.908 -48.392  0.00  0.00     0.002 A 
ENDROOT
TORSDOF 0
ENDMDL
MODEL 3
REMARK VINA RESULT:      -2.7      0.833      3.794
REMARK  0 active torsions:
REMARK  status: ('A' for Active; 'I' for Inactive)
ROOT
ATOM      1  C   UNL d   1     -41.416-123.097 -52.576  0.00  0.00     0.166 A 
ATOM      2  C   UNL d   1     -41.749-122.341 -52.533  0.00  0.00     0.117 A 
ATOM      3  N   UNL d   1     -41.338-123.306 -53.376  0.00  0.00    -0.288 N 
ATOM      4  C   UNL d   1     -41.877-122.080 -53.308  0.00  0.00     0.037 A 
ATOM      5  N   UNL d   1     -41.220-123.516 -51.890  0.00  0.00    -0.225 NA
ATOM      6  C   UNL d   1     -41.624-122.676 -53.812  0.00  0.00     0.067 A 
ATOM      7  N   UNL d   1     -41.886-122.003 -51.800  0.00  0.00    -0.241 NA
ATOM      8  C   UNL d   1     -41.357-123.177 -51.156  0.00  0.00     0.101 A 
ATOM      9  C   UNL d   1     -41.691-122.416 -51.113  0.00  0.00     0.099 A 
ATOM     10  C   UNL d   1     -41.689-122.559 -54.639  0.00  0.00     0.018 A 
ATOM     11  C   UNL d   1     -42.199-121.363 -53.598  0.00  0.00     0.003 A 
ATOM     12  C   UNL d   1     -41.124-123.816 -53.996  0.00  0.00     0.101 C 
ATOM     13  C   UNL d   1     -42.259-121.259 -54.399  0.00  0.00     0.000 A 
ATOM     14  C   UNL d   1     -42.009-121.844 -54.902  0.00  0.00     0.002 A 
ATOM     15  C   UNL d   1     -41.815-122.107 -50.392  0.00  0.00     0.021 A 
ATOM     16  C   UNL d   1     -41.162-123.592 -50.469  0.00  0.00     0.021 A 
ATOM     17  C   UNL d   1     -42.545-120.622 -54.744  0.00  0.00     0.000 C 
ATOM     18  C   UNL d   1     -41.630-122.500 -49.696  0.00  0.00     0.002 A 
ATOM     19  C   UNL d   1     -41.298-123.254 -49.738  0.00  0.00     0.002 A 
ENDROOT
TORSDOF 0
ENDMDL
