MODEL 1
REMARK VINA RESULT:      21.6      0.000      0.000
REMARK  1 active torsions:
REMARK  status: ('A' for Active; 'I' for Inactive)
REMARK       I    between atoms: N_2  and  C_1 
REMARK       I    between atoms: N_4  and  C_1 
REMARK    1  A    between atoms: C_5  and  N_3 
ROOT
ATOM      1  C   UNL d   1      44.876 -14.850  44.712  0.00  0.00     0.340 C 
ATOM      2  N   UNL d   1      45.167 -15.613  44.519  0.00  0.00    -0.254 N 
ATOM      3  N   UNL d   1      45.737 -17.105  44.141  0.00  0.00    -0.301 N 
ATOM      4  N   UNL d   1      45.370 -14.185  44.664  0.00  0.00    -0.253 N 
ATOM      5  O   UNL d   1      44.082 -14.764  44.953  0.00  0.00    -0.245 OA
ATOM      6  C   UNL d   1      45.948 -15.700  44.281  0.00  0.00     0.104 A 
ATOM      7  C   UNL d   1      44.656 -16.267  44.572  0.00  0.00     0.104 A 
ATOM      8  C   UNL d   1      44.942 -17.015  44.383  0.00  0.00     0.100 A 
ATOM      9  C   UNL d   1      46.234 -16.448  44.092  0.00  0.00     0.100 A 
ATOM     10  O   UNL d   1      46.347 -12.865  44.571  0.00  0.00    -0.300 OA
ATOM     11  C   UNL d   1      45.071 -13.438  44.857  0.00  0.00     0.111 A 
ATOM     12  C   UNL d   1      46.152 -14.276  44.426  0.00  0.00     0.111 A 
ATOM     13  C   UNL d   1      46.646 -13.612  44.378  0.00  0.00     0.142 A 
ATOM     14  C   UNL d   1      45.563 -12.780  44.810  0.00  0.00     0.142 A 
ENDROOT
BRANCH   3  15
ATOM     15  C   UNL d   1      46.031 -17.853  43.949  0.00  0.00     0.064 A 
ATOM     16  C   UNL d   1      46.161 -18.040  43.160  0.00  0.00     0.018 A 
ATOM     17  C   UNL d   1      46.456 -18.787  42.965  0.00  0.00     0.001 A 
ATOM     18  C   UNL d   1      46.588 -18.981  42.174  0.00  0.00     0.000 C 
ATOM     19  C   UNL d   1      46.617 -19.342  43.565  0.00  0.00     0.000 A 
ATOM     20  C   UNL d   1      46.484 -19.148  44.355  0.00  0.00     0.001 A 
ATOM     21  C   UNL d   1      46.190 -18.399  44.546  0.00  0.00     0.018 A 
ATOM     22  C   UNL d   1      46.644 -19.697  44.952  0.00  0.00     0.000 C 
ENDBRANCH   3  15
TORSDOF 1
ENDMDL
