MODEL 1
REMARK VINA RESULT:      31.4      0.000      0.000
REMARK  5 active torsions:
REMARK  status: ('A' for Active; 'I' for Inactive)
REMARK    1  A    between atoms: C_7  and  N_1 
REMARK    2  A    between atoms: C_6  and  C_2 
REMARK    3  A    between atoms: C_8  and  C_6 
REMARK    4  A    between atoms: C_12  and  C_7 
REMARK    5  A    between atoms: C_9  and  C_8 
ROOT
ATOM      1  N   UNL d   1      13.679  13.087  -3.474  0.00  0.00    -0.289 N 
ATOM      2  C   UNL d   1      13.394  12.388  -2.971  0.00  0.00     0.148 A 
ATOM      3  N   UNL d   1      13.019  11.779  -3.541  0.00  0.00    -0.227 NA
ATOM      4  C   UNL d   1      13.484  12.920  -4.369  0.00  0.00     0.083 A 
ATOM      5  C   UNL d   1      13.070  12.100  -4.411  0.00  0.00     0.099 A 
ATOM      6  C   UNL d   1      13.629  13.403  -5.135  0.00  0.00     0.019 A 
ATOM      7  C   UNL d   1      12.811  11.781  -5.218  0.00  0.00     0.021 A 
ATOM      8  C   UNL d   1      13.361  13.063  -5.929  0.00  0.00     0.002 A 
ATOM      9  C   UNL d   1      12.947  12.242  -5.971  0.00  0.00     0.002 A 
ENDROOT
BRANCH   2  10
ATOM     10  C   UNL d   1      13.615  12.657  -2.270  0.00  0.00     0.037 C 
BRANCH  10  11
ATOM     11  C   UNL d   1      13.742  12.192  -1.634  0.00  0.00     0.003 C 
BRANCH  11  12
ATOM     12  C   UNL d   1      14.342  12.318  -1.102  0.00  0.00     0.000 A 
ATOM     13  C   UNL d   1      14.297  12.968  -0.593  0.00  0.00     0.000 A 
ATOM     14  C   UNL d   1      14.902  13.100  -0.054  0.00  0.00     0.000 A 
ATOM     15  C   UNL d   1      15.543  12.600  -0.014  0.00  0.00     0.000 A 
ATOM     16  C   UNL d   1      15.588  11.951  -0.523  0.00  0.00     0.000 A 
ATOM     17  C   UNL d   1      14.990  11.824  -1.053  0.00  0.00     0.000 A 
ENDBRANCH  11  12
ENDBRANCH  10  11
ENDBRANCH   2  10
BRANCH   1  18
ATOM     18  C   UNL d   1      13.952  13.732  -3.861  0.00  0.00     0.082 C 
BRANCH  18  19
ATOM     19  C   UNL d   1      13.886  14.467  -3.481  0.00  0.00     0.018 C 
ATOM     20  C   UNL d   1      13.359  15.022  -3.782  0.00  0.00     0.002 C 
ATOM     21  C   UNL d   1      14.110  14.977  -2.888  0.00  0.00     0.002 C 
ENDBRANCH  18  19
ENDBRANCH   1  18
TORSDOF 5
ENDMDL
MODEL 2
REMARK VINA RESULT:      33.4      1.534      2.694
REMARK  5 active torsions:
REMARK  status: ('A' for Active; 'I' for Inactive)
REMARK    1  A    between atoms: C_7  and  N_1 
REMARK    2  A    between atoms: C_6  and  C_2 
REMARK    3  A    between atoms: C_8  and  C_6 
REMARK    4  A    between atoms: C_12  and  C_7 
REMARK    5  A    between atoms: C_9  and  C_8 
ROOT
ATOM      1  N   UNL d   1      14.129  13.078  -2.438  0.00  0.00    -0.289 N 
ATOM      2  C   UNL d   1      14.184  13.981  -2.494  0.00  0.00     0.148 A 
ATOM      3  N   UNL d   1      13.780  14.229  -3.276  0.00  0.00    -0.227 NA
ATOM      4  C   UNL d   1      13.688  12.750  -3.189  0.00  0.00     0.083 A 
ATOM      5  C   UNL d   1      13.469  13.473  -3.715  0.00  0.00     0.099 A 
ATOM      6  C   UNL d   1      13.463  11.902  -3.454  0.00  0.00     0.019 A 
ATOM      7  C   UNL d   1      13.030  13.331  -4.494  0.00  0.00     0.021 A 
ATOM      8  C   UNL d   1      13.024  11.786  -4.237  0.00  0.00     0.002 A 
ATOM      9  C   UNL d   1      12.805  12.509  -4.763  0.00  0.00     0.002 A 
ENDROOT
BRANCH   2  10
ATOM     10  C   UNL d   1      14.564  14.113  -1.822  0.00  0.00     0.037 C 
BRANCH  10  11
ATOM     11  C   UNL d   1      14.392  14.711  -1.322  0.00  0.00     0.003 C 
BRANCH  11  12
ATOM     12  C   UNL d   1      14.956  15.109  -0.894  0.00  0.00     0.000 A 
ATOM     13  C   UNL d   1      15.505  14.676  -0.455  0.00  0.00     0.000 A 
ATOM     14  C   UNL d   1      16.077  15.073  -0.019  0.00  0.00     0.000 A 
ATOM     15  C   UNL d   1      16.109  15.887  -0.017  0.00  0.00     0.000 A 
ATOM     16  C   UNL d   1      15.560  16.320  -0.456  0.00  0.00     0.000 A 
ATOM     17  C   UNL d   1      14.998  15.924  -0.884  0.00  0.00     0.000 A 
ENDBRANCH  11  12
ENDBRANCH  10  11
ENDBRANCH   2  10
BRANCH   1  18
ATOM     18  C   UNL d   1      14.113  12.285  -2.330  0.00  0.00     0.082 C 
BRANCH  18  19
ATOM     19  C   UNL d   1      14.280  11.995  -1.570  0.00  0.00     0.018 C 
ATOM     20  C   UNL d   1      15.056  11.789  -1.387  0.00  0.00     0.002 C 
ATOM     21  C   UNL d   1      14.032  11.787  -0.825  0.00  0.00     0.002 C 
ENDBRANCH  18  19
ENDBRANCH   1  18
TORSDOF 5
ENDMDL
