MODEL 1
REMARK VINA RESULT:      19.0      0.000      0.000
REMARK  6 active torsions:
REMARK  status: ('A' for Active; 'I' for Inactive)
REMARK    1  A    between atoms: N_2  and  C_1 
REMARK       I    between atoms: C_4  and  N_2 
REMARK    2  A    between atoms: C_6  and  C_4 
REMARK    3  A    between atoms: C_9  and  C_6 
REMARK    4  A    between atoms: C_8  and  O_15 
REMARK    5  A    between atoms: O_15  and  C_9 
REMARK    6  A    between atoms: O_17  and  C_10 
ROOT
ATOM      1  C   UNL d   1      12.776  12.036  -3.638  0.00  0.00     0.128 C 
ENDROOT
BRANCH   1   2
ATOM      2  C   UNL d   1      13.492  11.801  -3.289  0.00  0.00     0.089 C 
BRANCH   2   3
ATOM      3  C   UNL d   1      13.569  11.809  -2.467  0.00  0.00     0.283 C 
ATOM      4  N   UNL d   1      14.321  11.836  -2.132  0.00  0.00    -0.183 NA
ATOM      5  O   UNL d   1      12.899  11.791  -1.988  0.00  0.00    -0.265 OA
BRANCH   4   6
ATOM      6  C   UNL d   1      14.397  11.845  -1.306  0.00  0.00     0.197 A 
ATOM      7  N   UNL d   1      15.096  11.780  -0.878  0.00  0.00    -0.219 NA
ATOM      8  C   UNL d   1      14.912  11.815  -0.082  0.00  0.00     0.108 A 
ATOM      9  C   UNL d   1      14.091  11.903  -0.015  0.00  0.00     0.059 A 
ATOM     10  S   UNL d   1      13.771  11.922  -0.771  0.00  0.00    -0.046 SA
ENDBRANCH   4   6
ENDBRANCH   2   3
ENDBRANCH   1   2
BRANCH   1  11
ATOM     11  O   UNL d   1      12.983  12.296  -4.391  0.00  0.00    -0.305 OA
BRANCH  11  12
ATOM     12  C   UNL d   1      13.139  13.094  -4.520  0.00  0.00     0.100 A 
ATOM     13  C   UNL d   1      12.769  13.668  -4.053  0.00  0.00     0.027 A 
ATOM     14  C   UNL d   1      12.924  14.466  -4.182  0.00  0.00     0.026 A 
ATOM     15  C   UNL d   1      13.448  14.695  -4.777  0.00  0.00     0.094 A 
ATOM     16  C   UNL d   1      13.817  14.126  -5.242  0.00  0.00     0.026 A 
ATOM     17  C   UNL d   1      13.663  13.323  -5.115  0.00  0.00     0.027 A 
BRANCH  15  18
ATOM     18  O   UNL d   1      13.602  15.501  -4.903  0.00  0.00    -0.328 OA
ATOM     19  C   UNL d   1      14.053  15.927  -4.361  0.00  0.00     0.181 C 
ENDBRANCH  15  18
ENDBRANCH  11  12
ENDBRANCH   1  11
TORSDOF 6
ENDMDL
