MODEL 1
REMARK VINA RESULT:       1.3      0.000      0.000
REMARK  3 active torsions:
REMARK  status: ('A' for Active; 'I' for Inactive)
REMARK    1  A    between atoms: N_2  and  S_1 
REMARK    2  A    between atoms: N_3  and  S_1 
REMARK    3  A    between atoms: C_6  and  N_2 
ROOT
ATOM      1  C   UNL d   1      24.277  12.389  -1.503  0.00  0.00     0.095 A 
ATOM      2  C   UNL d   1      24.412  12.365  -3.169  0.00  0.00     0.000 A 
ATOM      3  C   UNL d   1      23.917  12.981  -1.956  0.00  0.00     0.020 A 
ATOM      4  C   UNL d   1      24.699  11.792  -1.875  0.00  0.00     0.020 A 
ATOM      5  C   UNL d   1      23.986  12.969  -2.803  0.00  0.00     0.002 A 
ATOM      6  C   UNL d   1      24.767  11.779  -2.722  0.00  0.00     0.002 A 
ATOM      7  C   UNL d   1      24.478  12.352  -3.992  0.00  0.00     0.000 C 
ENDROOT
BRANCH   1   8
ATOM      8  N   UNL d   1      24.210  12.401  -0.682  0.00  0.00    -0.144 NA
BRANCH   8   9
ATOM      9  S   UNL d   1      23.486  12.589  -0.333  0.00  0.00     0.351 S 
ATOM     10  O   UNL d   1      23.268  11.797  -0.348  0.00  0.00    -0.180 OA
ATOM     11  O   UNL d   1      22.751  12.357  -0.038  0.00  0.00    -0.180 OA
BRANCH   9  12
ATOM     12  N   UNL d   1      23.314  13.374  -0.145  0.00  0.00    -0.212 N 
ATOM     13  C   UNL d   1      22.527  13.617  -0.088  0.00  0.00     0.113 C 
ATOM     14  C   UNL d   1      23.927  13.907  -0.016  0.00  0.00     0.113 C 
ENDBRANCH   9  12
ENDBRANCH   8   9
ENDBRANCH   1   8
TORSDOF 3
ENDMDL
