MODEL 1
REMARK VINA RESULT:      45.1      0.000      0.000
REMARK  4 active torsions:
REMARK  status: ('A' for Active; 'I' for Inactive)
REMARK    1  A    between atoms: N_8  and  C_1 
REMARK    2  A    between atoms: C_13  and  N_4 
REMARK    3  A    between atoms: C_6  and  N_8 
REMARK    4  A    between atoms: C_14  and  C_9 
ROOT
ATOM      1  C   UNL d   1      15.000  12.840  -0.636  0.00  0.00     0.135 A 
ATOM      2  C   UNL d   1      14.660  13.597  -0.656  0.00  0.00     0.296 A 
ATOM      3  N   UNL d   1      15.951  13.723  -0.355  0.00  0.00    -0.238 N 
ATOM      4  N   UNL d   1      15.250  14.142  -0.481  0.00  0.00    -0.209 N 
ATOM      5  C   UNL d   1      15.787  12.929  -0.452  0.00  0.00     0.102 A 
ATOM      6  O   UNL d   1      13.877  13.768  -0.820  0.00  0.00    -0.264 OA
ATOM      7  C   UNL d   1      16.678  14.049  -0.166  0.00  0.00     0.120 C 
ATOM      8  C   UNL d   1      16.340  12.313  -0.373  0.00  0.00     0.022 C 
ENDROOT
BRANCH   1   9
ATOM      9  N   UNL d   1      14.603  12.130  -0.779  0.00  0.00    -0.329 N 
ATOM     10  H   UNL d   1      14.753  11.472  -0.300  0.00  0.00     0.168 HD
BRANCH   9  11
ATOM     11  C   UNL d   1      14.064  12.075  -1.392  0.00  0.00     0.172 A 
ATOM     12  N   UNL d   1      14.186  12.299  -2.170  0.00  0.00    -0.222 NA
ATOM     13  C   UNL d   1      13.492  12.144  -2.593  0.00  0.00     0.090 A 
ATOM     14  C   UNL d   1      12.947  11.826  -2.073  0.00  0.00     0.057 A 
ATOM     15  S   UNL d   1      13.298  11.781  -1.324  0.00  0.00    -0.048 SA
BRANCH  13  16
ATOM     16  C   UNL d   1      13.379  12.287  -3.394  0.00  0.00     0.018 A 
ATOM     17  C   UNL d   1      13.753  12.921  -3.769  0.00  0.00     0.002 A 
ATOM     18  C   UNL d   1      13.632  13.055  -4.571  0.00  0.00     0.000 A 
ATOM     19  C   UNL d   1      13.140  12.559  -4.999  0.00  0.00     0.000 A 
ATOM     20  C   UNL d   1      12.769  11.934  -4.640  0.00  0.00     0.000 A 
ATOM     21  C   UNL d   1      12.879  11.785  -3.834  0.00  0.00     0.002 A 
ENDBRANCH  13  16
ENDBRANCH   9  11
ENDBRANCH   1   9
BRANCH   4  22
ATOM     22  C   UNL d   1      15.163  14.956  -0.439  0.00  0.00     0.085 A 
ATOM     23  C   UNL d   1      14.513  15.286  -0.052  0.00  0.00     0.019 A 
ATOM     24  C   UNL d   1      14.435  16.105  -0.015  0.00  0.00     0.002 A 
ATOM     25  C   UNL d   1      15.002  16.592  -0.363  0.00  0.00     0.000 A 
ATOM     26  C   UNL d   1      15.652  16.262  -0.750  0.00  0.00     0.002 A 
ATOM     27  C   UNL d   1      15.735  15.446  -0.790  0.00  0.00     0.019 A 
ENDBRANCH   4  22
TORSDOF 4
ENDMDL
