MODEL 1
REMARK VINA RESULT:      -9.1      0.000      0.000
REMARK  1 active torsions:
REMARK  status: ('A' for Active; 'I' for Inactive)
REMARK    1  A    between atoms: C_2  and  N_1 
ROOT
ATOM      1  C   UNL d   1      53.711  33.130  54.146  0.00  0.00     0.129 A 
ATOM      2  C   UNL d   1      53.430  32.476  53.727  0.00  0.00     0.043 A 
ATOM      3  C   UNL d   1      52.809  32.569  53.186  0.00  0.00     0.123 A 
ATOM      4  C   UNL d   1      52.476  33.314  53.067  0.00  0.00     0.224 A 
ATOM      5  C   UNL d   1      53.377  33.867  54.025  0.00  0.00     0.038 A 
ATOM      6  C   UNL d   1      52.757  33.959  53.483  0.00  0.00     0.100 A 
ATOM      7  N   UNL d   1      52.528  31.920  52.769  0.00  0.00    -0.241 NA
ATOM      8  O   UNL d   1      51.861  33.406  52.531  0.00  0.00    -0.284 OA
ATOM      9 CL   UNL d   1      52.424  34.700  53.364  0.00  0.00    -0.079 Cl
ATOM     10  C   UNL d   1      53.763  31.735  53.847  0.00  0.00     0.005 A 
ATOM     11  C   UNL d   1      52.862  31.170  52.886  0.00  0.00     0.099 A 
ATOM     12  C   UNL d   1      53.482  31.078  53.428  0.00  0.00     0.021 A 
ENDROOT
BRANCH   1  13
ATOM     13  N   UNL d   1      54.325  33.038  54.682  0.00  0.00    -0.114 N 
ATOM     14  O   UNL d   1      54.169  32.805  55.455  0.00  0.00    -0.532 OA
ATOM     15  O   UNL d   1      55.099  33.180  54.448  0.00  0.00    -0.532 OA
ENDBRANCH   1  13
TORSDOF 1
ENDMDL
MODEL 2
REMARK VINA RESULT:      -9.0      1.295      2.091
REMARK  1 active torsions:
REMARK  status: ('A' for Active; 'I' for Inactive)
REMARK    1  A    between atoms: C_2  and  N_1 
ROOT
ATOM      1  C   UNL d   1      53.947  32.629  54.200  0.00  0.00     0.129 A 
ATOM      2  C   UNL d   1      53.371  33.085  53.824  0.00  0.00     0.043 A 
ATOM      3  C   UNL d   1      52.864  32.734  53.269  0.00  0.00     0.123 A 
ATOM      4  C   UNL d   1      52.939  31.931  53.096  0.00  0.00     0.224 A 
ATOM      5  C   UNL d   1      54.017  31.833  54.025  0.00  0.00     0.038 A 
ATOM      6  C   UNL d   1      53.511  31.482  53.470  0.00  0.00     0.100 A 
ATOM      7  N   UNL d   1      52.291  33.186  52.894  0.00  0.00    -0.241 NA
ATOM      8  O   UNL d   1      52.437  31.584  52.547  0.00  0.00    -0.284 OA
ATOM      9 CL   UNL d   1      53.583  30.684  53.296  0.00  0.00    -0.079 Cl
ATOM     10  C   UNL d   1      53.299  33.884  53.998  0.00  0.00     0.005 A 
ATOM     11  C   UNL d   1      52.215  33.993  53.067  0.00  0.00     0.099 A 
ATOM     12  C   UNL d   1      52.721  34.344  53.621  0.00  0.00     0.021 A 
ENDROOT
BRANCH   1  13
ATOM     13  N   UNL d   1      54.448  32.976  54.749  0.00  0.00    -0.114 N 
ATOM     14  O   UNL d   1      55.147  33.335  54.504  0.00  0.00    -0.532 OA
ATOM     15  O   UNL d   1      54.254  32.966  55.546  0.00  0.00    -0.532 OA
ENDBRANCH   1  13
TORSDOF 1
ENDMDL
MODEL 3
REMARK VINA RESULT:      -8.7      1.524      2.650
REMARK  1 active torsions:
REMARK  status: ('A' for Active; 'I' for Inactive)
REMARK    1  A    between atoms: C_2  and  N_1 
ROOT
ATOM      1  C   UNL d   1      53.075  32.630  53.609  0.00  0.00     0.129 A 
ATOM      2  C   UNL d   1      52.755  33.385  53.516  0.00  0.00     0.043 A 
ATOM      3  C   UNL d   1      53.015  34.006  54.001  0.00  0.00     0.123 A 
ATOM      4  C   UNL d   1      53.593  33.864  54.573  0.00  0.00     0.224 A 
ATOM      5  C   UNL d   1      53.647  32.495  54.178  0.00  0.00     0.038 A 
ATOM      6  C   UNL d   1      53.907  33.115  54.662  0.00  0.00     0.100 A 
ATOM      7  N   UNL d   1      52.699  34.757  53.910  0.00  0.00    -0.241 NA
ATOM      8  O   UNL d   1      53.850  34.479  55.053  0.00  0.00    -0.284 OA
ATOM      9 CL   UNL d   1      54.481  32.977  55.232  0.00  0.00    -0.079 Cl
ATOM     10  C   UNL d   1      52.181  33.522  52.946  0.00  0.00     0.005 A 
ATOM     11  C   UNL d   1      52.119  34.901  53.336  0.00  0.00     0.099 A 
ATOM     12  C   UNL d   1      51.859  34.280  52.851  0.00  0.00     0.021 A 
ENDROOT
BRANCH   1  13
ATOM     13  N   UNL d   1      52.817  32.016  53.130  0.00  0.00    -0.114 N 
ATOM     14  O   UNL d   1      52.170  31.559  53.353  0.00  0.00    -0.532 OA
ATOM     15  O   UNL d   1      53.205  31.854  52.425  0.00  0.00    -0.532 OA
ENDBRANCH   1  13
TORSDOF 1
ENDMDL
MODEL 4
REMARK VINA RESULT:      -8.6      1.486      2.206
REMARK  1 active torsions:
REMARK  status: ('A' for Active; 'I' for Inactive)
REMARK    1  A    between atoms: C_2  and  N_1 
ROOT
ATOM      1  C   UNL d   1      52.780  32.943  53.401  0.00  0.00     0.129 A 
ATOM      2  C   UNL d   1      53.328  33.186  53.968  0.00  0.00     0.043 A 
ATOM      3  C   UNL d   1      53.324  33.971  54.235  0.00  0.00     0.123 A 
ATOM      4  C   UNL d   1      52.773  34.505  53.931  0.00  0.00     0.224 A 
ATOM      5  C   UNL d   1      52.236  33.476  53.103  0.00  0.00     0.038 A 
ATOM      6  C   UNL d   1      52.232  34.260  53.370  0.00  0.00     0.100 A 
ATOM      7  N   UNL d   1      53.868  34.215  54.799  0.00  0.00    -0.241 NA
ATOM      8  O   UNL d   1      52.769  35.282  54.196  0.00  0.00    -0.284 OA
ATOM      9 CL   UNL d   1      51.685  34.793  53.069  0.00  0.00    -0.079 Cl
ATOM     10  C   UNL d   1      53.875  32.653  54.268  0.00  0.00     0.005 A 
ATOM     11  C   UNL d   1      54.422  33.681  55.105  0.00  0.00     0.099 A 
ATOM     12  C   UNL d   1      54.426  32.896  54.838  0.00  0.00     0.021 A 
ENDROOT
BRANCH   1  13
ATOM     13  N   UNL d   1      52.783  32.166  53.137  0.00  0.00    -0.114 N 
ATOM     14  O   UNL d   1      52.321  31.598  53.513  0.00  0.00    -0.532 OA
ATOM     15  O   UNL d   1      53.249  31.952  52.495  0.00  0.00    -0.532 OA
ENDBRANCH   1  13
TORSDOF 1
ENDMDL
MODEL 5
REMARK VINA RESULT:      -8.5      1.487      2.704
REMARK  1 active torsions:
REMARK  status: ('A' for Active; 'I' for Inactive)
REMARK    1  A    between atoms: C_2  and  N_1 
ROOT
ATOM      1  C   UNL d   1      52.581  33.193  53.404  0.00  0.00     0.129 A 
ATOM      2  C   UNL d   1      53.192  33.209  53.959  0.00  0.00     0.043 A 
ATOM      3  C   UNL d   1      53.654  32.532  54.084  0.00  0.00     0.123 A 
ATOM      4  C   UNL d   1      53.500  31.846  53.653  0.00  0.00     0.224 A 
ATOM      5  C   UNL d   1      52.433  32.510  52.979  0.00  0.00     0.038 A 
ATOM      6  C   UNL d   1      52.895  31.833  53.104  0.00  0.00     0.100 A 
ATOM      7  N   UNL d   1      54.262  32.547  54.635  0.00  0.00    -0.241 NA
ATOM      8  O   UNL d   1      53.958  31.175  53.777  0.00  0.00    -0.284 OA
ATOM      9 CL   UNL d   1      52.744  31.149  52.677  0.00  0.00    -0.079 Cl
ATOM     10  C   UNL d   1      53.342  33.894  54.386  0.00  0.00     0.005 A 
ATOM     11  C   UNL d   1      54.417  33.236  55.069  0.00  0.00     0.099 A 
ATOM     12  C   UNL d   1      53.955  33.912  54.944  0.00  0.00     0.021 A 
ENDROOT
BRANCH   1  13
ATOM     13  N   UNL d   1      52.124  33.862  53.280  0.00  0.00    -0.114 N 
ATOM     14  O   UNL d   1      52.378  34.448  52.760  0.00  0.00    -0.532 OA
ATOM     15  O   UNL d   1      51.409  33.951  53.674  0.00  0.00    -0.532 OA
ENDBRANCH   1  13
TORSDOF 1
ENDMDL
MODEL 6
REMARK VINA RESULT:      -8.5      1.803      2.469
REMARK  1 active torsions:
REMARK  status: ('A' for Active; 'I' for Inactive)
REMARK    1  A    between atoms: C_2  and  N_1 
ROOT
ATOM      1  C   UNL d   1      53.242  34.656  54.384  0.00  0.00     0.129 A 
ATOM      2  C   UNL d   1      52.793  34.255  53.819  0.00  0.00     0.043 A 
ATOM      3  C   UNL d   1      52.874  33.435  53.733  0.00  0.00     0.123 A 
ATOM      4  C   UNL d   1      53.404  33.023  54.214  0.00  0.00     0.224 A 
ATOM      5  C   UNL d   1      53.765  34.244  54.857  0.00  0.00     0.038 A 
ATOM      6  C   UNL d   1      53.847  33.423  54.772  0.00  0.00     0.100 A 
ATOM      7  N   UNL d   1      52.428  33.035  53.172  0.00  0.00    -0.241 NA
ATOM      8  O   UNL d   1      53.484  32.210  54.129  0.00  0.00    -0.284 OA
ATOM      9 CL   UNL d   1      54.373  33.011  55.249  0.00  0.00    -0.079 Cl
ATOM     10  C   UNL d   1      52.267  34.668  53.342  0.00  0.00     0.005 A 
ATOM     11  C   UNL d   1      51.896  33.447  52.689  0.00  0.00     0.099 A 
ATOM     12  C   UNL d   1      51.815  34.267  52.774  0.00  0.00     0.021 A 
ENDROOT
BRANCH   1  13
ATOM     13  N   UNL d   1      53.162  35.468  54.468  0.00  0.00    -0.114 N 
ATOM     14  O   UNL d   1      52.574  35.779  54.954  0.00  0.00    -0.532 OA
ATOM     15  O   UNL d   1      53.668  35.975  54.067  0.00  0.00    -0.532 OA
ENDBRANCH   1  13
TORSDOF 1
ENDMDL
MODEL 7
REMARK VINA RESULT:      -8.4      0.964      2.255
REMARK  1 active torsions:
REMARK  status: ('A' for Active; 'I' for Inactive)
REMARK    1  A    between atoms: C_2  and  N_1 
ROOT
ATOM      1  C   UNL d   1      52.429  33.325  53.554  0.00  0.00     0.129 A 
ATOM      2  C   UNL d   1      52.790  32.584  53.506  0.00  0.00     0.043 A 
ATOM      3  C   UNL d   1      53.463  32.422  53.963  0.00  0.00     0.123 A 
ATOM      4  C   UNL d   1      53.767  33.002  54.464  0.00  0.00     0.224 A 
ATOM      5  C   UNL d   1      52.735  33.897  54.052  0.00  0.00     0.038 A 
ATOM      6  C   UNL d   1      53.407  33.735  54.510  0.00  0.00     0.100 A 
ATOM      7  N   UNL d   1      53.823  31.686  53.916  0.00  0.00    -0.241 NA
ATOM      8  O   UNL d   1      54.433  32.842  54.917  0.00  0.00    -0.284 OA
ATOM      9 CL   UNL d   1      53.712  34.311  55.009  0.00  0.00    -0.079 Cl
ATOM     10  C   UNL d   1      52.485  32.009  53.006  0.00  0.00     0.005 A 
ATOM     11  C   UNL d   1      53.518  31.102  53.413  0.00  0.00     0.099 A 
ATOM     12  C   UNL d   1      52.846  31.264  52.956  0.00  0.00     0.021 A 
ENDROOT
BRANCH   1  13
ATOM     13  N   UNL d   1      51.764  33.485  53.102  0.00  0.00    -0.114 N 
ATOM     14  O   UNL d   1      51.842  33.816  52.352  0.00  0.00    -0.532 OA
ATOM     15  O   UNL d   1      51.016  33.316  53.396  0.00  0.00    -0.532 OA
ENDBRANCH   1  13
TORSDOF 1
ENDMDL
