MODEL 1
REMARK VINA RESULT:      11.7      0.000      0.000
REMARK  3 active torsions:
REMARK  status: ('A' for Active; 'I' for Inactive)
REMARK    1  A    between atoms: C_6  and  N_1 
REMARK    2  A    between atoms: C_3  and  C_2 
REMARK       I    between atoms: N_4  and  C_3 
REMARK    3  A    between atoms: C_9  and  N_4 
ROOT
ATOM      1  C   UNL d   1      46.103 -17.707  43.612  0.00  0.00     0.069 A 
ATOM      2  C   UNL d   1      46.328 -18.454  43.886  0.00  0.00     0.064 A 
ATOM      3  C   UNL d   1      46.409 -18.923  42.537  0.00  0.00     0.128 A 
ATOM      4  C   UNL d   1      46.480 -19.060  43.351  0.00  0.00     0.035 A 
ATOM      5  C   UNL d   1      46.032 -17.570  42.797  0.00  0.00     0.007 A 
ATOM      6  C   UNL d   1      46.185 -18.181  42.261  0.00  0.00     0.024 A 
ATOM      7 CL   UNL d   1      46.401 -18.598  44.695  0.00  0.00    -0.082 Cl
ENDROOT
BRANCH   1   8
ATOM      8  C   UNL d   1      45.950 -17.099  44.146  0.00  0.00     0.281 C 
ATOM      9  N   UNL d   1      45.820 -16.332  43.873  0.00  0.00    -0.189 NA
ATOM     10  O   UNL d   1      45.928 -17.263  44.954  0.00  0.00    -0.265 OA
BRANCH   9  11
ATOM     11  C   UNL d   1      45.656 -15.604  44.232  0.00  0.00     0.166 A 
ATOM     12  N   UNL d   1      46.234 -15.013  44.241  0.00  0.00    -0.225 NA
ATOM     13  C   UNL d   1      46.057 -14.301  44.599  0.00  0.00     0.101 A 
ATOM     14  C   UNL d   1      45.320 -14.171  44.944  0.00  0.00     0.021 A 
ATOM     15  C   UNL d   1      44.751 -14.762  44.933  0.00  0.00     0.005 A 
ATOM     16  C   UNL d   1      44.917 -15.486  44.574  0.00  0.00     0.039 A 
ENDBRANCH   9  11
ENDBRANCH   1   8
BRANCH   3  17
ATOM     17  N   UNL d   1      46.564 -19.539  42.003  0.00  0.00    -0.114 N 
ATOM     18  O   UNL d   1      46.647 -19.370  41.200  0.00  0.00    -0.532 OA
ATOM     19  O   UNL d   1      46.635 -20.314  42.272  0.00  0.00    -0.532 OA
ENDBRANCH   3  17
TORSDOF 3
ENDMDL
MODEL 2
REMARK VINA RESULT:      12.0      1.985      4.555
REMARK  3 active torsions:
REMARK  status: ('A' for Active; 'I' for Inactive)
REMARK    1  A    between atoms: C_6  and  N_1 
REMARK    2  A    between atoms: C_3  and  C_2 
REMARK       I    between atoms: N_4  and  C_3 
REMARK    3  A    between atoms: C_9  and  N_4 
ROOT
ATOM      1  C   UNL d   1      45.735 -15.334  44.331  0.00  0.00     0.069 A 
ATOM      2  C   UNL d   1      45.082 -14.932  44.639  0.00  0.00     0.064 A 
ATOM      3  C   UNL d   1      45.701 -13.683  44.317  0.00  0.00     0.128 A 
ATOM      4  C   UNL d   1      45.064 -14.109  44.632  0.00  0.00     0.035 A 
ATOM      5  C   UNL d   1      46.372 -14.908  44.015  0.00  0.00     0.007 A 
ATOM      6  C   UNL d   1      46.353 -14.080  44.010  0.00  0.00     0.024 A 
ATOM      7 CL   UNL d   1      44.444 -15.349  44.954  0.00  0.00    -0.082 Cl
ENDROOT
BRANCH   1   8
ATOM      8  C   UNL d   1      45.754 -16.157  44.337  0.00  0.00     0.281 C 
ATOM      9  N   UNL d   1      46.131 -16.567  43.728  0.00  0.00    -0.189 NA
ATOM     10  O   UNL d   1      45.393 -16.569  44.954  0.00  0.00    -0.265 OA
BRANCH   9  11
ATOM     11  C   UNL d   1      46.258 -17.366  43.552  0.00  0.00     0.166 A 
ATOM     12  N   UNL d   1      46.384 -17.904  44.167  0.00  0.00    -0.225 NA
ATOM     13  C   UNL d   1      46.508 -18.688  43.978  0.00  0.00     0.101 A 
ATOM     14  C   UNL d   1      46.508 -18.941  43.194  0.00  0.00     0.021 A 
ATOM     15  C   UNL d   1      46.382 -18.402  42.588  0.00  0.00     0.005 A 
ATOM     16  C   UNL d   1      46.256 -17.607  42.765  0.00  0.00     0.039 A 
ENDBRANCH   9  11
ENDBRANCH   1   8
BRANCH   3  17
ATOM     17  N   UNL d   1      45.677 -12.854  44.314  0.00  0.00    -0.114 N 
ATOM     18  O   UNL d   1      46.013 -12.434  44.939  0.00  0.00    -0.532 OA
ATOM     19  O   UNL d   1      45.320 -12.450  43.690  0.00  0.00    -0.532 OA
ENDBRANCH   3  17
TORSDOF 3
ENDMDL
