MODEL 1
REMARK VINA RESULT:      57.8      0.000      0.000
REMARK  3 active torsions:
REMARK  status: ('A' for Active; 'I' for Inactive)
REMARK    1  A    between atoms: C_6  and  C_1 
REMARK    2  A    between atoms: C_8  and  C_3 
REMARK    3  A    between atoms: C_9  and  C_4 
ROOT
ATOM      1  C   UNL d   1     -47.891  32.402  34.171  0.00  0.00     0.306 A 
ATOM      2  N   UNL d   1     -48.543  32.226  33.707  0.00  0.00    -0.152 NA
ATOM      3  C   UNL d   1     -47.599  31.843  34.703  0.00  0.00     0.114 A 
ATOM      4  C   UNL d   1     -47.958  31.105  34.775  0.00  0.00     0.094 A 
ATOM      5  C   UNL d   1     -48.905  31.494  33.774  0.00  0.00     0.371 A 
ATOM      6  N   UNL d   1     -48.613  30.935  34.306  0.00  0.00    -0.191 NA
ATOM      7  O   UNL d   1     -49.564  31.313  33.308  0.00  0.00    -0.242 OA
ATOM      8  O   UNL d   1     -47.234  32.577  34.638  0.00  0.00    -0.266 OA
ENDROOT
BRANCH   4   9
ATOM      9  C   UNL d   1     -47.667  30.549  35.304  0.00  0.00     0.018 A 
ATOM     10  C   UNL d   1     -47.417  29.811  35.035  0.00  0.00     0.004 A 
ATOM     11  C   UNL d   1     -47.123  29.248  35.570  0.00  0.00     0.030 A 
ATOM     12  C   UNL d   1     -47.081  29.425  36.368  0.00  0.00     0.140 A 
ATOM     13  C   UNL d   1     -47.335  30.172  36.642  0.00  0.00     0.030 A 
ATOM     14  F   UNL d   1     -46.791  28.869  36.898  0.00  0.00    -0.204 F 
ATOM     15  C   UNL d   1     -47.624  30.722  36.106  0.00  0.00     0.004 A 
ENDBRANCH   4   9
BRANCH   3  16
ATOM     16  C   UNL d   1     -46.944  32.021  35.168  0.00  0.00     0.202 C 
ATOM     17  O   UNL d   1     -47.037  32.246  35.960  0.00  0.00    -0.286 OA
ATOM     18  C   UNL d   1     -46.181  31.976  34.845  0.00  0.00     0.045 C 
ENDBRANCH   3  16
BRANCH   1  19
ATOM     19  C   UNL d   1     -48.018  33.079  33.718  0.00  0.00     0.470 C 
ATOM     20  F   UNL d   1     -48.153  33.688  33.314  0.00  0.00    -0.162 F 
ATOM     21  F   UNL d   1     -48.767  33.470  33.540  0.00  0.00    -0.162 F 
ATOM     22  F   UNL d   1     -47.455  33.577  33.306  0.00  0.00    -0.162 F 
ENDBRANCH   1  19
TORSDOF 3
ENDMDL
