MODEL 1
REMARK VINA RESULT:     140.3      0.000      0.000
REMARK  5 active torsions:
REMARK  status: ('A' for Active; 'I' for Inactive)
REMARK    1  A    between atoms: N_8  and  S_1 
REMARK    2  A    between atoms: C_11  and  S_1 
REMARK    3  A    between atoms: S_2  and  C_10 
REMARK    4  A    between atoms: N_9  and  S_2 
REMARK    5  A    between atoms: N_20  and  C_5 
ROOT
ATOM      1  C   UNL d   1      44.105 -17.231  40.284  0.00  0.00     0.021 A 
ATOM      2  C   UNL d   1      43.422 -16.432  39.471  0.00  0.00     0.021 A 
ATOM      3  C   UNL d   1      43.407 -16.774  40.219  0.00  0.00     0.111 A 
ATOM      4  C   UNL d   1      44.114 -16.676  39.093  0.00  0.00     0.002 A 
ATOM      5  C   UNL d   1      44.523 -17.170  39.613  0.00  0.00     0.002 A 
ATOM      6  C   UNL d   1      43.047 -15.663  38.321  0.00  0.00     0.104 A 
ATOM      7  C   UNL d   1      45.093 -18.098  40.848  0.00  0.00     0.104 A 
ATOM      8  C   UNL d   1      42.898 -15.931  39.086  0.00  0.00     0.015 A 
ATOM      9  C   UNL d   1      44.378 -17.694  40.917  0.00  0.00     0.015 A 
ATOM     10  C   UNL d   1      45.239 -17.574  39.544  0.00  0.00     0.001 A 
ATOM     11  C   UNL d   1      44.279 -16.416  38.325  0.00  0.00     0.001 A 
ATOM     12  C   UNL d   1      45.499 -18.030  40.177  0.00  0.00     0.013 A 
ATOM     13  C   UNL d   1      43.755 -15.925  37.961  0.00  0.00     0.013 A 
ENDROOT
BRANCH   6  14
ATOM     14  S   UNL d   1      42.513 -15.149  37.920  0.00  0.00     0.271 S 
ATOM     15  O   UNL d   1      43.012 -14.487  38.103  0.00  0.00    -0.200 OA
ATOM     16  O   UNL d   1      42.041 -15.831  37.757  0.00  0.00    -0.200 OA
BRANCH  14  17
ATOM     17  N   UNL d   1      41.980 -14.668  37.526  0.00  0.00    -0.229 N 
ATOM     18  C   UNL d   1      41.942 -13.873  37.708  0.00  0.00     0.092 A 
ATOM     19  C   UNL d   1      41.406 -13.404  37.307  0.00  0.00     0.020 A 
ATOM     20  C   UNL d   1      40.911 -13.712  36.732  0.00  0.00     0.003 A 
ATOM     21  C   UNL d   1      40.948 -14.524  36.545  0.00  0.00     0.020 A 
ATOM     22  C   UNL d   1      40.368 -13.224  36.330  0.00  0.00     0.000 C 
ATOM     23  C   UNL d   1      41.490 -15.005  36.949  0.00  0.00     0.092 A 
ENDBRANCH  14  17
ENDBRANCH   6  14
BRANCH   3  24
ATOM     24  N   UNL d   1      42.826 -16.693  40.800  0.00  0.00    -0.096 NA
ATOM     25  O   UNL d   1      42.108 -17.110  40.691  0.00  0.00    -0.061 OA
ENDBRANCH   3  24
BRANCH   7  26
ATOM     26  S   UNL d   1      45.394 -18.571  41.464  0.00  0.00     0.271 S 
ATOM     27  O   UNL d   1      45.951 -17.968  41.653  0.00  0.00    -0.200 OA
ATOM     28  O   UNL d   1      44.838 -19.154  41.262  0.00  0.00    -0.200 OA
BRANCH  26  29
ATOM     29  N   UNL d   1      45.707 -19.039  42.088  0.00  0.00    -0.229 N 
ATOM     30  C   UNL d   1      45.948 -18.654  42.773  0.00  0.00     0.092 A 
ATOM     31  C   UNL d   1      46.253 -19.081  43.390  0.00  0.00     0.020 A 
ATOM     32  C   UNL d   1      46.329 -19.901  43.350  0.00  0.00     0.003 A 
ATOM     33  C   UNL d   1      46.082 -20.296  42.652  0.00  0.00     0.020 A 
ATOM     34  C   UNL d   1      46.646 -20.327  43.997  0.00  0.00     0.000 C 
ATOM     35  C   UNL d   1      45.772 -19.858  42.024  0.00  0.00     0.092 A 
ENDBRANCH  26  29
ENDBRANCH   7  26
TORSDOF 5
ENDMDL
