MODEL 1
REMARK VINA RESULT:      55.9      0.000      0.000
REMARK  5 active torsions:
REMARK  status: ('A' for Active; 'I' for Inactive)
REMARK    1  A    between atoms: C_11  and  C_3 
REMARK    2  A    between atoms: C_12  and  N_5 
REMARK    3  A    between atoms: C_10  and  C_14 
REMARK    4  A    between atoms: O_24  and  C_11 
REMARK    5  A    between atoms: C_25  and  O_24 
ROOT
ATOM      1  C   UNL d   1     -53.027  25.661  33.429  0.00  0.00     0.086 A 
ATOM      2  C   UNL d   1     -52.984  24.841  33.439  0.00  0.00     0.038 A 
ATOM      3  C   UNL d   1     -52.253  24.466  33.515  0.00  0.00     0.165 A 
ATOM      4  C   UNL d   1     -52.336  26.113  33.495  0.00  0.00     0.282 A 
ATOM      5  N   UNL d   1     -51.608  25.741  33.571  0.00  0.00    -0.194 N 
ATOM      6  N   UNL d   1     -51.563  24.918  33.581  0.00  0.00    -0.157 NA
ATOM      7  C   UNL d   1     -53.823  25.869  33.347  0.00  0.00     0.137 A 
ATOM      8  C   UNL d   1     -53.752  24.547  33.364  0.00  0.00     0.039 A 
ATOM      9  S   UNL d   1     -54.264  25.178  33.308  0.00  0.00    -0.066 SA
ATOM     10  O   UNL d   1     -52.376  26.944  33.484  0.00  0.00    -0.265 OA
ATOM     11  N   UNL d   1     -54.142  26.637  33.309  0.00  0.00    -0.141 N 
ENDROOT
BRANCH   5  12
ATOM     12  C   UNL d   1     -50.921  26.191  33.636  0.00  0.00     0.086 A 
ATOM     13  C   UNL d   1     -50.218  25.918  33.310  0.00  0.00     0.019 A 
ATOM     14  C   UNL d   1     -49.525  26.372  33.376  0.00  0.00     0.005 A 
ATOM     15  C   UNL d   1     -49.541  27.094  33.768  0.00  0.00     0.072 A 
ATOM     16  C   UNL d   1     -50.246  27.369  34.097  0.00  0.00     0.005 A 
ATOM     17  C   UNL d   1     -50.939  26.915  34.030  0.00  0.00     0.019 A 
BRANCH  15  18
ATOM     18  C   UNL d   1     -48.854  27.543  33.834  0.00  0.00     0.419 C 
ATOM     19  F   UNL d   1     -48.229  27.956  33.895  0.00  0.00    -0.166 F 
ATOM     20  F   UNL d   1     -48.765  28.362  34.068  0.00  0.00    -0.166 F 
ATOM     21  F   UNL d   1     -48.044  27.316  33.686  0.00  0.00    -0.166 F 
ENDBRANCH  15  18
ENDBRANCH   5  12
BRANCH   3  22
ATOM     22  C   UNL d   1     -52.213  23.635  33.526  0.00  0.00     0.320 C 
ATOM     23  O   UNL d   1     -52.870  23.192  33.310  0.00  0.00    -0.257 OA
BRANCH  22  24
ATOM     24  O   UNL d   1     -51.513  23.254  33.753  0.00  0.00    -0.270 OA
BRANCH  24  25
ATOM     25  C   UNL d   1     -50.817  23.394  33.340  0.00  0.00     0.126 C 
ATOM     26  C   UNL d   1     -50.084  23.201  33.683  0.00  0.00     0.029 C 
ENDBRANCH  24  25
ENDBRANCH  22  24
ENDBRANCH   3  22
TORSDOF 5
ENDMDL
