MODEL 1
REMARK VINA RESULT:     116.0      0.000      0.000
REMARK  3 active torsions:
REMARK  status: ('A' for Active; 'I' for Inactive)
REMARK    1  A    between atoms: N_11  and  C_4 
REMARK       I    between atoms: C_5  and  N_9 
REMARK       I    between atoms: N_12  and  C_5 
REMARK    2  A    between atoms: C_6  and  C_7 
REMARK    3  A    between atoms: C_14  and  N_12 
ROOT
ATOM      1  C   UNL d   1      62.231  44.352  49.983  0.00  0.00     0.354 C 
ATOM      2  N   UNL d   1      61.962  45.131  50.110  0.00  0.00    -0.253 N 
ATOM      3  N   UNL d   1      61.430  46.663  50.374  0.00  0.00    -0.285 N 
ATOM      4  N   UNL d   1      62.187  43.793  50.588  0.00  0.00    -0.192 NA
ATOM      5  O   UNL d   1      62.542  44.141  49.244  0.00  0.00    -0.244 OA
ATOM      6  C   UNL d   1      61.653  45.342  50.845  0.00  0.00     0.104 A 
ATOM      7  C   UNL d   1      62.006  45.691  49.505  0.00  0.00     0.104 A 
ATOM      8  C   UNL d   1      61.386  46.112  50.975  0.00  0.00     0.101 A 
ATOM      9  C   UNL d   1      61.740  46.453  49.638  0.00  0.00     0.101 A 
ENDROOT
BRANCH   4  10
ATOM     10  C   UNL d   1      62.454  43.022  50.458  0.00  0.00     0.090 A 
ATOM     11  C   UNL d   1      62.438  42.470  51.072  0.00  0.00     0.089 A 
ATOM     12  C   UNL d   1      62.705  41.704  50.940  0.00  0.00     0.005 A 
ATOM     13  C   UNL d   1      62.986  41.487  50.201  0.00  0.00     0.000 A 
ATOM     14  C   UNL d   1      63.001  42.043  49.585  0.00  0.00     0.002 A 
ATOM     15  C   UNL d   1      62.735  42.805  49.718  0.00  0.00     0.019 A 
BRANCH  11  16
ATOM     16  C   UNL d   1      62.156  42.689  51.815  0.00  0.00     0.420 C 
ATOM     17  F   UNL d   1      61.873  42.907  52.559  0.00  0.00    -0.166 F 
ATOM     18  F   UNL d   1      62.901  42.562  52.136  0.00  0.00    -0.166 F 
ATOM     19  F   UNL d   1      61.407  42.816  51.493  0.00  0.00    -0.166 F 
ENDBRANCH  11  16
ENDBRANCH   4  10
BRANCH   3  20
ATOM     20  C   UNL d   1      61.164  47.434  50.503  0.00  0.00     0.168 A 
ATOM     21  N   UNL d   1      61.171  47.751  51.265  0.00  0.00    -0.144 NA
ATOM     22  N   UNL d   1      60.905  48.517  51.391  0.00  0.00    -0.187 N 
ATOM     23  C   UNL d   1      60.631  48.971  50.759  0.00  0.00     0.187 A 
ATOM     24  C   UNL d   1      60.845  48.978  52.069  0.00  0.00     0.224 A 
ATOM     25  N   UNL d   1      60.404  49.708  51.050  0.00  0.00    -0.127 NA
ATOM     26  C   UNL d   1      60.623  48.657  49.999  0.00  0.00     0.044 A 
ATOM     27  N   UNL d   1      60.540  49.704  51.867  0.00  0.00    -0.124 NA
ATOM     28  C   UNL d   1      60.890  47.887  49.870  0.00  0.00     0.042 A 
ENDBRANCH   3  20
TORSDOF 3
ENDMDL
MODEL 2
REMARK VINA RESULT:     118.1      2.476      5.759
REMARK  3 active torsions:
REMARK  status: ('A' for Active; 'I' for Inactive)
REMARK    1  A    between atoms: N_11  and  C_4 
REMARK       I    between atoms: C_5  and  N_9 
REMARK       I    between atoms: N_12  and  C_5 
REMARK    2  A    between atoms: C_6  and  C_7 
REMARK    3  A    between atoms: C_14  and  N_12 
ROOT
ATOM      1  C   UNL d   1      60.182  46.890  51.026  0.00  0.00     0.354 C 
ATOM      2  N   UNL d   1      60.608  46.184  50.907  0.00  0.00    -0.253 N 
ATOM      3  N   UNL d   1      61.458  44.799  50.664  0.00  0.00    -0.285 N 
ATOM      4  N   UNL d   1      60.467  47.605  50.727  0.00  0.00    -0.192 NA
ATOM      5  O   UNL d   1      59.468  46.873  51.448  0.00  0.00    -0.244 OA
ATOM      6  C   UNL d   1      61.319  46.202  50.487  0.00  0.00     0.104 A 
ATOM      7  C   UNL d   1      60.323  45.470  51.206  0.00  0.00     0.104 A 
ATOM      8  C   UNL d   1      61.743  45.505  50.367  0.00  0.00     0.101 A 
ATOM      9  C   UNL d   1      60.748  44.781  51.084  0.00  0.00     0.101 A 
ENDROOT
BRANCH   4  10
ATOM     10  C   UNL d   1      60.041  48.302  50.848  0.00  0.00     0.090 A 
ATOM     11  C   UNL d   1      60.442  49.015  50.966  0.00  0.00     0.089 A 
ATOM     12  C   UNL d   1      60.016  49.708  51.087  0.00  0.00     0.005 A 
ATOM     13  C   UNL d   1      59.196  49.693  51.089  0.00  0.00     0.000 A 
ATOM     14  C   UNL d   1      58.796  48.975  50.969  0.00  0.00     0.002 A 
ATOM     15  C   UNL d   1      59.222  48.287  50.850  0.00  0.00     0.019 A 
BRANCH  11  16
ATOM     16  C   UNL d   1      61.266  49.030  50.964  0.00  0.00     0.420 C 
ATOM     17  F   UNL d   1      62.091  49.045  50.962  0.00  0.00    -0.166 F 
ATOM     18  F   UNL d   1      61.268  49.057  51.785  0.00  0.00    -0.166 F 
ATOM     19  F   UNL d   1      61.265  49.003  50.140  0.00  0.00    -0.166 F 
ENDBRANCH  11  16
ENDBRANCH   4  10
BRANCH   3  20
ATOM     20  C   UNL d   1      61.883  44.102  50.544  0.00  0.00     0.168 A 
ATOM     21  N   UNL d   1      62.072  43.617  51.184  0.00  0.00    -0.144 NA
ATOM     22  N   UNL d   1      62.494  42.924  51.062  0.00  0.00    -0.187 N 
ATOM     23  C   UNL d   1      62.731  42.712  50.301  0.00  0.00     0.187 A 
ATOM     24  C   UNL d   1      62.760  42.339  51.575  0.00  0.00     0.224 A 
ATOM     25  N   UNL d   1      63.141  41.997  50.349  0.00  0.00    -0.127 NA
ATOM     26  C   UNL d   1      62.545  43.192  49.661  0.00  0.00     0.044 A 
ATOM     27  N   UNL d   1      63.154  41.773  51.145  0.00  0.00    -0.124 NA
ATOM     28  C   UNL d   1      62.119  43.890  49.783  0.00  0.00     0.042 A 
ENDBRANCH   3  20
TORSDOF 3
ENDMDL
