MODEL 1
REMARK VINA RESULT:       6.2      0.000      0.000
REMARK  7 active torsions:
REMARK  status: ('A' for Active; 'I' for Inactive)
REMARK    1  A    between atoms: C_7  and  C_1 
REMARK    2  A    between atoms: S_8  and  C_3 
REMARK       I    between atoms: C_6  and  N_13 
REMARK    3  A    between atoms: C_10  and  C_6 
REMARK    4  A    between atoms: C_20  and  S_8 
REMARK    5  A    between atoms: N_13  and  C_21 
REMARK    6  A    between atoms: O_19  and  C_14 
REMARK    7  A    between atoms: C_21  and  C_20 
ROOT
ATOM      1  C   UNL d   1      58.986   0.573  31.433  0.00  0.00     0.087 A 
ATOM      2  N   UNL d   1      59.532   0.542  30.819  0.00  0.00    -0.245 NA
ATOM      3  C   UNL d   1      58.230   0.573  31.105  0.00  0.00     0.049 A 
ATOM      4  C   UNL d   1      58.301   0.541  30.289  0.00  0.00     0.025 A 
ATOM      5  C   UNL d   1      59.111   0.521  30.108  0.00  0.00     0.082 A 
ATOM      6  C   UNL d   1      57.747   0.527  29.686  0.00  0.00     0.002 A 
ATOM      7  C   UNL d   1      59.359   0.488  29.322  0.00  0.00     0.019 A 
ATOM      8  C   UNL d   1      57.995   0.494  28.899  0.00  0.00     0.000 A 
ATOM      9  C   UNL d   1      58.797   0.474  28.722  0.00  0.00     0.002 A 
ENDROOT
BRANCH   3  10
ATOM     10  S   UNL d   1      57.518   0.601  31.524  0.00  0.00    -0.083 SA
BRANCH  10  11
ATOM     11  C   UNL d   1      56.986  -0.039  31.472  0.00  0.00     0.056 C 
BRANCH  11  12
ATOM     12  C   UNL d   1      56.520  -0.235  32.126  0.00  0.00     0.109 C 
BRANCH  12  13
ATOM     13  N   UNL d   1      56.381  -1.020  32.294  0.00  0.00    -0.206 NA
ATOM     14  C   UNL d   1      55.932  -1.222  32.952  0.00  0.00     0.279 C 
ATOM     15  O   UNL d   1      55.790  -2.027  33.124  0.00  0.00    -0.265 OA
BRANCH  14  16
ATOM     16  C   UNL d   1      55.622  -0.633  33.442  0.00  0.00     0.058 A 
ATOM     17  C   UNL d   1      55.906  -0.550  34.220  0.00  0.00     0.005 A 
ATOM     18  C   UNL d   1      55.596   0.040  34.710  0.00  0.00     0.000 A 
ATOM     19  C   UNL d   1      55.004   0.545  34.424  0.00  0.00     0.000 A 
ATOM     20  C   UNL d   1      54.723   0.463  33.654  0.00  0.00     0.000 A 
ATOM     21  C   UNL d   1      55.033  -0.126  33.165  0.00  0.00     0.005 A 
ENDBRANCH  14  16
ENDBRANCH  12  13
ENDBRANCH  11  12
ENDBRANCH  10  11
ENDBRANCH   3  10
BRANCH   1  22
ATOM     22  C   UNL d   1      59.202   0.600  32.223  0.00  0.00     0.018 A 
ATOM     23  C   UNL d   1      58.622   0.651  32.811  0.00  0.00     0.004 A 
ATOM     24  C   UNL d   1      58.835   0.677  33.603  0.00  0.00     0.024 A 
ATOM     25  C   UNL d   1      59.630   0.653  33.813  0.00  0.00     0.094 A 
ATOM     26  C   UNL d   1      60.216   0.602  33.226  0.00  0.00     0.024 A 
ATOM     27  C   UNL d   1      60.004   0.575  32.434  0.00  0.00     0.004 A 
BRANCH  25  28
ATOM     28  O   UNL d   1      59.846   0.680  34.619  0.00  0.00    -0.328 OA
ATOM     29  C   UNL d   1      60.641   0.591  34.839  0.00  0.00     0.181 C 
ENDBRANCH  25  28
ENDBRANCH   1  22
TORSDOF 7
ENDMDL
