MODEL 1
REMARK VINA RESULT:      23.9      0.000      0.000
REMARK  6 active torsions:
REMARK  status: ('A' for Active; 'I' for Inactive)
REMARK    1  A    between atoms: C_2  and  C_1 
REMARK       I    between atoms: N_5  and  C_1 
REMARK    2  A    between atoms: C_4  and  C_2 
REMARK    3  A    between atoms: O_13  and  C_3 
REMARK    4  A    between atoms: C_9  and  C_4 
REMARK    5  A    between atoms: C_11  and  N_5 
REMARK    6  A    between atoms: O_14  and  C_6 
ROOT
ATOM      1  C   UNL d   1      12.851  12.477  -2.436  0.00  0.00     0.005 C 
ENDROOT
BRANCH   1   2
ATOM      2  C   UNL d   1      13.381  12.030  -1.984  0.00  0.00     0.062 C 
BRANCH   2   3
ATOM      3  C   UNL d   1      13.854  12.397  -1.417  0.00  0.00     0.279 C 
ATOM      4  N   UNL d   1      14.515  12.741  -1.622  0.00  0.00    -0.208 NA
ATOM      5  O   UNL d   1      13.635  12.397  -0.673  0.00  0.00    -0.265 OA
BRANCH   4   6
ATOM      6  C   UNL d   1      14.959  13.085  -1.090  0.00  0.00     0.085 A 
ATOM      7  C   UNL d   1      15.343  12.632  -0.581  0.00  0.00     0.019 A 
ATOM      8  C   UNL d   1      15.789  12.968  -0.046  0.00  0.00     0.002 A 
ATOM      9  C   UNL d   1      15.852  13.762  -0.019  0.00  0.00     0.000 A 
ATOM     10  C   UNL d   1      15.462  14.209  -0.534  0.00  0.00     0.002 A 
ATOM     11  C   UNL d   1      15.012  13.873  -1.074  0.00  0.00     0.019 A 
ENDBRANCH   4   6
ENDBRANCH   2   3
ENDBRANCH   1   2
BRANCH   1  12
ATOM     12  C   UNL d   1      12.914  12.488  -3.258  0.00  0.00     0.002 A 
ATOM     13  C   UNL d   1      12.966  13.213  -3.663  0.00  0.00     0.026 A 
ATOM     14  C   UNL d   1      13.028  13.224  -4.486  0.00  0.00     0.116 A 
ATOM     15  C   UNL d   1      13.039  12.511  -4.903  0.00  0.00     0.116 A 
ATOM     16  C   UNL d   1      12.987  11.788  -4.502  0.00  0.00     0.026 A 
ATOM     17  C   UNL d   1      12.924  11.781  -3.677  0.00  0.00     0.002 A 
BRANCH  14  18
ATOM     18  O   UNL d   1      13.079  13.934  -4.882  0.00  0.00    -0.326 OA
ATOM     19  C   UNL d   1      13.085  14.643  -4.457  0.00  0.00     0.181 C 
ENDBRANCH  14  18
BRANCH  15  20
ATOM     20  O   UNL d   1      13.101  12.515  -5.730  0.00  0.00    -0.326 OA
ATOM     21  C   UNL d   1      13.411  11.860  -6.128  0.00  0.00     0.181 C 
ENDBRANCH  15  20
ENDBRANCH   1  12
TORSDOF 6
ENDMDL
