MODEL 1
REMARK VINA RESULT:      -7.9      0.000      0.000
REMARK  5 active torsions:
REMARK  status: ('A' for Active; 'I' for Inactive)
REMARK    1  A    between atoms: C_6  and  C_1 
REMARK    2  A    between atoms: C_8  and  N_3 
REMARK    3  A    between atoms: C_7  and  C_8 
REMARK    4  A    between atoms: C_9  and  C_7 
REMARK    5  A    between atoms: C_10  and  C_9 
ROOT
ATOM      1  C   UNL d   1     -49.888  14.584  23.054  0.00  0.00     0.187 A 
ATOM      2  N   UNL d   1     -50.643  14.221  23.062  0.00  0.00    -0.224 NA
ATOM      3  N   UNL d   1     -49.314  13.990  23.160  0.00  0.00    -0.287 N 
ATOM      4  C   UNL d   1     -49.703  13.264  23.233  0.00  0.00     0.083 A 
ATOM      5  C   UNL d   1     -50.520  13.401  23.173  0.00  0.00     0.099 A 
ATOM      6  C   UNL d   1     -49.428  12.481  23.348  0.00  0.00     0.019 A 
ATOM      7  C   UNL d   1     -51.064  12.771  23.226  0.00  0.00     0.021 A 
ATOM      8  C   UNL d   1     -49.965  11.855  23.400  0.00  0.00     0.002 A 
ATOM      9  C   UNL d   1     -50.781  12.000  23.339  0.00  0.00     0.002 A 
ENDROOT
BRANCH   3  10
ATOM     10  C   UNL d   1     -48.538  14.270  23.164  0.00  0.00     0.082 C 
BRANCH  10  11
ATOM     11  C   UNL d   1     -47.914  13.759  23.016  0.00  0.00     0.019 C 
BRANCH  11  12
ATOM     12  C   UNL d   1     -47.137  14.017  23.128  0.00  0.00     0.002 C 
BRANCH  12  13
ATOM     13  C   UNL d   1     -46.508  13.538  22.899  0.00  0.00     0.000 A 
ATOM     14  C   UNL d   1     -46.372  12.824  23.289  0.00  0.00     0.000 A 
ATOM     15  C   UNL d   1     -45.744  12.352  23.055  0.00  0.00     0.000 A 
ATOM     16  C   UNL d   1     -45.251  12.585  22.436  0.00  0.00     0.000 A 
ATOM     17  C   UNL d   1     -45.391  13.301  22.048  0.00  0.00     0.000 A 
ATOM     18  C   UNL d   1     -46.015  13.772  22.279  0.00  0.00     0.000 A 
ENDBRANCH  12  13
ENDBRANCH  11  12
ENDBRANCH  10  11
ENDBRANCH   3  10
BRANCH   1  19
ATOM     19  C   UNL d   1     -49.858  15.305  22.964  0.00  0.00     0.230 C 
ATOM     20  O   UNL d   1     -49.722  15.687  22.246  0.00  0.00    -0.283 OA
ATOM     21  C   UNL d   1     -49.967  15.778  23.628  0.00  0.00     0.049 C 
ENDBRANCH   1  19
TORSDOF 5
ENDMDL
MODEL 2
REMARK VINA RESULT:      -7.4      1.138      2.146
REMARK  5 active torsions:
REMARK  status: ('A' for Active; 'I' for Inactive)
REMARK    1  A    between atoms: C_6  and  C_1 
REMARK    2  A    between atoms: C_8  and  N_3 
REMARK    3  A    between atoms: C_7  and  C_8 
REMARK    4  A    between atoms: C_9  and  C_7 
REMARK    5  A    between atoms: C_10  and  C_9 
ROOT
ATOM      1  C   UNL d   1     -49.914  12.660  23.010  0.00  0.00     0.187 A 
ATOM      2  N   UNL d   1     -50.641  13.011  22.787  0.00  0.00    -0.224 NA
ATOM      3  N   UNL d   1     -49.373  13.270  23.182  0.00  0.00    -0.287 N 
ATOM      4  C   UNL d   1     -49.755  13.995  23.069  0.00  0.00     0.083 A 
ATOM      5  C   UNL d   1     -50.535  13.840  22.826  0.00  0.00     0.099 A 
ATOM      6  C   UNL d   1     -49.504  14.789  23.153  0.00  0.00     0.019 A 
ATOM      7  C   UNL d   1     -51.064  14.465  22.666  0.00  0.00     0.021 A 
ATOM      8  C   UNL d   1     -50.026  15.409  22.995  0.00  0.00     0.002 A 
ATOM      9  C   UNL d   1     -50.804  15.247  22.752  0.00  0.00     0.002 A 
ENDROOT
BRANCH   3  10
ATOM     10  C   UNL d   1     -48.627  13.003  23.412  0.00  0.00     0.082 C 
BRANCH  10  11
ATOM     11  C   UNL d   1     -47.952  13.320  23.071  0.00  0.00     0.019 C 
BRANCH  11  12
ATOM     12  C   UNL d   1     -47.224  13.242  23.454  0.00  0.00     0.002 C 
BRANCH  12  13
ATOM     13  C   UNL d   1     -46.528  13.238  23.015  0.00  0.00     0.000 A 
ATOM     14  C   UNL d   1     -46.244  13.941  22.689  0.00  0.00     0.000 A 
ATOM     15  C   UNL d   1     -45.551  13.931  22.252  0.00  0.00     0.000 A 
ATOM     16  C   UNL d   1     -45.137  13.226  22.138  0.00  0.00     0.000 A 
ATOM     17  C   UNL d   1     -45.425  12.524  22.466  0.00  0.00     0.000 A 
ATOM     18  C   UNL d   1     -46.115  12.533  22.901  0.00  0.00     0.000 A 
ENDBRANCH  12  13
ENDBRANCH  11  12
ENDBRANCH  10  11
ENDBRANCH   3  10
BRANCH   1  19
ATOM     19  C   UNL d   1     -49.874  11.934  23.017  0.00  0.00     0.230 C 
ATOM     20  O   UNL d   1     -49.596  11.469  22.396  0.00  0.00    -0.283 OA
ATOM     21  C   UNL d   1     -50.126  11.544  23.697  0.00  0.00     0.049 C 
ENDBRANCH   1  19
TORSDOF 5
ENDMDL
MODEL 3
REMARK VINA RESULT:      -6.8      9.030     10.382
REMARK  5 active torsions:
REMARK  status: ('A' for Active; 'I' for Inactive)
REMARK    1  A    between atoms: C_6  and  C_1 
REMARK    2  A    between atoms: C_8  and  N_3 
REMARK    3  A    between atoms: C_7  and  C_8 
REMARK    4  A    between atoms: C_9  and  C_7 
REMARK    5  A    between atoms: C_10  and  C_9 
ROOT
ATOM      1  C   UNL d   1     -40.103  14.636  17.216  0.00  0.00     0.187 A 
ATOM      2  N   UNL d   1     -39.559  14.434  16.612  0.00  0.00    -0.224 NA
ATOM      3  N   UNL d   1     -39.917  14.190  17.894  0.00  0.00    -0.287 N 
ATOM      4  C   UNL d   1     -39.265  13.713  17.719  0.00  0.00     0.083 A 
ATOM      5  C   UNL d   1     -39.042  13.859  16.932  0.00  0.00     0.099 A 
ATOM      6  C   UNL d   1     -38.831  13.154  18.168  0.00  0.00     0.019 A 
ATOM      7  C   UNL d   1     -38.395  13.458  16.589  0.00  0.00     0.021 A 
ATOM      8  C   UNL d   1     -38.191  12.756  17.832  0.00  0.00     0.002 A 
ATOM      9  C   UNL d   1     -37.974  12.907  17.044  0.00  0.00     0.002 A 
ENDROOT
BRANCH   3  10
ATOM     10  C   UNL d   1     -40.412  14.334  18.538  0.00  0.00     0.082 C 
BRANCH  10  11
ATOM     11  C   UNL d   1     -40.099  14.396  19.293  0.00  0.00     0.019 C 
BRANCH  11  12
ATOM     12  C   UNL d   1     -40.605  14.492  19.940  0.00  0.00     0.002 C 
BRANCH  12  13
ATOM     13  C   UNL d   1     -40.317  14.807  20.644  0.00  0.00     0.000 A 
ATOM     14  C   UNL d   1     -40.405  15.613  20.799  0.00  0.00     0.000 A 
ATOM     15  C   UNL d   1     -40.115  15.921  21.501  0.00  0.00     0.000 A 
ATOM     16  C   UNL d   1     -39.739  15.433  22.049  0.00  0.00     0.000 A 
ATOM     17  C   UNL d   1     -39.652  14.626  21.890  0.00  0.00     0.000 A 
ATOM     18  C   UNL d   1     -39.940  14.319  21.192  0.00  0.00     0.000 A 
ENDBRANCH  12  13
ENDBRANCH  11  12
ENDBRANCH  10  11
ENDBRANCH   3  10
BRANCH   1  19
ATOM     19  C   UNL d   1     -40.612  15.133  17.063  0.00  0.00     0.230 C 
ATOM     20  O   UNL d   1     -41.410  14.970  16.938  0.00  0.00    -0.283 OA
ATOM     21  C   UNL d   1     -40.375  15.920  17.010  0.00  0.00     0.049 C 
ENDBRANCH   1  19
TORSDOF 5
ENDMDL
MODEL 4
REMARK VINA RESULT:      -6.4      1.622      4.349
REMARK  5 active torsions:
REMARK  status: ('A' for Active; 'I' for Inactive)
REMARK    1  A    between atoms: C_6  and  C_1 
REMARK    2  A    between atoms: C_8  and  N_3 
REMARK    3  A    between atoms: C_7  and  C_8 
REMARK    4  A    between atoms: C_9  and  C_7 
REMARK    5  A    between atoms: C_10  and  C_9 
ROOT
ATOM      1  C   UNL d   1     -47.545  12.226  22.846  0.00  0.00     0.187 A 
ATOM      2  N   UNL d   1     -46.783  12.189  22.501  0.00  0.00    -0.224 NA
ATOM      3  N   UNL d   1     -47.711  13.022  23.024  0.00  0.00    -0.287 N 
ATOM      4  C   UNL d   1     -47.062  13.480  22.794  0.00  0.00     0.083 A 
ATOM      5  C   UNL d   1     -46.489  12.972  22.472  0.00  0.00     0.099 A 
ATOM      6  C   UNL d   1     -46.905  14.302  22.830  0.00  0.00     0.019 A 
ATOM      7  C   UNL d   1     -45.764  13.272  22.187  0.00  0.00     0.021 A 
ATOM      8  C   UNL d   1     -46.188  14.601  22.549  0.00  0.00     0.002 A 
ATOM      9  C   UNL d   1     -45.620  14.087  22.228  0.00  0.00     0.002 A 
ENDROOT
BRANCH   3  10
ATOM     10  C   UNL d   1     -48.451  13.142  23.370  0.00  0.00     0.082 C 
BRANCH  10  11
ATOM     11  C   UNL d   1     -48.868  13.833  23.223  0.00  0.00     0.019 C 
BRANCH  11  12
ATOM     12  C   UNL d   1     -49.617  13.938  23.558  0.00  0.00     0.002 C 
BRANCH  12  13
ATOM     13  C   UNL d   1     -50.100  14.551  23.296  0.00  0.00     0.000 A 
ATOM     14  C   UNL d   1     -50.577  14.442  22.632  0.00  0.00     0.000 A 
ATOM     15  C   UNL d   1     -51.056  15.056  22.376  0.00  0.00     0.000 A 
ATOM     16  C   UNL d   1     -51.064  15.776  22.777  0.00  0.00     0.000 A 
ATOM     17  C   UNL d   1     -50.585  15.882  23.443  0.00  0.00     0.000 A 
ATOM     18  C   UNL d   1     -50.108  15.272  23.698  0.00  0.00     0.000 A 
ENDBRANCH  12  13
ENDBRANCH  11  12
ENDBRANCH  10  11
ENDBRANCH   3  10
BRANCH   1  19
ATOM     19  C   UNL d   1     -47.912  11.603  22.929  0.00  0.00     0.230 C 
ATOM     20  O   UNL d   1     -48.543  11.359  22.459  0.00  0.00    -0.283 OA
ATOM     21  C   UNL d   1     -47.679  11.101  23.539  0.00  0.00     0.049 C 
ENDBRANCH   1  19
TORSDOF 5
ENDMDL
MODEL 5
REMARK VINA RESULT:      -6.0      9.262     10.265
REMARK  5 active torsions:
REMARK  status: ('A' for Active; 'I' for Inactive)
REMARK    1  A    between atoms: C_6  and  C_1 
REMARK    2  A    between atoms: C_8  and  N_3 
REMARK    3  A    between atoms: C_7  and  C_8 
REMARK    4  A    between atoms: C_9  and  C_7 
REMARK    5  A    between atoms: C_10  and  C_9 
ROOT
ATOM      1  C   UNL d   1     -39.407  13.960  17.670  0.00  0.00     0.187 A 
ATOM      2  N   UNL d   1     -39.495  14.290  16.905  0.00  0.00    -0.224 NA
ATOM      3  N   UNL d   1     -39.952  14.333  18.178  0.00  0.00    -0.287 N 
ATOM      4  C   UNL d   1     -40.377  14.889  17.738  0.00  0.00     0.083 A 
ATOM      5  C   UNL d   1     -40.099  14.866  16.955  0.00  0.00     0.099 A 
ATOM      6  C   UNL d   1     -40.990  15.424  17.937  0.00  0.00     0.019 A 
ATOM      7  C   UNL d   1     -40.423  15.368  16.372  0.00  0.00     0.021 A 
ATOM      8  C   UNL d   1     -41.311  15.922  17.362  0.00  0.00     0.002 A 
ATOM      9  C   UNL d   1     -41.028  15.894  16.582  0.00  0.00     0.002 A 
ENDROOT
BRANCH   3  10
ATOM     10  C   UNL d   1     -39.928  14.060  18.956  0.00  0.00     0.082 C 
BRANCH  10  11
ATOM     11  C   UNL d   1     -40.020  14.584  19.580  0.00  0.00     0.019 C 
BRANCH  11  12
ATOM     12  C   UNL d   1     -40.126  14.294  20.347  0.00  0.00     0.002 C 
BRANCH  12  13
ATOM     13  C   UNL d   1     -39.885  14.743  20.993  0.00  0.00     0.000 A 
ATOM     14  C   UNL d   1     -39.286  14.464  21.487  0.00  0.00     0.000 A 
ATOM     15  C   UNL d   1     -39.051  14.917  22.128  0.00  0.00     0.000 A 
ATOM     16  C   UNL d   1     -39.406  15.645  22.281  0.00  0.00     0.000 A 
ATOM     17  C   UNL d   1     -40.005  15.922  21.783  0.00  0.00     0.000 A 
ATOM     18  C   UNL d   1     -40.241  15.472  21.145  0.00  0.00     0.000 A 
ENDBRANCH  12  13
ENDBRANCH  11  12
ENDBRANCH  10  11
ENDBRANCH   3  10
BRANCH   1  19
ATOM     19  C   UNL d   1     -38.906  13.441  17.762  0.00  0.00     0.230 C 
ATOM     20  O   UNL d   1     -39.061  12.632  17.790  0.00  0.00    -0.283 OA
ATOM     21  C   UNL d   1     -38.121  13.677  17.844  0.00  0.00     0.049 C 
ENDBRANCH   1  19
TORSDOF 5
ENDMDL
MODEL 6
REMARK VINA RESULT:      -5.6      8.825     11.069
REMARK  5 active torsions:
REMARK  status: ('A' for Active; 'I' for Inactive)
REMARK    1  A    between atoms: C_6  and  C_1 
REMARK    2  A    between atoms: C_8  and  N_3 
REMARK    3  A    between atoms: C_7  and  C_8 
REMARK    4  A    between atoms: C_9  and  C_7 
REMARK    5  A    between atoms: C_10  and  C_9 
ROOT
ATOM      1  C   UNL d   1     -38.715  13.371  17.408  0.00  0.00     0.187 A 
ATOM      2  N   UNL d   1     -38.311  13.595  16.709  0.00  0.00    -0.224 NA
ATOM      3  N   UNL d   1     -39.175  14.018  17.660  0.00  0.00    -0.287 N 
ATOM      4  C   UNL d   1     -39.062  14.640  17.127  0.00  0.00     0.083 A 
ATOM      5  C   UNL d   1     -38.531  14.384  16.541  0.00  0.00     0.099 A 
ATOM      6  C   UNL d   1     -39.370  15.418  17.087  0.00  0.00     0.019 A 
ATOM      7  C   UNL d   1     -38.305  14.892  15.918  0.00  0.00     0.021 A 
ATOM      8  C   UNL d   1     -39.147  15.922  16.472  0.00  0.00     0.002 A 
ATOM      9  C   UNL d   1     -38.616  15.660  15.890  0.00  0.00     0.002 A 
ENDROOT
BRANCH   3  10
ATOM     10  C   UNL d   1     -39.607  13.875  18.349  0.00  0.00     0.082 C 
BRANCH  10  11
ATOM     11  C   UNL d   1     -39.793  14.493  18.854  0.00  0.00     0.019 C 
BRANCH  11  12
ATOM     12  C   UNL d   1     -40.420  14.412  19.387  0.00  0.00     0.002 C 
BRANCH  12  13
ATOM     13  C   UNL d   1     -40.475  14.915  20.036  0.00  0.00     0.000 A 
ATOM     14  C   UNL d   1     -39.830  15.005  20.542  0.00  0.00     0.000 A 
ATOM     15  C   UNL d   1     -39.891  15.508  21.186  0.00  0.00     0.000 A 
ATOM     16  C   UNL d   1     -40.589  15.922  21.330  0.00  0.00     0.000 A 
ATOM     17  C   UNL d   1     -41.234  15.830  20.821  0.00  0.00     0.000 A 
ATOM     18  C   UNL d   1     -41.174  15.330  20.179  0.00  0.00     0.000 A 
ENDBRANCH  12  13
ENDBRANCH  11  12
ENDBRANCH  10  11
ENDBRANCH   3  10
BRANCH   1  19
ATOM     19  C   UNL d   1     -38.607  12.699  17.663  0.00  0.00     0.230 C 
ATOM     20  O   UNL d   1     -39.075  12.044  17.486  0.00  0.00    -0.283 OA
ATOM     21  C   UNL d   1     -37.968  12.580  18.169  0.00  0.00     0.049 C 
ENDBRANCH   1  19
TORSDOF 5
ENDMDL
MODEL 7
REMARK VINA RESULT:      -5.1      2.410      4.920
REMARK  5 active torsions:
REMARK  status: ('A' for Active; 'I' for Inactive)
REMARK    1  A    between atoms: C_6  and  C_1 
REMARK    2  A    between atoms: C_8  and  N_3 
REMARK    3  A    between atoms: C_7  and  C_8 
REMARK    4  A    between atoms: C_9  and  C_7 
REMARK    5  A    between atoms: C_10  and  C_9 
ROOT
ATOM      1  C   UNL d   1     -45.703  11.242  23.278  0.00  0.00     0.187 A 
ATOM      2  N   UNL d   1     -45.012  11.569  22.935  0.00  0.00    -0.224 NA
ATOM      3  N   UNL d   1     -46.301  11.822  23.262  0.00  0.00    -0.287 N 
ATOM      4  C   UNL d   1     -45.991  12.504  22.913  0.00  0.00     0.083 A 
ATOM      5  C   UNL d   1     -45.199  12.353  22.711  0.00  0.00     0.099 A 
ATOM      6  C   UNL d   1     -46.318  13.256  22.746  0.00  0.00     0.019 A 
ATOM      7  C   UNL d   1     -44.732  12.941  22.345  0.00  0.00     0.021 A 
ATOM      8  C   UNL d   1     -45.859  13.839  22.385  0.00  0.00     0.002 A 
ATOM      9  C   UNL d   1     -45.068  13.682  22.185  0.00  0.00     0.002 A 
ENDROOT
BRANCH   3  10
ATOM     10  C   UNL d   1     -47.018  11.573  23.585  0.00  0.00     0.082 C 
BRANCH  10  11
ATOM     11  C   UNL d   1     -47.724  11.886  23.311  0.00  0.00     0.019 C 
BRANCH  11  12
ATOM     12  C   UNL d   1     -48.439  11.517  23.505  0.00  0.00     0.002 C 
BRANCH  12  13
ATOM     13  C   UNL d   1     -49.146  11.809  23.202  0.00  0.00     0.000 A 
ATOM     14  C   UNL d   1     -49.666  12.218  23.695  0.00  0.00     0.000 A 
ATOM     15  C   UNL d   1     -50.369  12.506  23.387  0.00  0.00     0.000 A 
ATOM     16  C   UNL d   1     -50.558  12.390  22.593  0.00  0.00     0.000 A 
ATOM     17  C   UNL d   1     -50.034  11.979  22.102  0.00  0.00     0.000 A 
ATOM     18  C   UNL d   1     -49.335  11.692  22.407  0.00  0.00     0.000 A 
ENDBRANCH  12  13
ENDBRANCH  11  12
ENDBRANCH  10  11
ENDBRANCH   3  10
BRANCH   1  19
ATOM     19  C   UNL d   1     -45.671  10.556  23.518  0.00  0.00     0.230 C 
ATOM     20  O   UNL d   1     -46.322  10.062  23.626  0.00  0.00    -0.283 OA
ATOM     21  C   UNL d   1     -44.929  10.247  23.695  0.00  0.00     0.049 C 
ENDBRANCH   1  19
TORSDOF 5
ENDMDL
MODEL 8
REMARK VINA RESULT:      -5.1      7.856     10.268
REMARK  5 active torsions:
REMARK  status: ('A' for Active; 'I' for Inactive)
REMARK    1  A    between atoms: C_6  and  C_1 
REMARK    2  A    between atoms: C_8  and  N_3 
REMARK    3  A    between atoms: C_7  and  C_8 
REMARK    4  A    between atoms: C_9  and  C_7 
REMARK    5  A    between atoms: C_10  and  C_9 
ROOT
ATOM      1  C   UNL d   1     -40.374  14.621  20.714  0.00  0.00     0.187 A 
ATOM      2  N   UNL d   1     -40.071  14.854  21.460  0.00  0.00    -0.224 NA
ATOM      3  N   UNL d   1     -39.828  14.852  20.128  0.00  0.00    -0.287 N 
ATOM      4  C   UNL d   1     -39.192  15.226  20.500  0.00  0.00     0.083 A 
ATOM      5  C   UNL d   1     -39.337  15.229  21.319  0.00  0.00     0.099 A 
ATOM      6  C   UNL d   1     -38.486  15.571  20.209  0.00  0.00     0.019 A 
ATOM      7  C   UNL d   1     -38.789  15.572  21.848  0.00  0.00     0.021 A 
ATOM      8  C   UNL d   1     -37.943  15.909  20.731  0.00  0.00     0.002 A 
ATOM      9  C   UNL d   1     -38.094  15.910  21.548  0.00  0.00     0.002 A 
ENDROOT
BRANCH   3  10
ATOM     10  C   UNL d   1     -40.057  14.655  19.360  0.00  0.00     0.082 C 
BRANCH  10  11
ATOM     11  C   UNL d   1     -39.508  14.357  18.830  0.00  0.00     0.019 C 
BRANCH  11  12
ATOM     12  C   UNL d   1     -39.744  14.161  18.062  0.00  0.00     0.002 C 
BRANCH  12  13
ATOM     13  C   UNL d   1     -39.209  13.806  17.547  0.00  0.00     0.000 A 
ATOM     14  C   UNL d   1     -38.930  13.046  17.702  0.00  0.00     0.000 A 
ATOM     15  C   UNL d   1     -38.397  12.699  17.185  0.00  0.00     0.000 A 
ATOM     16  C   UNL d   1     -38.140  13.103  16.514  0.00  0.00     0.000 A 
ATOM     17  C   UNL d   1     -38.422  13.866  16.361  0.00  0.00     0.000 A 
ATOM     18  C   UNL d   1     -38.952  14.212  16.875  0.00  0.00     0.000 A 
ENDBRANCH  12  13
ENDBRANCH  11  12
ENDBRANCH  10  11
ENDBRANCH   3  10
BRANCH   1  19
ATOM     19  C   UNL d   1     -41.016  14.279  20.699  0.00  0.00     0.230 C 
ATOM     20  O   UNL d   1     -41.118  13.465  20.624  0.00  0.00    -0.283 OA
ATOM     21  C   UNL d   1     -41.695  14.741  20.763  0.00  0.00     0.049 C 
ENDBRANCH   1  19
TORSDOF 5
ENDMDL
