MODEL 1
REMARK VINA RESULT:      13.8      0.000      0.000
REMARK  3 active torsions:
REMARK  status: ('A' for Active; 'I' for Inactive)
REMARK    1  A    between atoms: C_2  and  C_1 
REMARK    2  A    between atoms: C_4  and  C_1 
REMARK    3  A    between atoms: C_3  and  C_2 
ROOT
ATOM      1  C   UNL d   1     -57.739 -98.773 -44.490  0.00  0.00     0.000 A 
ATOM      2  C   UNL d   1     -58.408 -98.768 -43.996  0.00  0.00     0.000 A 
ATOM      3  C   UNL d   1     -59.145 -98.760 -44.323  0.00  0.00     0.000 A 
ATOM      4  C   UNL d   1     -58.579 -98.760 -45.647  0.00  0.00     0.000 A 
ATOM      5  C   UNL d   1     -57.825 -98.769 -45.313  0.00  0.00     0.000 A 
ATOM      6  C   UNL d   1     -58.315 -98.773 -43.190  0.00  0.00     0.000 A 
ATOM      7  C   UNL d   1     -59.248 -98.755 -45.158  0.00  0.00     0.000 A 
ATOM      8  C   UNL d   1     -59.823 -98.755 -43.858  0.00  0.00     0.000 A 
ATOM      9  C   UNL d   1     -58.980 -98.768 -42.704  0.00  0.00     0.000 A 
ATOM     10  C   UNL d   1     -59.735 -98.759 -43.038  0.00  0.00     0.000 A 
ENDROOT
BRANCH   1  11
ATOM     11  C   UNL d   1     -56.984 -98.782 -44.155  0.00  0.00     0.006 C 
BRANCH  11  12
ATOM     12  C   UNL d   1     -56.324 -98.767 -44.627  0.00  0.00     0.070 C 
BRANCH  12  13
ATOM     13  C   UNL d   1     -55.646 -99.210 -44.422  0.00  0.00     0.211 C 
ATOM     14  O   UNL d   1     -54.896 -98.918 -44.555  0.00  0.00    -0.644 OA
ATOM     15  O   UNL d   1     -55.719 -99.957 -44.078  0.00  0.00    -0.644 OA
ENDBRANCH  12  13
ENDBRANCH  11  12
ENDBRANCH   1  11
TORSDOF 3
ENDMDL
