MODEL 1
REMARK VINA RESULT:      -2.5      0.000      0.000
REMARK  5 active torsions:
REMARK  status: ('A' for Active; 'I' for Inactive)
REMARK    1  A    between atoms: C_7  and  C_1 
REMARK    2  A    between atoms: C_13  and  N_3 
REMARK       I    between atoms: C_6  and  N_10 
REMARK    3  A    between atoms: C_8  and  C_6 
REMARK    4  A    between atoms: C_14  and  C_7 
REMARK    5  A    between atoms: N_10  and  C_14 
ROOT
ATOM      1  C   UNL d   1     -41.491-121.821 -52.009  0.00  0.00     0.058 C 
ENDROOT
BRANCH   1   2
ATOM      2  C   UNL d   1     -41.532-122.211 -52.738  0.00  0.00     0.149 A 
ATOM      3  N   UNL d   1     -41.243-122.960 -52.902  0.00  0.00    -0.227 NA
ATOM      4  C   UNL d   1     -41.400-123.130 -53.691  0.00  0.00     0.099 A 
ATOM      5  C   UNL d   1     -41.235-123.803 -54.154  0.00  0.00     0.021 A 
ATOM      6  C   UNL d   1     -41.790-122.482 -54.022  0.00  0.00     0.083 A 
ATOM      7  C   UNL d   1     -41.465-123.814 -54.949  0.00  0.00     0.002 A 
ATOM      8  C   UNL d   1     -41.854-123.165 -55.275  0.00  0.00     0.002 A 
ATOM      9  C   UNL d   1     -42.020-122.494 -54.817  0.00  0.00     0.019 A 
ATOM     10  N   UNL d   1     -41.872-121.908 -53.429  0.00  0.00    -0.289 N 
BRANCH  10  11
ATOM     11  C   UNL d   1     -42.229-121.167 -53.509  0.00  0.00     0.082 C 
ATOM     12  C   UNL d   1     -41.809-120.544 -53.856  0.00  0.00     0.021 C 
ENDBRANCH  10  11
ENDBRANCH   1   2
BRANCH   1  13
ATOM     13  C   UNL d   1     -41.604-122.251 -51.309  0.00  0.00     0.105 C 
BRANCH  13  14
ATOM     14  N   UNL d   1     -41.210-122.037 -50.624  0.00  0.00    -0.206 NA
ATOM     15  C   UNL d   1     -41.531-122.220 -49.885  0.00  0.00     0.279 C 
ATOM     16  O   UNL d   1     -41.129-122.002 -49.203  0.00  0.00    -0.265 OA
BRANCH  15  17
ATOM     17  C   UNL d   1     -42.249-122.616 -49.838  0.00  0.00     0.058 A 
ATOM     18  C   UNL d   1     -42.933-122.253 -50.111  0.00  0.00     0.007 A 
ATOM     19  C   UNL d   1     -43.651-122.649 -50.063  0.00  0.00     0.030 A 
ATOM     20  C   UNL d   1     -43.693-123.407 -49.744  0.00  0.00     0.140 A 
ATOM     21  C   UNL d   1     -43.004-123.765 -49.472  0.00  0.00     0.030 A 
ATOM     22  F   UNL d   1     -44.419-123.810 -49.694  0.00  0.00    -0.204 F 
ATOM     23  C   UNL d   1     -42.291-123.374 -49.518  0.00  0.00     0.007 A 
ENDBRANCH  15  17
ENDBRANCH  13  14
ENDBRANCH   1  13
TORSDOF 5
ENDMDL
MODEL 2
REMARK VINA RESULT:      -1.7      2.127      4.529
REMARK  5 active torsions:
REMARK  status: ('A' for Active; 'I' for Inactive)
REMARK    1  A    between atoms: C_7  and  C_1 
REMARK    2  A    between atoms: C_13  and  N_3 
REMARK       I    between atoms: C_6  and  N_10 
REMARK    3  A    between atoms: C_8  and  C_6 
REMARK    4  A    between atoms: C_14  and  C_7 
REMARK    5  A    between atoms: N_10  and  C_14 
ROOT
ATOM      1  C   UNL d   1     -41.122-122.566 -52.482  0.00  0.00     0.058 C 
ENDROOT
BRANCH   1   2
ATOM      2  C   UNL d   1     -41.486-122.710 -51.752  0.00  0.00     0.149 A 
ATOM      3  N   UNL d   1     -41.881-123.394 -51.537  0.00  0.00    -0.227 NA
ATOM      4  C   UNL d   1     -42.155-123.302 -50.767  0.00  0.00     0.099 A 
ATOM      5  C   UNL d   1     -42.587-123.813 -50.270  0.00  0.00     0.021 A 
ATOM      6  C   UNL d   1     -41.929-122.555 -50.501  0.00  0.00     0.083 A 
ATOM      7  C   UNL d   1     -42.787-123.563 -49.507  0.00  0.00     0.002 A 
ATOM      8  C   UNL d   1     -42.560-122.816 -49.245  0.00  0.00     0.002 A 
ATOM      9  C   UNL d   1     -42.130-122.305 -49.738  0.00  0.00     0.019 A 
ATOM     10  N   UNL d   1     -41.512-122.185 -51.114  0.00  0.00    -0.289 N 
BRANCH  10  11
ATOM     11  C   UNL d   1     -41.180-121.427 -51.096  0.00  0.00     0.082 C 
ATOM     12  C   UNL d   1     -41.473-120.864 -50.564  0.00  0.00     0.021 C 
ENDBRANCH  10  11
ENDBRANCH   1   2
BRANCH   1  13
ATOM     13  C   UNL d   1     -41.535-122.726 -53.183  0.00  0.00     0.105 C 
BRANCH  13  14
ATOM     14  N   UNL d   1     -41.269-123.306 -53.697  0.00  0.00    -0.206 NA
ATOM     15  C   UNL d   1     -41.397-123.231 -54.510  0.00  0.00     0.279 C 
ATOM     16  O   UNL d   1     -41.127-123.817 -55.018  0.00  0.00    -0.265 OA
BRANCH  15  17
ATOM     17  C   UNL d   1     -41.791-122.573 -54.804  0.00  0.00     0.058 A 
ATOM     18  C   UNL d   1     -42.536-122.661 -55.138  0.00  0.00     0.007 A 
ATOM     19  C   UNL d   1     -42.930-122.004 -55.432  0.00  0.00     0.030 A 
ATOM     20  C   UNL d   1     -42.587-121.256 -55.396  0.00  0.00     0.140 A 
ATOM     21  C   UNL d   1     -41.841-121.174 -55.059  0.00  0.00     0.030 A 
ATOM     22  F   UNL d   1     -42.985-120.589 -55.693  0.00  0.00    -0.204 F 
ATOM     23  C   UNL d   1     -41.448-121.825 -54.767  0.00  0.00     0.007 A 
ENDBRANCH  15  17
ENDBRANCH  13  14
ENDBRANCH   1  13
TORSDOF 5
ENDMDL
MODEL 3
REMARK VINA RESULT:       0.2      1.826      4.389
REMARK  5 active torsions:
REMARK  status: ('A' for Active; 'I' for Inactive)
REMARK    1  A    between atoms: C_7  and  C_1 
REMARK    2  A    between atoms: C_13  and  N_3 
REMARK       I    between atoms: C_6  and  N_10 
REMARK    3  A    between atoms: C_8  and  C_6 
REMARK    4  A    between atoms: C_14  and  C_7 
REMARK    5  A    between atoms: N_10  and  C_14 
ROOT
ATOM      1  C   UNL d   1     -41.226-122.772 -51.901  0.00  0.00     0.058 C 
ENDROOT
BRANCH   1   2
ATOM      2  C   UNL d   1     -41.734-122.920 -51.264  0.00  0.00     0.149 A 
ATOM      3  N   UNL d   1     -42.370-123.436 -51.264  0.00  0.00    -0.227 NA
ATOM      4  C   UNL d   1     -42.722-123.413 -50.522  0.00  0.00     0.099 A 
ATOM      5  C   UNL d   1     -43.381-123.817 -50.210  0.00  0.00     0.021 A 
ATOM      6  C   UNL d   1     -42.302-122.878 -50.054  0.00  0.00     0.083 A 
ATOM      7  C   UNL d   1     -43.608-123.677 -49.426  0.00  0.00     0.002 A 
ATOM      8  C   UNL d   1     -43.186-123.143 -48.963  0.00  0.00     0.002 A 
ATOM      9  C   UNL d   1     -42.531-122.739 -49.271  0.00  0.00     0.019 A 
ATOM     10  N   UNL d   1     -41.686-122.570 -50.516  0.00  0.00    -0.289 N 
BRANCH  10  11
ATOM     11  C   UNL d   1     -41.123-122.014 -50.276  0.00  0.00     0.082 C 
ATOM     12  C   UNL d   1     -41.360-121.243 -50.092  0.00  0.00     0.021 C 
ENDBRANCH  10  11
ENDBRANCH   1   2
BRANCH   1  13
ATOM     13  C   UNL d   1     -41.538-122.496 -52.617  0.00  0.00     0.105 C 
BRANCH  13  14
ATOM     14  N   UNL d   1     -41.337-121.754 -52.898  0.00  0.00    -0.206 NA
ATOM     15  C   UNL d   1     -41.480-121.555 -53.687  0.00  0.00     0.279 C 
ATOM     16  O   UNL d   1     -41.275-120.808 -53.960  0.00  0.00    -0.265 OA
BRANCH  15  17
ATOM     17  C   UNL d   1     -41.825-122.103 -54.191  0.00  0.00     0.058 A 
ATOM     18  C   UNL d   1     -41.531-122.870 -54.222  0.00  0.00     0.007 A 
ATOM     19  C   UNL d   1     -41.876-123.418 -54.727  0.00  0.00     0.030 A 
ATOM     20  C   UNL d   1     -42.514-123.209 -55.203  0.00  0.00     0.140 A 
ATOM     21  C   UNL d   1     -42.804-122.440 -55.168  0.00  0.00     0.030 A 
ATOM     22  F   UNL d   1     -42.865-123.763 -55.715  0.00  0.00    -0.204 F 
ATOM     23  C   UNL d   1     -42.464-121.894 -54.668  0.00  0.00     0.007 A 
ENDBRANCH  15  17
ENDBRANCH  13  14
ENDBRANCH   1  13
TORSDOF 5
ENDMDL
