MODEL 1
REMARK VINA RESULT:       8.6      0.000      0.000
REMARK  2 active torsions:
REMARK  status: ('A' for Active; 'I' for Inactive)
REMARK    1  A    between atoms: C_6  and  C_3 
REMARK    2  A    between atoms: O_13  and  C_10 
ROOT
ATOM      1  C   UNL d   1     -51.519  24.975  33.328  0.00  0.00     0.018 A 
ATOM      2  C   UNL d   1     -52.027  25.610  33.324  0.00  0.00     0.004 A 
ATOM      3  C   UNL d   1     -50.711  25.100  33.330  0.00  0.00     0.004 A 
ATOM      4  C   UNL d   1     -50.911  26.501  33.324  0.00  0.00     0.094 A 
ATOM      5  C   UNL d   1     -50.404  25.866  33.328  0.00  0.00     0.024 A 
ATOM      6  C   UNL d   1     -51.737  26.384  33.322  0.00  0.00     0.024 A 
ENDROOT
BRANCH   1   7
ATOM      7  C   UNL d   1     -52.169  24.456  33.329  0.00  0.00     0.090 A 
ATOM      8  N   UNL d   1     -52.997  24.406  33.338  0.00  0.00    -0.219 NA
ATOM      9  C   UNL d   1     -53.185  23.604  33.329  0.00  0.00     0.215 A 
ATOM     10  S   UNL d   1     -52.502  23.190  33.314  0.00  0.00    -0.045 SA
ATOM     11  N   UNL d   1     -53.947  23.253  33.333  0.00  0.00    -0.120 N 
ATOM     12  C   UNL d   1     -51.869  23.696  33.314  0.00  0.00     0.058 A 
ENDBRANCH   1   7
BRANCH   4  13
ATOM     13  O   UNL d   1     -50.610  27.285  33.322  0.00  0.00    -0.328 OA
ATOM     14  C   UNL d   1     -51.126  27.934  33.382  0.00  0.00     0.181 C 
ENDBRANCH   4  13
TORSDOF 2
ENDMDL
MODEL 2
REMARK VINA RESULT:       9.2      2.214      3.339
REMARK  2 active torsions:
REMARK  status: ('A' for Active; 'I' for Inactive)
REMARK    1  A    between atoms: C_6  and  C_3 
REMARK    2  A    between atoms: O_13  and  C_10 
ROOT
ATOM      1  C   UNL d   1     -51.325  24.828  33.315  0.00  0.00     0.018 A 
ATOM      2  C   UNL d   1     -52.081  25.127  33.308  0.00  0.00     0.004 A 
ATOM      3  C   UNL d   1     -51.208  24.018  33.319  0.00  0.00     0.004 A 
ATOM      4  C   UNL d   1     -52.606  23.799  33.312  0.00  0.00     0.094 A 
ATOM      5  C   UNL d   1     -51.850  23.500  33.318  0.00  0.00     0.024 A 
ATOM      6  C   UNL d   1     -52.736  24.622  33.307  0.00  0.00     0.024 A 
ENDROOT
BRANCH   1   7
ATOM      7  C   UNL d   1     -51.020  25.601  33.313  0.00  0.00     0.090 A 
ATOM      8  N   UNL d   1     -51.215  26.408  33.307  0.00  0.00    -0.219 NA
ATOM      9  C   UNL d   1     -50.503  26.822  33.310  0.00  0.00     0.215 A 
ATOM     10  S   UNL d   1     -49.907  26.291  33.317  0.00  0.00    -0.045 SA
ATOM     11  N   UNL d   1     -50.391  27.653  33.307  0.00  0.00    -0.120 N 
ATOM     12  C   UNL d   1     -50.205  25.538  33.319  0.00  0.00     0.058 A 
ENDBRANCH   1   7
BRANCH   4  13
ATOM     13  O   UNL d   1     -53.267  23.280  33.310  0.00  0.00    -0.328 OA
ATOM     14  C   UNL d   1     -54.039  23.585  33.336  0.00  0.00     0.181 C 
ENDBRANCH   4  13
TORSDOF 2
ENDMDL
