MODEL 1
REMARK VINA RESULT:      -6.1      0.000      0.000
REMARK  6 active torsions:
REMARK  status: ('A' for Active; 'I' for Inactive)
REMARK    1  A    between atoms: N_2  and  C_1 
REMARK       I    between atoms: C_4  and  N_2 
REMARK    2  A    between atoms: C_6  and  C_4 
REMARK    3  A    between atoms: C_9  and  C_6 
REMARK    4  A    between atoms: C_8  and  O_15 
REMARK    5  A    between atoms: O_15  and  C_9 
REMARK    6  A    between atoms: O_17  and  C_10 
ROOT
ATOM      1  C   UNL d   1      50.163  34.555  52.789  0.00  0.00     0.128 C 
ENDROOT
BRANCH   1   2
ATOM      2  C   UNL d   1      49.586  34.695  52.207  0.00  0.00     0.089 C 
BRANCH   2   3
ATOM      3  C   UNL d   1      48.905  35.118  52.400  0.00  0.00     0.283 C 
ATOM      4  N   UNL d   1      48.380  35.335  51.802  0.00  0.00    -0.183 NA
ATOM      5  O   UNL d   1      48.750  35.321  53.184  0.00  0.00    -0.265 OA
BRANCH   4   6
ATOM      6  C   UNL d   1      47.696  35.761  51.998  0.00  0.00     0.197 A 
ATOM      7  N   UNL d   1      47.657  36.439  52.462  0.00  0.00    -0.219 NA
ATOM      8  C   UNL d   1      46.874  36.670  52.510  0.00  0.00     0.108 A 
ATOM      9  C   UNL d   1      46.423  36.131  52.073  0.00  0.00     0.059 A 
ATOM     10  S   UNL d   1      46.930  35.568  51.756  0.00  0.00    -0.046 SA
ENDBRANCH   4   6
ENDBRANCH   2   3
ENDBRANCH   1   2
BRANCH   1  11
ATOM     11  O   UNL d   1      50.804  34.239  52.379  0.00  0.00    -0.305 OA
BRANCH  11  12
ATOM     12  C   UNL d   1      51.491  34.040  52.786  0.00  0.00     0.100 A 
ATOM     13  C   UNL d   1      51.602  33.266  53.056  0.00  0.00     0.027 A 
ATOM     14  C   UNL d   1      52.289  33.067  53.463  0.00  0.00     0.026 A 
ATOM     15  C   UNL d   1      52.868  33.638  53.601  0.00  0.00     0.094 A 
ATOM     16  C   UNL d   1      52.760  34.408  53.333  0.00  0.00     0.026 A 
ATOM     17  C   UNL d   1      52.070  34.611  52.924  0.00  0.00     0.027 A 
BRANCH  15  18
ATOM     18  O   UNL d   1      53.560  33.433  54.012  0.00  0.00    -0.328 OA
ATOM     19  C   UNL d   1      54.060  32.848  53.716  0.00  0.00     0.181 C 
ENDBRANCH  15  18
ENDBRANCH  11  12
ENDBRANCH   1  11
TORSDOF 6
ENDMDL
MODEL 2
REMARK VINA RESULT:      -6.0      2.550      5.406
REMARK  6 active torsions:
REMARK  status: ('A' for Active; 'I' for Inactive)
REMARK    1  A    between atoms: N_2  and  C_1 
REMARK       I    between atoms: C_4  and  N_2 
REMARK    2  A    between atoms: C_6  and  C_4 
REMARK    3  A    between atoms: C_9  and  C_6 
REMARK    4  A    between atoms: C_8  and  O_15 
REMARK    5  A    between atoms: O_15  and  C_9 
REMARK    6  A    between atoms: O_17  and  C_10 
ROOT
ATOM      1  C   UNL d   1      50.263  34.099  52.599  0.00  0.00     0.128 C 
ENDROOT
BRANCH   1   2
ATOM      2  C   UNL d   1      51.090  34.134  52.668  0.00  0.00     0.089 C 
BRANCH   2   3
ATOM      3  C   UNL d   1      51.506  33.477  52.946  0.00  0.00     0.283 C 
ATOM      4  N   UNL d   1      52.291  33.371  52.720  0.00  0.00    -0.183 NA
ATOM      5  O   UNL d   1      51.138  32.934  53.444  0.00  0.00    -0.265 OA
BRANCH   4   6
ATOM      6  C   UNL d   1      52.708  32.710  53.000  0.00  0.00     0.197 A 
ATOM      7  N   UNL d   1      52.635  31.937  52.730  0.00  0.00    -0.219 NA
ATOM      8  C   UNL d   1      53.148  31.468  53.161  0.00  0.00     0.108 A 
ATOM      9  C   UNL d   1      53.542  31.954  53.702  0.00  0.00     0.059 A 
ATOM     10  S   UNL d   1      53.271  32.723  53.604  0.00  0.00    -0.046 SA
ENDBRANCH   4   6
ENDBRANCH   2   3
ENDBRANCH   1   2
BRANCH   1  11
ATOM     11  O   UNL d   1      50.054  34.791  52.204  0.00  0.00    -0.305 OA
BRANCH  11  12
ATOM     12  C   UNL d   1      49.276  34.905  51.962  0.00  0.00     0.100 A 
ATOM     13  C   UNL d   1      49.033  34.644  51.215  0.00  0.00     0.027 A 
ATOM     14  C   UNL d   1      48.255  34.758  50.973  0.00  0.00     0.026 A 
ATOM     15  C   UNL d   1      47.716  35.132  51.473  0.00  0.00     0.094 A 
ATOM     16  C   UNL d   1      47.956  35.392  52.216  0.00  0.00     0.026 A 
ATOM     17  C   UNL d   1      48.737  35.279  52.462  0.00  0.00     0.027 A 
BRANCH  15  18
ATOM     18  O   UNL d   1      46.932  35.245  51.224  0.00  0.00    -0.328 OA
ATOM     19  C   UNL d   1      46.481  35.857  51.539  0.00  0.00     0.181 C 
ENDBRANCH  15  18
ENDBRANCH  11  12
ENDBRANCH   1  11
TORSDOF 6
ENDMDL
MODEL 3
REMARK VINA RESULT:      -5.9      3.803      4.790
REMARK  6 active torsions:
REMARK  status: ('A' for Active; 'I' for Inactive)
REMARK    1  A    between atoms: N_2  and  C_1 
REMARK       I    between atoms: C_4  and  N_2 
REMARK    2  A    between atoms: C_6  and  C_4 
REMARK    3  A    between atoms: C_9  and  C_6 
REMARK    4  A    between atoms: C_8  and  O_15 
REMARK    5  A    between atoms: O_15  and  C_9 
REMARK    6  A    between atoms: O_17  and  C_10 
ROOT
ATOM      1  C   UNL d   1      52.305  32.116  53.067  0.00  0.00     0.128 C 
ENDROOT
BRANCH   1   2
ATOM      2  C   UNL d   1      52.565  32.856  52.792  0.00  0.00     0.089 C 
BRANCH   2   3
ATOM      3  C   UNL d   1      52.484  33.522  53.272  0.00  0.00     0.283 C 
ATOM      4  N   UNL d   1      53.155  33.952  53.482  0.00  0.00    -0.183 NA
ATOM      5  O   UNL d   1      51.739  33.753  53.538  0.00  0.00    -0.265 OA
BRANCH   4   6
ATOM      6  C   UNL d   1      53.071  34.622  53.965  0.00  0.00     0.197 A 
ATOM      7  N   UNL d   1      52.723  35.336  53.754  0.00  0.00    -0.219 NA
ATOM      8  C   UNL d   1      52.761  35.839  54.399  0.00  0.00     0.108 A 
ATOM      9  C   UNL d   1      53.137  35.432  55.014  0.00  0.00     0.059 A 
ATOM     10  S   UNL d   1      53.329  34.679  54.748  0.00  0.00    -0.046 SA
ENDBRANCH   4   6
ENDBRANCH   2   3
ENDBRANCH   1   2
BRANCH   1  11
ATOM     11  O   UNL d   1      52.826  31.571  52.733  0.00  0.00    -0.305 OA
BRANCH  11  12
ATOM     12  C   UNL d   1      52.941  30.841  53.094  0.00  0.00     0.100 A 
ATOM     13  C   UNL d   1      53.671  30.662  53.440  0.00  0.00     0.027 A 
ATOM     14  C   UNL d   1      53.787  29.932  53.802  0.00  0.00     0.026 A 
ATOM     15  C   UNL d   1      53.176  29.378  53.820  0.00  0.00     0.094 A 
ATOM     16  C   UNL d   1      52.449  29.554  53.477  0.00  0.00     0.026 A 
ATOM     17  C   UNL d   1      52.330  30.287  53.113  0.00  0.00     0.027 A 
BRANCH  15  18
ATOM     18  O   UNL d   1      53.298  28.643  54.186  0.00  0.00    -0.328 OA
ATOM     19  C   UNL d   1      53.399  28.597  55.002  0.00  0.00     0.181 C 
ENDBRANCH  15  18
ENDBRANCH  11  12
ENDBRANCH   1  11
TORSDOF 6
ENDMDL
MODEL 4
REMARK VINA RESULT:      -5.9      2.743      5.401
REMARK  6 active torsions:
REMARK  status: ('A' for Active; 'I' for Inactive)
REMARK    1  A    between atoms: N_2  and  C_1 
REMARK       I    between atoms: C_4  and  N_2 
REMARK    2  A    between atoms: C_6  and  C_4 
REMARK    3  A    between atoms: C_9  and  C_6 
REMARK    4  A    between atoms: C_8  and  O_15 
REMARK    5  A    between atoms: O_15  and  C_9 
REMARK    6  A    between atoms: O_17  and  C_10 
ROOT
ATOM      1  C   UNL d   1      51.186  34.320  52.852  0.00  0.00     0.128 C 
ENDROOT
BRANCH   1   2
ATOM      2  C   UNL d   1      51.756  33.716  52.834  0.00  0.00     0.089 C 
BRANCH   2   3
ATOM      3  C   UNL d   1      52.450  33.797  53.272  0.00  0.00     0.283 C 
ATOM      4  N   UNL d   1      52.761  33.139  53.661  0.00  0.00    -0.183 NA
ATOM      5  O   UNL d   1      52.829  34.527  53.320  0.00  0.00    -0.265 OA
BRANCH   4   6
ATOM      6  C   UNL d   1      53.460  33.222  54.101  0.00  0.00     0.197 A 
ATOM      7  N   UNL d   1      53.539  33.603  54.825  0.00  0.00    -0.219 NA
ATOM      8  C   UNL d   1      54.322  33.551  55.057  0.00  0.00     0.108 A 
ATOM      9  C   UNL d   1      54.731  33.134  54.471  0.00  0.00     0.059 A 
ATOM     10  S   UNL d   1      54.200  32.929  53.879  0.00  0.00    -0.046 SA
ENDBRANCH   4   6
ENDBRANCH   2   3
ENDBRANCH   1   2
BRANCH   1  11
ATOM     11  O   UNL d   1      50.539  34.013  52.444  0.00  0.00    -0.305 OA
BRANCH  11  12
ATOM     12  C   UNL d   1      49.852  34.460  52.369  0.00  0.00     0.100 A 
ATOM     13  C   UNL d   1      49.451  34.483  51.646  0.00  0.00     0.027 A 
ATOM     14  C   UNL d   1      48.764  34.931  51.571  0.00  0.00     0.026 A 
ATOM     15  C   UNL d   1      48.475  35.356  52.216  0.00  0.00     0.094 A 
ATOM     16  C   UNL d   1      48.873  35.334  52.936  0.00  0.00     0.026 A 
ATOM     17  C   UNL d   1      49.563  34.886  53.014  0.00  0.00     0.027 A 
BRANCH  15  18
ATOM     18  O   UNL d   1      47.782  35.806  52.136  0.00  0.00    -0.328 OA
ATOM     19  C   UNL d   1      47.620  36.416  52.664  0.00  0.00     0.181 C 
ENDBRANCH  15  18
ENDBRANCH  11  12
ENDBRANCH   1  11
TORSDOF 6
ENDMDL
MODEL 5
REMARK VINA RESULT:      -5.8      1.796      2.489
REMARK  6 active torsions:
REMARK  status: ('A' for Active; 'I' for Inactive)
REMARK    1  A    between atoms: N_2  and  C_1 
REMARK       I    between atoms: C_4  and  N_2 
REMARK    2  A    between atoms: C_6  and  C_4 
REMARK    3  A    between atoms: C_9  and  C_6 
REMARK    4  A    between atoms: C_8  and  O_15 
REMARK    5  A    between atoms: O_15  and  C_9 
REMARK    6  A    between atoms: O_17  and  C_10 
ROOT
ATOM      1  C   UNL d   1      51.700  33.101  53.159  0.00  0.00     0.128 C 
ENDROOT
BRANCH   1   2
ATOM      2  C   UNL d   1      51.479  33.787  52.748  0.00  0.00     0.089 C 
BRANCH   2   3
ATOM      3  C   UNL d   1      50.730  34.112  52.868  0.00  0.00     0.283 C 
ATOM      4  N   UNL d   1      50.367  34.529  52.255  0.00  0.00    -0.183 NA
ATOM      5  O   UNL d   1      50.349  34.021  53.593  0.00  0.00    -0.265 OA
BRANCH   4   6
ATOM      6  C   UNL d   1      49.614  34.855  52.378  0.00  0.00     0.197 A 
ATOM      7  N   UNL d   1      49.366  35.279  53.037  0.00  0.00    -0.219 NA
ATOM      8  C   UNL d   1      48.585  35.494  52.924  0.00  0.00     0.108 A 
ATOM      9  C   UNL d   1      48.347  35.201  52.187  0.00  0.00     0.059 A 
ATOM     10  S   UNL d   1      48.982  34.805  51.848  0.00  0.00    -0.046 SA
ENDBRANCH   4   6
ENDBRANCH   2   3
ENDBRANCH   1   2
BRANCH   1  11
ATOM     11  O   UNL d   1      52.410  32.867  52.814  0.00  0.00    -0.305 OA
BRANCH  11  12
ATOM     12  C   UNL d   1      52.755  32.151  53.030  0.00  0.00     0.100 A 
ATOM     13  C   UNL d   1      52.431  31.439  52.762  0.00  0.00     0.027 A 
ATOM     14  C   UNL d   1      52.775  30.723  52.978  0.00  0.00     0.026 A 
ATOM     15  C   UNL d   1      53.443  30.715  53.463  0.00  0.00     0.094 A 
ATOM     16  C   UNL d   1      53.766  31.422  53.731  0.00  0.00     0.026 A 
ATOM     17  C   UNL d   1      53.422  32.143  53.515  0.00  0.00     0.027 A 
BRANCH  15  18
ATOM     18  O   UNL d   1      53.786  29.991  53.679  0.00  0.00    -0.328 OA
ATOM     19  C   UNL d   1      53.347  29.430  54.093  0.00  0.00     0.181 C 
ENDBRANCH  15  18
ENDBRANCH  11  12
ENDBRANCH   1  11
TORSDOF 6
ENDMDL
MODEL 6
REMARK VINA RESULT:      -4.6     10.143     10.594
REMARK  6 active torsions:
REMARK  status: ('A' for Active; 'I' for Inactive)
REMARK    1  A    between atoms: N_2  and  C_1 
REMARK       I    between atoms: C_4  and  N_2 
REMARK    2  A    between atoms: C_6  and  C_4 
REMARK    3  A    between atoms: C_9  and  C_6 
REMARK    4  A    between atoms: C_8  and  O_15 
REMARK    5  A    between atoms: O_15  and  C_9 
REMARK    6  A    between atoms: O_17  and  C_10 
ROOT
ATOM      1  C   UNL d   1      44.855  29.372  58.868  0.00  0.00     0.128 C 
ENDROOT
BRANCH   1   2
ATOM      2  C   UNL d   1      45.268  29.990  59.239  0.00  0.00     0.089 C 
BRANCH   2   3
ATOM      3  C   UNL d   1      44.923  30.388  59.874  0.00  0.00     0.283 C 
ATOM      4  N   UNL d   1      45.193  30.239  60.639  0.00  0.00    -0.183 NA
ATOM      5  O   UNL d   1      44.316  30.929  59.744  0.00  0.00    -0.265 OA
BRANCH   4   6
ATOM      6  C   UNL d   1      44.846  30.640  61.276  0.00  0.00     0.197 A 
ATOM      7  N   UNL d   1      44.647  31.437  61.302  0.00  0.00    -0.219 NA
ATOM      8  C   UNL d   1      44.319  31.595  62.035  0.00  0.00     0.108 A 
ATOM      9  C   UNL d   1      44.315  30.889  62.467  0.00  0.00     0.059 A 
ATOM     10  S   UNL d   1      44.641  30.297  62.000  0.00  0.00    -0.046 SA
ENDBRANCH   4   6
ENDBRANCH   2   3
ENDBRANCH   1   2
BRANCH   1  11
ATOM     11  O   UNL d   1      45.419  28.990  58.404  0.00  0.00    -0.305 OA
BRANCH  11  12
ATOM     12  C   UNL d   1      45.196  28.357  57.927  0.00  0.00     0.100 A 
ATOM     13  C   UNL d   1      44.865  28.497  57.182  0.00  0.00     0.027 A 
ATOM     14  C   UNL d   1      44.642  27.864  56.705  0.00  0.00     0.026 A 
ATOM     15  C   UNL d   1      44.748  27.090  56.969  0.00  0.00     0.094 A 
ATOM     16  C   UNL d   1      45.077  26.949  57.710  0.00  0.00     0.026 A 
ATOM     17  C   UNL d   1      45.302  27.582  58.191  0.00  0.00     0.027 A 
BRANCH  15  18
ATOM     18  O   UNL d   1      44.521  26.455  56.485  0.00  0.00    -0.328 OA
ATOM     19  C   UNL d   1      44.965  25.762  56.475  0.00  0.00     0.181 C 
ENDBRANCH  15  18
ENDBRANCH  11  12
ENDBRANCH   1  11
TORSDOF 6
ENDMDL
MODEL 7
REMARK VINA RESULT:      -4.2     10.595     11.033
REMARK  6 active torsions:
REMARK  status: ('A' for Active; 'I' for Inactive)
REMARK    1  A    between atoms: N_2  and  C_1 
REMARK       I    between atoms: C_4  and  N_2 
REMARK    2  A    between atoms: C_6  and  C_4 
REMARK    3  A    between atoms: C_9  and  C_6 
REMARK    4  A    between atoms: C_8  and  O_15 
REMARK    5  A    between atoms: O_15  and  C_9 
REMARK    6  A    between atoms: O_17  and  C_10 
ROOT
ATOM      1  C   UNL d   1      45.031  26.816  57.129  0.00  0.00     0.128 C 
ENDROOT
BRANCH   1   2
ATOM      2  C   UNL d   1      44.949  27.630  56.985  0.00  0.00     0.089 C 
BRANCH   2   3
ATOM      3  C   UNL d   1      45.126  28.171  57.582  0.00  0.00     0.283 C 
ATOM      4  N   UNL d   1      44.627  28.816  57.704  0.00  0.00    -0.183 NA
ATOM      5  O   UNL d   1      45.795  28.067  58.052  0.00  0.00    -0.265 OA
BRANCH   4   6
ATOM      6  C   UNL d   1      44.806  29.359  58.305  0.00  0.00     0.197 A 
ATOM      7  N   UNL d   1      44.775  29.219  59.115  0.00  0.00    -0.219 NA
ATOM      8  C   UNL d   1      44.996  29.906  59.501  0.00  0.00     0.108 A 
ATOM      9  C   UNL d   1      45.165  30.476  58.925  0.00  0.00     0.059 A 
ATOM     10  S   UNL d   1      45.048  30.140  58.185  0.00  0.00    -0.046 SA
ENDBRANCH   4   6
ENDBRANCH   2   3
ENDBRANCH   1   2
BRANCH   1  11
ATOM     11  O   UNL d   1      44.700  26.450  56.469  0.00  0.00    -0.305 OA
BRANCH  11  12
ATOM     12  C   UNL d   1      44.658  25.629  56.434  0.00  0.00     0.100 A 
ATOM     13  C   UNL d   1      44.900  25.231  55.750  0.00  0.00     0.027 A 
ATOM     14  C   UNL d   1      44.859  24.410  55.716  0.00  0.00     0.026 A 
ATOM     15  C   UNL d   1      44.576  23.983  56.362  0.00  0.00     0.094 A 
ATOM     16  C   UNL d   1      44.335  24.376  57.043  0.00  0.00     0.026 A 
ATOM     17  C   UNL d   1      44.375  25.201  57.081  0.00  0.00     0.027 A 
BRANCH  15  18
ATOM     18  O   UNL d   1      44.535  23.154  56.323  0.00  0.00    -0.328 OA
ATOM     19  C   UNL d   1      45.151  22.694  56.618  0.00  0.00     0.181 C 
ENDBRANCH  15  18
ENDBRANCH  11  12
ENDBRANCH   1  11
TORSDOF 6
ENDMDL
MODEL 8
REMARK VINA RESULT:      -4.2     11.007     11.502
REMARK  6 active torsions:
REMARK  status: ('A' for Active; 'I' for Inactive)
REMARK    1  A    between atoms: N_2  and  C_1 
REMARK       I    between atoms: C_4  and  N_2 
REMARK    2  A    between atoms: C_6  and  C_4 
REMARK    3  A    between atoms: C_9  and  C_6 
REMARK    4  A    between atoms: C_8  and  O_15 
REMARK    5  A    between atoms: O_15  and  C_9 
REMARK    6  A    between atoms: O_17  and  C_10 
ROOT
ATOM      1  C   UNL d   1      44.922  25.565  56.066  0.00  0.00     0.128 C 
ENDROOT
BRANCH   1   2
ATOM      2  C   UNL d   1      44.674  25.936  56.767  0.00  0.00     0.089 C 
BRANCH   2   3
ATOM      3  C   UNL d   1      44.923  26.704  56.933  0.00  0.00     0.283 C 
ATOM      4  N   UNL d   1      44.471  27.176  57.437  0.00  0.00    -0.183 NA
ATOM      5  O   UNL d   1      45.617  26.997  56.599  0.00  0.00    -0.265 OA
BRANCH   4   6
ATOM      6  C   UNL d   1      44.723  27.948  57.604  0.00  0.00     0.197 A 
ATOM      7  N   UNL d   1      44.627  28.608  57.122  0.00  0.00    -0.219 NA
ATOM      8  C   UNL d   1      44.958  29.252  57.503  0.00  0.00     0.108 A 
ATOM      9  C   UNL d   1      45.262  28.989  58.227  0.00  0.00     0.059 A 
ATOM     10  S   UNL d   1      45.118  28.183  58.291  0.00  0.00    -0.046 SA
ENDBRANCH   4   6
ENDBRANCH   2   3
ENDBRANCH   1   2
BRANCH   1  11
ATOM     11  O   UNL d   1      44.484  24.869  56.028  0.00  0.00    -0.305 OA
BRANCH  11  12
ATOM     12  C   UNL d   1      44.629  24.326  55.427  0.00  0.00     0.100 A 
ATOM     13  C   UNL d   1      45.092  23.657  55.577  0.00  0.00     0.027 A 
ATOM     14  C   UNL d   1      45.237  23.114  54.975  0.00  0.00     0.026 A 
ATOM     15  C   UNL d   1      44.922  23.236  54.223  0.00  0.00     0.094 A 
ATOM     16  C   UNL d   1      44.462  23.901  54.072  0.00  0.00     0.026 A 
ATOM     17  C   UNL d   1      44.314  24.448  54.674  0.00  0.00     0.027 A 
BRANCH  15  18
ATOM     18  O   UNL d   1      45.072  22.686  53.619  0.00  0.00    -0.328 OA
ATOM     19  C   UNL d   1      44.745  21.930  53.657  0.00  0.00     0.181 C 
ENDBRANCH  15  18
ENDBRANCH  11  12
ENDBRANCH   1  11
TORSDOF 6
ENDMDL
MODEL 9
REMARK VINA RESULT:      -3.4     16.872     17.728
REMARK  6 active torsions:
REMARK  status: ('A' for Active; 'I' for Inactive)
REMARK    1  A    between atoms: N_2  and  C_1 
REMARK       I    between atoms: C_4  and  N_2 
REMARK    2  A    between atoms: C_6  and  C_4 
REMARK    3  A    between atoms: C_9  and  C_6 
REMARK    4  A    between atoms: C_8  and  O_15 
REMARK    5  A    between atoms: O_15  and  C_9 
REMARK    6  A    between atoms: O_17  and  C_10 
ROOT
ATOM      1  C   UNL d   1      47.184  26.115  67.504  0.00  0.00     0.128 C 
ENDROOT
BRANCH   1   2
ATOM      2  C   UNL d   1      47.430  26.907  67.554  0.00  0.00     0.089 C 
BRANCH   2   3
ATOM      3  C   UNL d   1      48.235  27.082  67.607  0.00  0.00     0.283 C 
ATOM      4  N   UNL d   1      48.490  27.854  67.468  0.00  0.00    -0.183 NA
ATOM      5  O   UNL d   1      48.777  26.491  67.797  0.00  0.00    -0.265 OA
BRANCH   4   6
ATOM      6  C   UNL d   1      49.300  28.028  67.522  0.00  0.00     0.197 A 
ATOM      7  N   UNL d   1      49.916  27.595  67.193  0.00  0.00    -0.219 NA
ATOM      8  C   UNL d   1      50.619  27.967  67.384  0.00  0.00     0.108 A 
ATOM      9  C   UNL d   1      50.437  28.637  67.835  0.00  0.00     0.059 A 
ATOM     10  S   UNL d   1      49.621  28.676  67.921  0.00  0.00    -0.046 SA
ENDBRANCH   4   6
ENDBRANCH   2   3
ENDBRANCH   1   2
BRANCH   1  11
ATOM     11  O   UNL d   1      46.362  26.151  67.461  0.00  0.00    -0.305 OA
BRANCH  11  12
ATOM     12  C   UNL d   1      45.930  25.469  67.301  0.00  0.00     0.100 A 
ATOM     13  C   UNL d   1      45.536  25.389  66.578  0.00  0.00     0.027 A 
ATOM     14  C   UNL d   1      45.105  24.707  66.418  0.00  0.00     0.026 A 
ATOM     15  C   UNL d   1      45.064  24.102  66.978  0.00  0.00     0.094 A 
ATOM     16  C   UNL d   1      45.455  24.180  67.697  0.00  0.00     0.026 A 
ATOM     17  C   UNL d   1      45.890  24.864  67.861  0.00  0.00     0.027 A 
BRANCH  15  18
ATOM     18  O   UNL d   1      44.627  23.416  66.812  0.00  0.00    -0.328 OA
ATOM     19  C   UNL d   1      44.852  22.920  66.194  0.00  0.00     0.181 C 
ENDBRANCH  15  18
ENDBRANCH  11  12
ENDBRANCH   1  11
TORSDOF 6
ENDMDL
