MODEL 1
REMARK VINA RESULT:      -1.4      0.000      0.000
REMARK  4 active torsions:
REMARK  status: ('A' for Active; 'I' for Inactive)
REMARK    1  A    between atoms: N_5  and  C_1 
REMARK    2  A    between atoms: C_8  and  C_2 
REMARK       I    between atoms: C_7  and  N_5 
REMARK    3  A    between atoms: C_10  and  C_7 
REMARK    4  A    between atoms: N_9  and  C_8 
ROOT
ATOM      1  C   UNL d   1      57.809  -0.917  30.356  0.00  0.00     0.115 A 
ATOM      2  C   UNL d   1      58.422  -0.517  29.980  0.00  0.00     0.042 A 
ATOM      3  S   UNL d   1      57.750  -1.678  30.011  0.00  0.00    -0.068 SA
ATOM      4  C   UNL d   1      58.743  -1.024  29.404  0.00  0.00     0.009 A 
ATOM      5  C   UNL d   1      58.318  -1.734  29.437  0.00  0.00     0.031 A 
ATOM      6  C   UNL d   1      59.369  -0.859  28.890  0.00  0.00     0.001 C 
ATOM      7  C   UNL d   1      58.447  -2.402  28.962  0.00  0.00     0.007 C 
ENDROOT
BRANCH   1   8
ATOM      8  N   UNL d   1      57.384  -0.548  30.959  0.00  0.00    -0.201 NA
ATOM      9  C   UNL d   1      56.891  -0.991  31.448  0.00  0.00     0.280 C 
ATOM     10  O   UNL d   1      56.824  -1.804  31.333  0.00  0.00    -0.265 OA
BRANCH   9  11
ATOM     11  C   UNL d   1      56.466  -0.622  32.051  0.00  0.00     0.058 A 
ATOM     12  C   UNL d   1      56.286   0.179  31.998  0.00  0.00     0.007 A 
ATOM     13  C   UNL d   1      55.856   0.552  32.607  0.00  0.00     0.030 A 
ATOM     14  C   UNL d   1      55.610   0.119  33.262  0.00  0.00     0.140 A 
ATOM     15  C   UNL d   1      55.790  -0.683  33.316  0.00  0.00     0.030 A 
ATOM     16  F   UNL d   1      55.185   0.488  33.865  0.00  0.00    -0.204 F 
ATOM     17  C   UNL d   1      56.220  -1.056  32.706  0.00  0.00     0.007 A 
ENDBRANCH   9  11
ENDBRANCH   1   8
BRANCH   2  18
ATOM     18  C   UNL d   1      58.676   0.260  30.146  0.00  0.00     0.082 C 
BRANCH  18  19
ATOM     19  N   UNL d   1      59.398   0.386  30.526  0.00  0.00    -0.302 N 
ATOM     20  C   UNL d   1      59.315   0.393  31.347  0.00  0.00     0.080 A 
ATOM     21  C   UNL d   1      59.890   0.500  31.919  0.00  0.00     0.019 A 
ATOM     22  C   UNL d   1      60.699   0.629  31.820  0.00  0.00     0.002 A 
ATOM     23  C   UNL d   1      61.133   0.681  31.120  0.00  0.00     0.002 A 
ATOM     24  C   UNL d   1      60.856   0.617  30.342  0.00  0.00     0.019 A 
ATOM     25  C   UNL d   1      60.089   0.487  30.078  0.00  0.00     0.080 A 
ENDBRANCH  18  19
ENDBRANCH   2  18
TORSDOF 4
ENDMDL
MODEL 2
REMARK VINA RESULT:       0.6      2.144      4.038
REMARK  4 active torsions:
REMARK  status: ('A' for Active; 'I' for Inactive)
REMARK    1  A    between atoms: N_5  and  C_1 
REMARK    2  A    between atoms: C_8  and  C_2 
REMARK       I    between atoms: C_7  and  N_5 
REMARK    3  A    between atoms: C_10  and  C_7 
REMARK    4  A    between atoms: N_9  and  C_8 
ROOT
ATOM      1  C   UNL d   1      56.673  -0.442  32.074  0.00  0.00     0.115 A 
ATOM      2  C   UNL d   1      56.478  -0.041  32.765  0.00  0.00     0.042 A 
ATOM      3  S   UNL d   1      56.198  -1.130  32.034  0.00  0.00    -0.068 SA
ATOM      4  C   UNL d   1      55.886  -0.476  33.155  0.00  0.00     0.009 A 
ATOM      5  C   UNL d   1      55.725  -1.143  32.691  0.00  0.00     0.031 A 
ATOM      6  C   UNL d   1      55.519  -0.285  33.871  0.00  0.00     0.001 C 
ATOM      7  C   UNL d   1      55.170  -1.735  32.865  0.00  0.00     0.007 C 
ENDROOT
BRANCH   1   8
ATOM      8  N   UNL d   1      57.251  -0.139  31.569  0.00  0.00    -0.201 NA
ATOM      9  C   UNL d   1      57.505  -0.578  30.921  0.00  0.00     0.280 C 
ATOM     10  O   UNL d   1      57.181  -1.321  30.778  0.00  0.00    -0.265 OA
BRANCH   9  11
ATOM     11  C   UNL d   1      58.083  -0.274  30.416  0.00  0.00     0.058 A 
ATOM     12  C   UNL d   1      57.904   0.352  29.914  0.00  0.00     0.007 A 
ATOM     13  C   UNL d   1      58.488   0.659  29.404  0.00  0.00     0.030 A 
ATOM     14  C   UNL d   1      59.244   0.335  29.402  0.00  0.00     0.140 A 
ATOM     15  C   UNL d   1      59.424  -0.292  29.905  0.00  0.00     0.030 A 
ATOM     16  F   UNL d   1      59.822   0.638  28.897  0.00  0.00    -0.204 F 
ATOM     17  C   UNL d   1      58.840  -0.599  30.415  0.00  0.00     0.007 A 
ENDBRANCH   9  11
ENDBRANCH   1   8
BRANCH   2  18
ATOM     18  C   UNL d   1      56.815   0.675  33.030  0.00  0.00     0.082 C 
BRANCH  18  19
ATOM     19  N   UNL d   1      57.325   0.677  33.679  0.00  0.00    -0.302 N 
ATOM     20  C   UNL d   1      56.911   0.676  34.394  0.00  0.00     0.080 A 
ATOM     21  C   UNL d   1      57.207   0.677  35.157  0.00  0.00     0.019 A 
ATOM     22  C   UNL d   1      57.994   0.679  35.405  0.00  0.00     0.002 A 
ATOM     23  C   UNL d   1      58.681   0.682  34.948  0.00  0.00     0.002 A 
ATOM     24  C   UNL d   1      58.745   0.682  34.123  0.00  0.00     0.019 A 
ATOM     25  C   UNL d   1      58.146   0.680  33.560  0.00  0.00     0.080 A 
ENDBRANCH  18  19
ENDBRANCH   2  18
TORSDOF 4
ENDMDL
MODEL 3
REMARK VINA RESULT:       1.3      2.274      4.803
REMARK  4 active torsions:
REMARK  status: ('A' for Active; 'I' for Inactive)
REMARK    1  A    between atoms: N_5  and  C_1 
REMARK    2  A    between atoms: C_8  and  C_2 
REMARK       I    between atoms: C_7  and  N_5 
REMARK    3  A    between atoms: C_10  and  C_7 
REMARK    4  A    between atoms: N_9  and  C_8 
ROOT
ATOM      1  C   UNL d   1      58.066   0.679  32.988  0.00  0.00     0.115 A 
ATOM      2  C   UNL d   1      57.345   0.677  33.384  0.00  0.00     0.042 A 
ATOM      3  S   UNL d   1      58.674   0.681  33.564  0.00  0.00    -0.068 SA
ATOM      4  C   UNL d   1      57.502   0.678  34.200  0.00  0.00     0.009 A 
ATOM      5  C   UNL d   1      58.325   0.681  34.294  0.00  0.00     0.031 A 
ATOM      6  C   UNL d   1      56.945   0.677  34.813  0.00  0.00     0.001 C 
ATOM      7  C   UNL d   1      58.733   0.682  35.016  0.00  0.00     0.007 C 
ENDROOT
BRANCH   1   8
ATOM      8  N   UNL d   1      58.085   0.679  32.163  0.00  0.00    -0.201 NA
ATOM      9  C   UNL d   1      58.801   0.594  31.766  0.00  0.00     0.280 C 
ATOM     10  O   UNL d   1      59.499   0.509  32.195  0.00  0.00    -0.265 OA
BRANCH   9  11
ATOM     11  C   UNL d   1      58.820   0.594  30.942  0.00  0.00     0.058 A 
ATOM     12  C   UNL d   1      58.119   0.550  30.513  0.00  0.00     0.007 A 
ATOM     13  C   UNL d   1      58.138   0.549  29.680  0.00  0.00     0.030 A 
ATOM     14  C   UNL d   1      58.858   0.593  29.284  0.00  0.00     0.140 A 
ATOM     15  C   UNL d   1      59.560   0.638  29.712  0.00  0.00     0.030 A 
ATOM     16  F   UNL d   1      58.877   0.593  28.459  0.00  0.00    -0.204 F 
ATOM     17  C   UNL d   1      59.541   0.638  30.546  0.00  0.00     0.007 A 
ENDBRANCH   9  11
ENDBRANCH   1   8
BRANCH   2  18
ATOM     18  C   UNL d   1      56.590   0.675  33.029  0.00  0.00     0.082 C 
BRANCH  18  19
ATOM     19  N   UNL d   1      56.120  -0.003  33.063  0.00  0.00    -0.302 N 
ATOM     20  C   UNL d   1      55.380   0.153  33.396  0.00  0.00     0.080 A 
ATOM     21  C   UNL d   1      54.759  -0.363  33.527  0.00  0.00     0.019 A 
ATOM     22  C   UNL d   1      54.714  -1.170  33.360  0.00  0.00     0.002 A 
ATOM     23  C   UNL d   1      55.283  -1.660  33.019  0.00  0.00     0.002 A 
ATOM     24  C   UNL d   1      56.043  -1.458  32.761  0.00  0.00     0.019 A 
ATOM     25  C   UNL d   1      56.414  -0.725  32.779  0.00  0.00     0.080 A 
ENDBRANCH  18  19
ENDBRANCH   2  18
TORSDOF 4
ENDMDL
