MODEL 1
REMARK VINA RESULT:      40.9      0.000      0.000
REMARK  4 active torsions:
REMARK  status: ('A' for Active; 'I' for Inactive)
REMARK    1  A    between atoms: C_14  and  N_3 
REMARK    2  A    between atoms: C_9  and  C_5 
REMARK    3  A    between atoms: C_19  and  C_14 
REMARK    4  A    between atoms: C_23  and  C_19 
ROOT
ATOM      1  C   UNL d   1     -51.530  25.132  33.309  0.00  0.00     0.083 A 
ATOM      2  C   UNL d   1     -52.060  25.762  33.308  0.00  0.00     0.161 A 
ATOM      3  N   UNL d   1     -50.825  26.277  33.309  0.00  0.00    -0.272 N 
ATOM      4  C   UNL d   1     -51.630  26.472  33.308  0.00  0.00     0.288 A 
ATOM      5  C   UNL d   1     -50.764  25.447  33.310  0.00  0.00     0.072 A 
ATOM      6  C   UNL d   1     -51.804  24.355  33.310  0.00  0.00     0.201 A 
ATOM      7  O   UNL d   1     -52.880  25.611  33.308  0.00  0.00    -0.302 OA
ATOM      8  C   UNL d   1     -52.616  24.210  33.309  0.00  0.00     0.062 A 
ATOM      9  C   UNL d   1     -53.150  24.836  33.308  0.00  0.00     0.103 A 
ATOM     10  O   UNL d   1     -51.942  27.230  33.308  0.00  0.00    -0.264 OA
ATOM     11  O   UNL d   1     -51.273  23.725  33.311  0.00  0.00    -0.286 OA
ATOM     12  C   UNL d   1     -52.893  23.428  33.309  0.00  0.00     0.005 A 
ATOM     13  C   UNL d   1     -53.969  24.679  33.307  0.00  0.00     0.025 A 
ATOM     14  C   UNL d   1     -53.700  23.277  33.308  0.00  0.00     0.000 A 
ATOM     15  C   UNL d   1     -54.239  23.904  33.307  0.00  0.00     0.002 A 
ENDROOT
BRANCH   5  16
ATOM     16  C   UNL d   1     -50.230  24.821  33.311  0.00  0.00     0.019 A 
ATOM     17  C   UNL d   1     -49.414  24.962  33.315  0.00  0.00     0.031 A 
ATOM     18  C   UNL d   1     -48.884  24.333  33.316  0.00  0.00     0.140 A 
ATOM     19  F   UNL d   1     -48.075  24.482  33.319  0.00  0.00    -0.204 F 
ATOM     20  C   UNL d   1     -49.164  23.550  33.313  0.00  0.00     0.030 A 
ATOM     21  C   UNL d   1     -49.980  23.407  33.310  0.00  0.00     0.002 A 
ATOM     22  C   UNL d   1     -50.512  24.046  33.309  0.00  0.00     0.002 A 
ENDBRANCH   5  16
BRANCH   3  23
ATOM     23  C   UNL d   1     -50.196  26.808  33.310  0.00  0.00     0.086 C 
BRANCH  23  24
ATOM     24  C   UNL d   1     -49.927  27.121  34.021  0.00  0.00     0.065 C 
BRANCH  24  25
ATOM     25  C   UNL d   1     -49.560  27.859  34.034  0.00  0.00     0.236 C 
ATOM     26  O   UNL d   1     -49.523  28.284  34.728  0.00  0.00    -0.283 OA
ENDBRANCH  24  25
ENDBRANCH  23  24
ENDBRANCH   3  23
TORSDOF 4
ENDMDL
