MODEL 1
REMARK VINA RESULT:       8.0      0.000      0.000
REMARK  3 active torsions:
REMARK  status: ('A' for Active; 'I' for Inactive)
REMARK    1  A    between atoms: C_6  and  N_1 
REMARK    2  A    between atoms: C_9  and  C_6 
REMARK    3  A    between atoms: C_10  and  C_9 
ROOT
ATOM      1  C   UNL d   1     -55.252-102.725 -37.159  0.00  0.00     0.086 C 
ENDROOT
BRANCH   1   2
ATOM      2  N   UNL d   1     -55.045-102.120 -36.671  0.00  0.00    -0.240 N 
ATOM      3  C   UNL d   1     -54.920-102.179 -35.838  0.00  0.00     0.267 A 
ATOM      4  C   UNL d   1     -54.713-101.415 -35.554  0.00  0.00     0.066 A 
ATOM      5  O   UNL d   1     -54.990-102.851 -35.405  0.00  0.00    -0.267 OA
ATOM      6  C   UNL d   1     -54.712-100.890 -36.219  0.00  0.00     0.066 A 
ATOM      7  C   UNL d   1     -54.914-101.320 -36.901  0.00  0.00     0.267 A 
ATOM      8  O   UNL d   1     -54.975-101.028 -37.643  0.00  0.00    -0.267 OA
ENDBRANCH   1   2
BRANCH   1   9
ATOM      9  C   UNL d   1     -54.804-102.874 -37.835  0.00  0.00     0.019 C 
BRANCH   9  10
ATOM     10  C   UNL d   1     -55.165-102.875 -38.571  0.00  0.00     0.002 A 
ATOM     11  C   UNL d   1     -55.982-102.878 -38.622  0.00  0.00     0.000 A 
ATOM     12  C   UNL d   1     -56.348-102.880 -39.356  0.00  0.00     0.000 A 
ATOM     13  C   UNL d   1     -55.886-102.878 -40.040  0.00  0.00     0.000 A 
ATOM     14  C   UNL d   1     -55.063-102.875 -39.984  0.00  0.00     0.000 A 
ATOM     15  C   UNL d   1     -54.712-102.874 -39.244  0.00  0.00     0.000 A 
ENDBRANCH   9  10
ENDBRANCH   1   9
TORSDOF 3
ENDMDL
