MODEL 1
REMARK VINA RESULT:      59.5      0.000      0.000
REMARK  6 active torsions:
REMARK  status: ('A' for Active; 'I' for Inactive)
REMARK    1  A    between atoms: C_10  and  C_1 
REMARK    2  A    between atoms: C_7  and  O_9 
REMARK       I    between atoms: N_12  and  C_7 
REMARK    3  A    between atoms: O_9  and  C_14 
REMARK    4  A    between atoms: C_24  and  N_12 
REMARK    5  A    between atoms: C_25  and  N_12 
REMARK    6  A    between atoms: O_23  and  C_20 
ROOT
ATOM      1  C   UNL d   1     -51.049  25.759  33.575  0.00  0.00     0.062 A 
ATOM      2  C   UNL d   1     -51.274  26.559  33.660  0.00  0.00     0.199 A 
ATOM      3  C   UNL d   1     -50.234  25.561  33.556  0.00  0.00     0.103 A 
ATOM      4  C   UNL d   1     -50.709  27.150  33.725  0.00  0.00     0.062 A 
ATOM      5  C   UNL d   1     -49.898  26.953  33.707  0.00  0.00     0.105 A 
ATOM      6  O   UNL d   1     -49.657  26.163  33.622  0.00  0.00    -0.307 OA
ATOM      7  C   UNL d   1     -49.322  27.550  33.773  0.00  0.00     0.050 A 
ATOM      8  C   UNL d   1     -50.925  27.948  33.811  0.00  0.00     0.007 A 
ATOM      9  O   UNL d   1     -52.077  26.750  33.678  0.00  0.00    -0.286 OA
ATOM     10  C   UNL d   1     -49.551  28.337  33.857  0.00  0.00     0.107 A 
ATOM     11  C   UNL d   1     -50.352  28.536  33.876  0.00  0.00     0.025 A 
ATOM     12  C   UNL d   1     -50.006  24.774  33.472  0.00  0.00     0.027 C 
ENDROOT
BRANCH   1  13
ATOM     13  C   UNL d   1     -51.618  25.170  33.509  0.00  0.00     0.005 A 
ATOM     14  C   UNL d   1     -51.396  24.373  33.568  0.00  0.00     0.002 A 
ATOM     15  C   UNL d   1     -51.967  23.783  33.503  0.00  0.00     0.024 A 
ATOM     16  C   UNL d   1     -52.756  23.984  33.380  0.00  0.00     0.094 A 
ATOM     17  C   UNL d   1     -52.979  24.785  33.320  0.00  0.00     0.024 A 
ATOM     18  C   UNL d   1     -52.409  25.370  33.386  0.00  0.00     0.002 A 
BRANCH  16  19
ATOM     19  O   UNL d   1     -53.328  23.398  33.314  0.00  0.00    -0.328 OA
ATOM     20  C   UNL d   1     -53.788  23.191  33.965  0.00  0.00     0.181 C 
ENDBRANCH  16  19
ENDBRANCH   1  13
BRANCH  10  21
ATOM     21  O   UNL d   1     -48.977  28.926  33.922  0.00  0.00    -0.259 OA
BRANCH  21  22
ATOM     22  C   UNL d   1     -48.526  28.986  34.609  0.00  0.00     0.377 C 
ATOM     23  N   UNL d   1     -48.130  29.689  34.781  0.00  0.00    -0.252 N 
ATOM     24  O   UNL d   1     -48.471  28.344  35.125  0.00  0.00    -0.237 OA
BRANCH  23  25
ATOM     25  C   UNL d   1     -48.183  30.337  34.264  0.00  0.00     0.085 C 
ATOM     26  C   UNL d   1     -47.829  31.058  34.450  0.00  0.00     0.021 C 
ENDBRANCH  23  25
BRANCH  23  27
ATOM     27  C   UNL d   1     -47.677  29.751  35.470  0.00  0.00     0.085 C 
ATOM     28  C   UNL d   1     -46.984  30.215  35.474  0.00  0.00     0.021 C 
ENDBRANCH  23  27
ENDBRANCH  21  22
ENDBRANCH  10  21
TORSDOF 6
ENDMDL
