MODEL 1
REMARK VINA RESULT:      -0.4      0.000      0.000
REMARK  6 active torsions:
REMARK  status: ('A' for Active; 'I' for Inactive)
REMARK    1  A    between atoms: C_7  and  C_1 
REMARK    2  A    between atoms: C_10  and  C_2 
REMARK    3  A    between atoms: C_8  and  C_7 
REMARK    4  A    between atoms: C_9  and  C_8 
REMARK    5  A    between atoms: C_13  and  C_9 
REMARK    6  A    between atoms: O_20  and  C_16 
ROOT
ATOM      1  C   UNL d   1      32.882  20.138 -23.735  0.00  0.00     0.097 A 
ATOM      2  C   UNL d   1      32.861  20.827 -23.283  0.00  0.00     0.009 A 
ATOM      3  C   UNL d   1      33.025  20.185 -24.550  0.00  0.00     0.282 A 
ATOM      4  C   UNL d   1      32.980  21.565 -23.635  0.00  0.00     0.018 A 
ATOM      5  N   UNL d   1      33.142  20.920 -24.891  0.00  0.00    -0.208 NA
ATOM      6  C   UNL d   1      33.123  21.612 -24.451  0.00  0.00     0.085 A 
ATOM      7  C   UNL d   1      32.958  22.239 -23.185  0.00  0.00     0.008 A 
ATOM      8  O   UNL d   1      33.047  19.501 -25.008  0.00  0.00    -0.265 OA
ATOM      9  C   UNL d   1      33.239  22.332 -24.793  0.00  0.00     0.020 A 
ATOM     10  C   UNL d   1      33.078  22.981 -23.537  0.00  0.00     0.035 A 
ATOM     11  C   UNL d   1      33.220  23.028 -24.352  0.00  0.00     0.008 A 
ATOM     12 BR   UNL d   1      33.057  23.689 -23.084  0.00  0.00    -0.049 Br
ENDROOT
BRANCH   1  13
ATOM     13  C   UNL d   1      32.761  19.378 -23.384  0.00  0.00     0.200 C 
ATOM     14  O   UNL d   1      33.229  19.156 -22.747  0.00  0.00    -0.286 OA
BRANCH  13  15
ATOM     15  C   UNL d   1      32.192  18.874 -23.669  0.00  0.00     0.042 C 
BRANCH  15  16
ATOM     16  C   UNL d   1      32.222  18.066 -23.489  0.00  0.00     0.005 C 
BRANCH  16  17
ATOM     17  C   UNL d   1      31.791  17.528 -23.923  0.00  0.00     0.022 A 
ATOM     18  C   UNL d   1      31.996  16.737 -23.886  0.00  0.00     0.094 A 
ATOM     19  C   UNL d   1      31.562  16.179 -24.326  0.00  0.00     0.024 A 
ATOM     20  C   UNL d   1      30.935  16.447 -24.791  0.00  0.00     0.002 A 
ATOM     21  C   UNL d   1      30.741  17.234 -24.821  0.00  0.00     0.000 A 
ATOM     22  C   UNL d   1      31.161  17.775 -24.394  0.00  0.00     0.002 A 
BRANCH  18  23
ATOM     23  O   UNL d   1      32.626  16.467 -23.419  0.00  0.00    -0.328 OA
ATOM     24  C   UNL d   1      32.964  15.735 -23.566  0.00  0.00     0.181 C 
ENDBRANCH  18  23
ENDBRANCH  16  17
ENDBRANCH  15  16
ENDBRANCH  13  15
ENDBRANCH   1  13
BRANCH   2  25
ATOM     25  C   UNL d   1      32.715  20.779 -22.454  0.00  0.00     0.000 A 
ATOM     26  C   UNL d   1      33.225  20.341 -21.971  0.00  0.00     0.000 A 
ATOM     27  C   UNL d   1      33.081  20.293 -21.153  0.00  0.00     0.000 A 
ATOM     28  C   UNL d   1      32.433  20.686 -20.839  0.00  0.00     0.000 A 
ATOM     29  C   UNL d   1      31.925  21.124 -21.326  0.00  0.00     0.000 A 
ATOM     30  C   UNL d   1      32.066  21.170 -22.126  0.00  0.00     0.000 A 
ENDBRANCH   2  25
TORSDOF 6
ENDMDL
