MODEL 1
REMARK VINA RESULT:      29.8      0.000      0.000
REMARK  2 active torsions:
REMARK  status: ('A' for Active; 'I' for Inactive)
REMARK    1  A    between atoms: C_7  and  C_1 
REMARK    2  A    between atoms: O_16  and  C_12 
ROOT
ATOM      1  C   UNL d   1      13.677  12.888  -3.620  0.00  0.00     0.105 A 
ATOM      2  C   UNL d   1      14.293  13.260  -2.113  0.00  0.00     0.064 A 
ATOM      3  O   UNL d   1      13.877  12.276  -3.093  0.00  0.00    -0.307 OA
ATOM      4  C   UNL d   1      14.092  13.867  -2.642  0.00  0.00     0.200 A 
ATOM      5  C   UNL d   1      14.183  12.462  -2.344  0.00  0.00     0.103 A 
ATOM      6  C   UNL d   1      13.784  13.688  -3.396  0.00  0.00     0.067 A 
ATOM      7  C   UNL d   1      14.596  13.438  -1.370  0.00  0.00     0.029 A 
ATOM      8  O   UNL d   1      14.198  14.654  -2.421  0.00  0.00    -0.286 OA
ATOM      9  C   UNL d   1      14.384  11.855  -1.814  0.00  0.00     0.027 A 
ATOM     10  C   UNL d   1      14.793  12.834  -0.848  0.00  0.00     0.094 A 
ATOM     11  C   UNL d   1      14.688  12.045  -1.070  0.00  0.00     0.026 A 
ENDROOT
BRANCH   1  12
ATOM     12  C   UNL d   1      13.375  12.713  -4.362  0.00  0.00     0.050 A 
ATOM     13  C   UNL d   1      13.341  13.298  -4.937  0.00  0.00     0.142 A 
ATOM     14  F   UNL d   1      13.617  14.064  -4.757  0.00  0.00    -0.204 F 
ATOM     15  C   UNL d   1      13.039  13.129  -5.684  0.00  0.00     0.030 A 
ATOM     16  C   UNL d   1      12.769  12.371  -5.856  0.00  0.00     0.002 A 
ATOM     17  C   UNL d   1      12.801  11.781  -5.280  0.00  0.00     0.000 A 
ATOM     18  C   UNL d   1      13.103  11.948  -4.533  0.00  0.00     0.004 A 
ENDBRANCH   1  12
BRANCH  10  19
ATOM     19  O   UNL d   1      15.097  13.016  -0.105  0.00  0.00    -0.328 OA
ATOM     20  C   UNL d   1      15.612  13.654  -0.014  0.00  0.00     0.181 C 
ENDBRANCH  10  19
TORSDOF 2
ENDMDL
MODEL 2
REMARK VINA RESULT:      32.2      1.553      4.163
REMARK  2 active torsions:
REMARK  status: ('A' for Active; 'I' for Inactive)
REMARK    1  A    between atoms: C_7  and  C_1 
REMARK    2  A    between atoms: O_16  and  C_12 
ROOT
ATOM      1  C   UNL d   1      14.499  13.954  -1.688  0.00  0.00     0.105 A 
ATOM      2  C   UNL d   1      13.852  12.777  -2.681  0.00  0.00     0.064 A 
ATOM      3  O   UNL d   1      14.171  14.167  -2.423  0.00  0.00    -0.307 OA
ATOM      4  C   UNL d   1      14.180  12.569  -1.948  0.00  0.00     0.200 A 
ATOM      5  C   UNL d   1      13.851  13.582  -2.915  0.00  0.00     0.103 A 
ATOM      6  C   UNL d   1      14.504  13.152  -1.447  0.00  0.00     0.067 A 
ATOM      7  C   UNL d   1      13.533  12.201  -3.172  0.00  0.00     0.029 A 
ATOM      8  O   UNL d   1      14.185  11.779  -1.710  0.00  0.00    -0.286 OA
ATOM      9  C   UNL d   1      13.523  13.789  -3.649  0.00  0.00     0.027 A 
ATOM     10  C   UNL d   1      13.209  12.411  -3.899  0.00  0.00     0.094 A 
ATOM     11  C   UNL d   1      13.204  13.202  -4.136  0.00  0.00     0.026 A 
ENDROOT
BRANCH   1  12
ATOM     12  C   UNL d   1      14.818  14.526  -1.195  0.00  0.00     0.050 A 
ATOM     13  C   UNL d   1      15.217  14.301  -0.514  0.00  0.00     0.142 A 
ATOM     14  F   UNL d   1      15.291  13.491  -0.333  0.00  0.00    -0.204 F 
ATOM     15  C   UNL d   1      15.540  14.871  -0.014  0.00  0.00     0.030 A 
ATOM     16  C   UNL d   1      15.463  15.669  -0.198  0.00  0.00     0.002 A 
ATOM     17  C   UNL d   1      15.063  15.899  -0.882  0.00  0.00     0.000 A 
ATOM     18  C   UNL d   1      14.740  15.330  -1.382  0.00  0.00     0.004 A 
ENDBRANCH   1  12
BRANCH  10  19
ATOM     19  O   UNL d   1      12.890  11.832  -4.389  0.00  0.00    -0.328 OA
ATOM     20  C   UNL d   1      13.130  11.780  -5.177  0.00  0.00     0.181 C 
ENDBRANCH  10  19
TORSDOF 2
ENDMDL
