MODEL 1
REMARK VINA RESULT:      -9.0      0.000      0.000
REMARK  2 active torsions:
REMARK  status: ('A' for Active; 'I' for Inactive)
REMARK    1  A    between atoms: C_2  and  C_1 
REMARK    2  A    between atoms: N_6  and  C_2 
ROOT
ATOM      1  C   UNL d   1      53.326  32.510  53.282  0.00  0.00     0.047 A 
ATOM      2  C   UNL d   1      52.677  32.708  52.809  0.00  0.00     0.101 A 
ATOM      3  C   UNL d   1      53.326  31.690  53.376  0.00  0.00     0.021 A 
ATOM      4  N   UNL d   1      52.280  32.012  52.612  0.00  0.00    -0.244 NA
ATOM      5  C   UNL d   1      52.684  31.382  52.964  0.00  0.00     0.082 A 
ATOM      6  C   UNL d   1      53.829  31.186  53.782  0.00  0.00     0.002 A 
ATOM      7  C   UNL d   1      52.543  30.574  52.958  0.00  0.00     0.019 A 
ATOM      8  C   UNL d   1      53.689  30.375  53.777  0.00  0.00     0.000 A 
ATOM      9  C   UNL d   1      53.042  30.068  53.363  0.00  0.00     0.002 A 
ENDROOT
BRANCH   1  10
ATOM     10  C   UNL d   1      53.878  33.031  53.605  0.00  0.00     0.122 C 
ATOM     11  S   UNL d   1      54.684  32.906  53.492  0.00  0.00    -0.059 SA
BRANCH  10  12
ATOM     12  N   UNL d   1      53.613  33.681  54.044  0.00  0.00    -0.292 N 
ATOM     13  C   UNL d   1      53.307  34.346  53.655  0.00  0.00     0.108 A 
ATOM     14  C   UNL d   1      53.043  34.995  54.093  0.00  0.00     0.142 A 
ATOM     15  O   UNL d   1      53.086  34.979  54.918  0.00  0.00    -0.300 OA
ATOM     16  C   UNL d   1      53.393  34.314  55.304  0.00  0.00     0.142 A 
ATOM     17  C   UNL d   1      53.656  33.666  54.866  0.00  0.00     0.108 A 
ENDBRANCH  10  12
ENDBRANCH   1  10
TORSDOF 2
ENDMDL
MODEL 2
REMARK VINA RESULT:      -8.1      1.895      2.749
REMARK  2 active torsions:
REMARK  status: ('A' for Active; 'I' for Inactive)
REMARK    1  A    between atoms: C_2  and  C_1 
REMARK    2  A    between atoms: N_6  and  C_2 
ROOT
ATOM      1  C   UNL d   1      52.807  33.499  53.352  0.00  0.00     0.047 A 
ATOM      2  C   UNL d   1      52.750  32.790  52.930  0.00  0.00     0.101 A 
ATOM      3  C   UNL d   1      53.291  33.363  54.006  0.00  0.00     0.021 A 
ATOM      4  N   UNL d   1      53.199  32.219  53.323  0.00  0.00    -0.244 NA
ATOM      5  C   UNL d   1      53.533  32.577  53.989  0.00  0.00     0.082 A 
ATOM      6  C   UNL d   1      53.542  33.853  54.612  0.00  0.00     0.002 A 
ATOM      7  C   UNL d   1      54.024  32.281  54.576  0.00  0.00     0.019 A 
ATOM      8  C   UNL d   1      54.034  33.559  55.202  0.00  0.00     0.000 A 
ATOM      9  C   UNL d   1      54.276  32.768  55.184  0.00  0.00     0.002 A 
ENDROOT
BRANCH   1  10
ATOM     10  C   UNL d   1      52.447  34.216  53.160  0.00  0.00     0.122 C 
ATOM     11  S   UNL d   1      52.856  34.925  53.256  0.00  0.00    -0.059 SA
BRANCH  10  12
ATOM     12  N   UNL d   1      51.671  34.217  52.871  0.00  0.00    -0.292 N 
ATOM     13  C   UNL d   1      51.033  34.239  53.400  0.00  0.00     0.108 A 
ATOM     14  C   UNL d   1      50.259  34.240  53.111  0.00  0.00     0.142 A 
ATOM     15  O   UNL d   1      50.124  34.220  52.296  0.00  0.00    -0.300 OA
ATOM     16  C   UNL d   1      50.763  34.198  51.771  0.00  0.00     0.142 A 
ATOM     17  C   UNL d   1      51.536  34.197  52.060  0.00  0.00     0.108 A 
ENDBRANCH  10  12
ENDBRANCH   1  10
TORSDOF 2
ENDMDL
MODEL 3
REMARK VINA RESULT:      -8.1      1.764      2.676
REMARK  2 active torsions:
REMARK  status: ('A' for Active; 'I' for Inactive)
REMARK    1  A    between atoms: C_2  and  C_1 
REMARK    2  A    between atoms: N_6  and  C_2 
ROOT
ATOM      1  C   UNL d   1      52.852  33.634  53.322  0.00  0.00     0.047 A 
ATOM      2  C   UNL d   1      53.112  34.399  53.142  0.00  0.00     0.101 A 
ATOM      3  C   UNL d   1      52.032  33.621  53.232  0.00  0.00     0.021 A 
ATOM      4  N   UNL d   1      52.453  34.855  52.942  0.00  0.00    -0.244 NA
ATOM      5  C   UNL d   1      51.785  34.371  52.999  0.00  0.00     0.082 A 
ATOM      6  C   UNL d   1      51.481  33.024  53.333  0.00  0.00     0.002 A 
ATOM      7  C   UNL d   1      50.990  34.523  52.867  0.00  0.00     0.019 A 
ATOM      8  C   UNL d   1      50.682  33.175  53.201  0.00  0.00     0.000 A 
ATOM      9  C   UNL d   1      50.436  33.929  52.967  0.00  0.00     0.002 A 
ENDROOT
BRANCH   1  10
ATOM     10  C   UNL d   1      53.322  32.996  53.551  0.00  0.00     0.122 C 
ATOM     11  S   UNL d   1      53.232  32.263  53.185  0.00  0.00    -0.059 SA
BRANCH  10  12
ATOM     12  N   UNL d   1      53.883  33.098  54.149  0.00  0.00    -0.292 N 
ATOM     13  C   UNL d   1      53.680  32.942  54.938  0.00  0.00     0.108 A 
ATOM     14  C   UNL d   1      54.242  33.044  55.536  0.00  0.00     0.142 A 
ATOM     15  O   UNL d   1      55.003  33.302  55.345  0.00  0.00    -0.300 OA
ATOM     16  C   UNL d   1      55.203  33.457  54.557  0.00  0.00     0.142 A 
ATOM     17  C   UNL d   1      54.642  33.355  53.960  0.00  0.00     0.108 A 
ENDBRANCH  10  12
ENDBRANCH   1  10
TORSDOF 2
ENDMDL
MODEL 4
REMARK VINA RESULT:      -8.0      1.594      3.349
REMARK  2 active torsions:
REMARK  status: ('A' for Active; 'I' for Inactive)
REMARK    1  A    between atoms: C_2  and  C_1 
REMARK    2  A    between atoms: N_6  and  C_2 
ROOT
ATOM      1  C   UNL d   1      53.357  32.419  53.643  0.00  0.00     0.047 A 
ATOM      2  C   UNL d   1      52.603  32.678  53.418  0.00  0.00     0.101 A 
ATOM      3  C   UNL d   1      53.657  32.964  54.185  0.00  0.00     0.021 A 
ATOM      4  N   UNL d   1      52.441  33.379  53.821  0.00  0.00    -0.244 NA
ATOM      5  C   UNL d   1      53.095  33.555  54.296  0.00  0.00     0.082 A 
ATOM      6  C   UNL d   1      54.368  32.997  54.589  0.00  0.00     0.002 A 
ATOM      7  C   UNL d   1      53.243  34.177  54.809  0.00  0.00     0.019 A 
ATOM      8  C   UNL d   1      54.519  33.621  55.106  0.00  0.00     0.000 A 
ATOM      9  C   UNL d   1      53.952  34.213  55.216  0.00  0.00     0.002 A 
ENDROOT
BRANCH   1  10
ATOM     10  C   UNL d   1      53.744  31.741  53.377  0.00  0.00     0.122 C 
ATOM     11  S   UNL d   1      54.495  31.796  53.042  0.00  0.00    -0.059 SA
BRANCH  10  12
ATOM     12  N   UNL d   1      53.372  31.006  53.449  0.00  0.00    -0.292 N 
ATOM     13  C   UNL d   1      53.574  30.500  54.074  0.00  0.00     0.108 A 
ATOM     14  C   UNL d   1      53.202  29.765  54.146  0.00  0.00     0.142 A 
ATOM     15  O   UNL d   1      52.630  29.538  53.595  0.00  0.00    -0.300 OA
ATOM     16  C   UNL d   1      52.430  30.046  52.972  0.00  0.00     0.142 A 
ATOM     17  C   UNL d   1      52.802  30.779  52.900  0.00  0.00     0.108 A 
ENDBRANCH  10  12
ENDBRANCH   1  10
TORSDOF 2
ENDMDL
