MODEL 1
REMARK VINA RESULT:      -9.4      0.000      0.000
REMARK  5 active torsions:
REMARK  status: ('A' for Active; 'I' for Inactive)
REMARK    1  A    between atoms: C_6  and  C_1 
REMARK    2  A    between atoms: C_3  and  C_5 
REMARK    3  A    between atoms: C_5  and  C_6 
REMARK    4  A    between atoms: C_17  and  C_13 
REMARK    5  A    between atoms: C_20  and  C_17 
ROOT
ATOM      1  C   UNL d   1      53.699  32.859  54.413  0.00  0.00     0.201 C 
ATOM      2  O   UNL d   1      53.776  32.531  55.169  0.00  0.00    -0.286 OA
ENDROOT
BRANCH   1   3
ATOM      3  C   UNL d   1      53.453  33.644  54.343  0.00  0.00     0.078 A 
ATOM      4  C   UNL d   1      53.878  34.247  54.730  0.00  0.00     0.202 A 
ATOM      5  C   UNL d   1      53.631  35.031  54.660  0.00  0.00     0.084 A 
ATOM      6  O   UNL d   1      54.542  34.055  55.180  0.00  0.00    -0.286 OA
ATOM      7  C   UNL d   1      52.973  35.216  54.213  0.00  0.00     0.199 A 
ATOM      8  C   UNL d   1      52.548  34.613  53.826  0.00  0.00     0.039 A 
ATOM      9  O   UNL d   1      52.734  36.011  54.150  0.00  0.00    -0.286 OA
ATOM     10  C   UNL d   1      52.793  33.849  53.898  0.00  0.00     0.010 A 
BRANCH   8  11
ATOM     11  C   UNL d   1      51.885  34.822  53.379  0.00  0.00     0.003 C 
BRANCH  11  12
ATOM     12  C   UNL d   1      51.263  34.294  53.254  0.00  0.00     0.000 C 
ATOM     13  C   UNL d   1      50.692  34.431  52.680  0.00  0.00     0.000 C 
ENDBRANCH  11  12
ENDBRANCH   8  11
ENDBRANCH   1   3
BRANCH   1  14
ATOM     14  C   UNL d   1      53.868  32.400  53.744  0.00  0.00     0.068 C 
BRANCH  14  15
ATOM     15  C   UNL d   1      53.639  31.617  53.701  0.00  0.00     0.114 A 
ATOM     16  N   UNL d   1      53.822  31.027  54.250  0.00  0.00    -0.238 NA
ATOM     17  C   UNL d   1      53.477  30.326  53.984  0.00  0.00     0.088 A 
ATOM     18  C   UNL d   1      53.473  29.570  54.299  0.00  0.00     0.020 A 
ATOM     19  C   UNL d   1      53.085  30.477  53.279  0.00  0.00     0.049 A 
ATOM     20  C   UNL d   1      53.078  28.952  53.915  0.00  0.00     0.002 A 
ATOM     21  C   UNL d   1      52.682  29.116  53.200  0.00  0.00     0.001 A 
ATOM     22  C   UNL d   1      52.686  29.872  52.885  0.00  0.00     0.008 A 
ATOM     23  S   UNL d   1      53.177  31.284  53.088  0.00  0.00    -0.066 SA
ENDBRANCH  14  15
ENDBRANCH   1  14
TORSDOF 5
ENDMDL
MODEL 2
REMARK VINA RESULT:      -9.2      1.741      4.253
REMARK  5 active torsions:
REMARK  status: ('A' for Active; 'I' for Inactive)
REMARK    1  A    between atoms: C_6  and  C_1 
REMARK    2  A    between atoms: C_3  and  C_5 
REMARK    3  A    between atoms: C_5  and  C_6 
REMARK    4  A    between atoms: C_17  and  C_13 
REMARK    5  A    between atoms: C_20  and  C_17 
ROOT
ATOM      1  C   UNL d   1      52.211  34.279  53.434  0.00  0.00     0.201 C 
ATOM      2  O   UNL d   1      52.360  34.877  52.880  0.00  0.00    -0.286 OA
ENDROOT
BRANCH   1   3
ATOM      3  C   UNL d   1      52.844  33.963  53.858  0.00  0.00     0.078 A 
ATOM      4  C   UNL d   1      53.257  34.440  54.403  0.00  0.00     0.202 A 
ATOM      5  C   UNL d   1      53.890  34.123  54.826  0.00  0.00     0.084 A 
ATOM      6  O   UNL d   1      53.029  35.225  54.514  0.00  0.00    -0.286 OA
ATOM      7  C   UNL d   1      54.112  33.345  54.713  0.00  0.00     0.199 A 
ATOM      8  C   UNL d   1      53.699  32.869  54.169  0.00  0.00     0.039 A 
ATOM      9  O   UNL d   1      54.752  33.037  55.147  0.00  0.00    -0.286 OA
ATOM     10  C   UNL d   1      53.082  33.182  53.758  0.00  0.00     0.010 A 
BRANCH   8  11
ATOM     11  C   UNL d   1      53.940  32.084  54.069  0.00  0.00     0.003 C 
BRANCH  11  12
ATOM     12  C   UNL d   1      53.533  31.566  53.573  0.00  0.00     0.000 C 
ATOM     13  C   UNL d   1      53.672  30.756  53.589  0.00  0.00     0.000 C 
ENDBRANCH  11  12
ENDBRANCH   8  11
ENDBRANCH   1   3
BRANCH   1  14
ATOM     14  C   UNL d   1      51.436  34.010  53.552  0.00  0.00     0.068 C 
BRANCH  14  15
ATOM     15  C   UNL d   1      50.844  34.182  53.017  0.00  0.00     0.114 A 
ATOM     16  N   UNL d   1      50.834  33.968  52.219  0.00  0.00    -0.238 NA
ATOM     17  C   UNL d   1      50.132  34.257  51.894  0.00  0.00     0.088 A 
ATOM     18  C   UNL d   1      49.827  34.212  51.135  0.00  0.00     0.020 A 
ATOM     19  C   UNL d   1      49.711  34.645  52.481  0.00  0.00     0.049 A 
ATOM     20  C   UNL d   1      49.097  34.555  50.950  0.00  0.00     0.002 A 
ATOM     21  C   UNL d   1      48.677  34.947  51.553  0.00  0.00     0.001 A 
ATOM     22  C   UNL d   1      48.981  34.992  52.312  0.00  0.00     0.008 A 
ATOM     23  S   UNL d   1      50.145  34.607  53.193  0.00  0.00    -0.066 SA
ENDBRANCH  14  15
ENDBRANCH   1  14
TORSDOF 5
ENDMDL
MODEL 3
REMARK VINA RESULT:      -9.0      1.051      1.988
REMARK  5 active torsions:
REMARK  status: ('A' for Active; 'I' for Inactive)
REMARK    1  A    between atoms: C_6  and  C_1 
REMARK    2  A    between atoms: C_3  and  C_5 
REMARK    3  A    between atoms: C_5  and  C_6 
REMARK    4  A    between atoms: C_17  and  C_13 
REMARK    5  A    between atoms: C_20  and  C_17 
ROOT
ATOM      1  C   UNL d   1      52.360  32.911  53.291  0.00  0.00     0.201 C 
ATOM      2  O   UNL d   1      51.575  32.672  53.401  0.00  0.00    -0.286 OA
ENDROOT
BRANCH   1   3
ATOM      3  C   UNL d   1      52.590  33.658  53.557  0.00  0.00     0.078 A 
ATOM      4  C   UNL d   1      52.220  34.338  53.249  0.00  0.00     0.202 A 
ATOM      5  C   UNL d   1      52.450  35.084  53.515  0.00  0.00     0.084 A 
ATOM      6  O   UNL d   1      51.628  34.261  52.681  0.00  0.00    -0.286 OA
ATOM      7  C   UNL d   1      53.038  35.157  54.078  0.00  0.00     0.199 A 
ATOM      8  C   UNL d   1      53.407  34.476  54.386  0.00  0.00     0.039 A 
ATOM      9  O   UNL d   1      53.261  35.915  54.339  0.00  0.00    -0.286 OA
ATOM     10  C   UNL d   1      53.179  33.750  54.123  0.00  0.00     0.010 A 
BRANCH   8  11
ATOM     11  C   UNL d   1      53.999  34.571  54.955  0.00  0.00     0.003 C 
BRANCH  11  12
ATOM     12  C   UNL d   1      54.480  33.943  55.189  0.00  0.00     0.000 C 
ATOM     13  C   UNL d   1      55.217  34.069  55.528  0.00  0.00     0.000 C 
ENDBRANCH  11  12
ENDBRANCH   8  11
ENDBRANCH   1   3
BRANCH   1  14
ATOM     14  C   UNL d   1      52.898  32.402  52.919  0.00  0.00     0.068 C 
BRANCH  14  15
ATOM     15  C   UNL d   1      52.948  31.615  53.130  0.00  0.00     0.114 A 
ATOM     16  N   UNL d   1      53.427  31.301  53.726  0.00  0.00    -0.238 NA
ATOM     17  C   UNL d   1      53.299  30.486  53.743  0.00  0.00     0.088 A 
ATOM     18  C   UNL d   1      53.618  29.898  54.215  0.00  0.00     0.020 A 
ATOM     19  C   UNL d   1      52.748  30.295  53.167  0.00  0.00     0.049 A 
ATOM     20  C   UNL d   1      53.392  29.107  54.118  0.00  0.00     0.002 A 
ATOM     21  C   UNL d   1      52.832  28.922  53.530  0.00  0.00     0.001 A 
ATOM     22  C   UNL d   1      52.513  29.511  53.059  0.00  0.00     0.008 A 
ATOM     23  S   UNL d   1      52.518  30.993  52.773  0.00  0.00    -0.066 SA
ENDBRANCH  14  15
ENDBRANCH   1  14
TORSDOF 5
ENDMDL
MODEL 4
REMARK VINA RESULT:      -8.8      2.227      4.630
REMARK  5 active torsions:
REMARK  status: ('A' for Active; 'I' for Inactive)
REMARK    1  A    between atoms: C_6  and  C_1 
REMARK    2  A    between atoms: C_3  and  C_5 
REMARK    3  A    between atoms: C_5  and  C_6 
REMARK    4  A    between atoms: C_17  and  C_13 
REMARK    5  A    between atoms: C_20  and  C_17 
ROOT
ATOM      1  C   UNL d   1      51.751  33.109  53.189  0.00  0.00     0.201 C 
ATOM      2  O   UNL d   1      51.077  32.725  53.479  0.00  0.00    -0.286 OA
ENDROOT
BRANCH   1   3
ATOM      3  C   UNL d   1      52.487  32.752  53.291  0.00  0.00     0.078 A 
ATOM      4  C   UNL d   1      52.631  32.000  52.962  0.00  0.00     0.202 A 
ATOM      5  C   UNL d   1      53.368  31.643  53.064  0.00  0.00     0.084 A 
ATOM      6  O   UNL d   1      52.036  31.618  52.537  0.00  0.00    -0.286 OA
ATOM      7  C   UNL d   1      53.954  32.024  53.486  0.00  0.00     0.199 A 
ATOM      8  C   UNL d   1      53.810  32.776  53.814  0.00  0.00     0.039 A 
ATOM      9  O   UNL d   1      54.693  31.654  53.582  0.00  0.00    -0.286 OA
ATOM     10  C   UNL d   1      53.090  33.120  53.712  0.00  0.00     0.010 A 
BRANCH   8  11
ATOM     11  C   UNL d   1      54.417  33.145  54.237  0.00  0.00     0.003 C 
BRANCH  11  12
ATOM     12  C   UNL d   1      54.298  33.439  54.998  0.00  0.00     0.000 C 
ATOM     13  C   UNL d   1      54.899  33.815  55.413  0.00  0.00     0.000 C 
ENDBRANCH  11  12
ENDBRANCH   8  11
ENDBRANCH   1   3
BRANCH   1  14
ATOM     14  C   UNL d   1      51.676  33.840  52.806  0.00  0.00     0.068 C 
BRANCH  14  15
ATOM     15  C   UNL d   1      50.941  34.149  52.626  0.00  0.00     0.114 A 
ATOM     16  N   UNL d   1      50.548  34.077  51.902  0.00  0.00    -0.238 NA
ATOM     17  C   UNL d   1      49.827  34.472  51.972  0.00  0.00     0.088 A 
ATOM     18  C   UNL d   1      49.216  34.584  51.438  0.00  0.00     0.020 A 
ATOM     19  C   UNL d   1      49.772  34.786  52.728  0.00  0.00     0.049 A 
ATOM     20  C   UNL d   1      48.540  35.010  51.651  0.00  0.00     0.002 A 
ATOM     21  C   UNL d   1      48.492  35.325  52.420  0.00  0.00     0.001 A 
ATOM     22  C   UNL d   1      49.103  35.214  52.955  0.00  0.00     0.008 A 
ATOM     23  S   UNL d   1      50.464  34.591  53.151  0.00  0.00    -0.066 SA
ENDBRANCH  14  15
ENDBRANCH   1  14
TORSDOF 5
ENDMDL
MODEL 5
REMARK VINA RESULT:      -8.4      1.599      4.786
REMARK  5 active torsions:
REMARK  status: ('A' for Active; 'I' for Inactive)
REMARK    1  A    between atoms: C_6  and  C_1 
REMARK    2  A    between atoms: C_3  and  C_5 
REMARK    3  A    between atoms: C_5  and  C_6 
REMARK    4  A    between atoms: C_17  and  C_13 
REMARK    5  A    between atoms: C_20  and  C_17 
ROOT
ATOM      1  C   UNL d   1      53.632  31.865  53.671  0.00  0.00     0.201 C 
ATOM      2  O   UNL d   1      54.123  32.248  53.125  0.00  0.00    -0.286 OA
ENDROOT
BRANCH   1   3
ATOM      3  C   UNL d   1      53.357  31.107  53.496  0.00  0.00     0.078 A 
ATOM      4  C   UNL d   1      52.930  30.973  52.794  0.00  0.00     0.202 A 
ATOM      5  C   UNL d   1      52.656  30.215  52.620  0.00  0.00     0.084 A 
ATOM      6  O   UNL d   1      52.784  31.600  52.279  0.00  0.00    -0.286 OA
ATOM      7  C   UNL d   1      52.803  29.597  53.134  0.00  0.00     0.199 A 
ATOM      8  C   UNL d   1      53.230  29.731  53.836  0.00  0.00     0.039 A 
ATOM      9  O   UNL d   1      52.521  28.837  52.947  0.00  0.00    -0.286 OA
ATOM     10  C   UNL d   1      53.496  30.473  54.001  0.00  0.00     0.010 A 
BRANCH   8  11
ATOM     11  C   UNL d   1      53.368  29.092  54.342  0.00  0.00     0.003 C 
BRANCH  11  12
ATOM     12  C   UNL d   1      53.312  29.168  55.161  0.00  0.00     0.000 C 
ATOM     13  C   UNL d   1      53.412  28.524  55.661  0.00  0.00     0.000 C 
ENDBRANCH  11  12
ENDBRANCH   8  11
ENDBRANCH   1   3
BRANCH   1  14
ATOM     14  C   UNL d   1      53.426  32.246  54.378  0.00  0.00     0.068 C 
BRANCH  14  15
ATOM     15  C   UNL d   1      53.356  33.059  54.414  0.00  0.00     0.114 A 
ATOM     16  N   UNL d   1      52.795  33.516  54.016  0.00  0.00    -0.238 NA
ATOM     17  C   UNL d   1      52.932  34.305  54.216  0.00  0.00     0.088 A 
ATOM     18  C   UNL d   1      52.553  34.995  53.990  0.00  0.00     0.020 A 
ATOM     19  C   UNL d   1      53.570  34.339  54.730  0.00  0.00     0.049 A 
ATOM     20  C   UNL d   1      52.805  35.730  54.275  0.00  0.00     0.002 A 
ATOM     21  C   UNL d   1      53.453  35.755  54.797  0.00  0.00     0.001 A 
ATOM     22  C   UNL d   1      53.833  35.065  55.023  0.00  0.00     0.008 A 
ATOM     23  S   UNL d   1      53.848  33.563  54.865  0.00  0.00    -0.066 SA
ENDBRANCH  14  15
ENDBRANCH   1  14
TORSDOF 5
ENDMDL
MODEL 6
REMARK VINA RESULT:      -8.2      2.474      4.071
REMARK  5 active torsions:
REMARK  status: ('A' for Active; 'I' for Inactive)
REMARK    1  A    between atoms: C_6  and  C_1 
REMARK    2  A    between atoms: C_3  and  C_5 
REMARK    3  A    between atoms: C_5  and  C_6 
REMARK    4  A    between atoms: C_17  and  C_13 
REMARK    5  A    between atoms: C_20  and  C_17 
ROOT
ATOM      1  C   UNL d   1      50.846  34.104  52.961  0.00  0.00     0.201 C 
ATOM      2  O   UNL d   1      50.788  33.376  53.352  0.00  0.00    -0.286 OA
ENDROOT
BRANCH   1   3
ATOM      3  C   UNL d   1      50.179  34.406  52.581  0.00  0.00     0.078 A 
ATOM      4  C   UNL d   1      50.064  34.260  51.769  0.00  0.00     0.202 A 
ATOM      5  C   UNL d   1      49.397  34.562  51.390  0.00  0.00     0.084 A 
ATOM      6  O   UNL d   1      50.617  33.814  51.351  0.00  0.00    -0.286 OA
ATOM      7  C   UNL d   1      48.851  35.003  51.808  0.00  0.00     0.199 A 
ATOM      8  C   UNL d   1      48.966  35.149  52.620  0.00  0.00     0.039 A 
ATOM      9  O   UNL d   1      48.182  35.303  51.414  0.00  0.00    -0.286 OA
ATOM     10  C   UNL d   1      49.619  34.851  52.986  0.00  0.00     0.010 A 
BRANCH   8  11
ATOM     11  C   UNL d   1      48.402  35.597  53.025  0.00  0.00     0.003 C 
BRANCH  11  12
ATOM     12  C   UNL d   1      48.562  35.932  53.761  0.00  0.00     0.000 C 
ATOM     13  C   UNL d   1      48.004  36.387  54.157  0.00  0.00     0.000 C 
ENDBRANCH  11  12
ENDBRANCH   8  11
ENDBRANCH   1   3
BRANCH   1  14
ATOM     14  C   UNL d   1      51.567  34.513  52.957  0.00  0.00     0.068 C 
BRANCH  14  15
ATOM     15  C   UNL d   1      52.212  34.235  53.374  0.00  0.00     0.114 A 
ATOM     16  N   UNL d   1      52.663  33.569  53.183  0.00  0.00    -0.238 NA
ATOM     17  C   UNL d   1      53.255  33.499  53.755  0.00  0.00     0.088 A 
ATOM     18  C   UNL d   1      53.856  32.951  53.848  0.00  0.00     0.020 A 
ATOM     19  C   UNL d   1      53.173  34.112  54.293  0.00  0.00     0.049 A 
ATOM     20  C   UNL d   1      54.386  33.007  54.481  0.00  0.00     0.002 A 
ATOM     21  C   UNL d   1      54.296  33.633  55.023  0.00  0.00     0.001 A 
ATOM     22  C   UNL d   1      53.694  34.181  54.930  0.00  0.00     0.008 A 
ATOM     23  S   UNL d   1      52.522  34.584  54.068  0.00  0.00    -0.066 SA
ENDBRANCH  14  15
ENDBRANCH   1  14
TORSDOF 5
ENDMDL
