MODEL 1
REMARK VINA RESULT:       7.6      0.000      0.000
REMARK  6 active torsions:
REMARK  status: ('A' for Active; 'I' for Inactive)
REMARK    1  A    between atoms: C_3  and  C_1 
REMARK    2  A    between atoms: C_7  and  C_2 
REMARK       I    between atoms: N_5  and  C_3 
REMARK    3  A    between atoms: C_6  and  N_5 
REMARK    4  A    between atoms: N_10  and  C_6 
REMARK    5  A    between atoms: C_11  and  N_10 
REMARK    6  A    between atoms: O_18  and  C_15 
ROOT
ATOM      1  C   UNL d   1     -42.133-123.150 -50.350  0.00  0.00     0.285 C 
ATOM      2  N   UNL d   1     -41.597-122.759 -50.828  0.00  0.00    -0.179 NA
ATOM      3  O   UNL d   1     -42.526-123.814 -50.647  0.00  0.00    -0.265 OA
ENDROOT
BRANCH   1   4
ATOM      4  C   UNL d   1     -42.290-122.903 -49.588  0.00  0.00     0.103 A 
ATOM      5  C   UNL d   1     -42.958-122.474 -49.358  0.00  0.00     0.116 A 
ATOM      6  N   UNL d   1     -42.901-122.340 -48.549  0.00  0.00    -0.126 NA
ATOM      7  O   UNL d   1     -42.202-122.683 -48.277  0.00  0.00    -0.211 OA
ATOM      8  C   UNL d   1     -41.837-123.024 -48.918  0.00  0.00     0.131 A 
ATOM      9  C   UNL d   1     -41.124-123.427 -48.897  0.00  0.00     0.029 C 
BRANCH   5  10
ATOM     10  C   UNL d   1     -43.569-122.226 -49.849  0.00  0.00     0.031 A 
ATOM     11  C   UNL d   1     -44.272-122.647 -49.875  0.00  0.00     0.059 A 
ATOM     12 CL   UNL d   1     -44.364-123.317 -49.410  0.00  0.00    -0.082 Cl
ATOM     13  C   UNL d   1     -44.875-122.397 -50.364  0.00  0.00     0.011 A 
ATOM     14  C   UNL d   1     -44.785-121.722 -50.835  0.00  0.00     0.001 A 
ATOM     15  C   UNL d   1     -44.077-121.305 -50.803  0.00  0.00     0.000 A 
ATOM     16  C   UNL d   1     -43.459-121.549 -50.311  0.00  0.00     0.002 A 
ENDBRANCH   5  10
ENDBRANCH   1   4
BRANCH   2  17
ATOM     17  C   UNL d   1     -41.439-123.006 -51.590  0.00  0.00     0.224 C 
ATOM     18  S   UNL d   1     -41.430-123.817 -51.756  0.00  0.00    -0.037 SA
BRANCH  17  19
ATOM     19  N   UNL d   1     -41.290-122.468 -52.192  0.00  0.00    -0.215 NA
BRANCH  19  20
ATOM     20  C   UNL d   1     -41.338-122.711 -52.971  0.00  0.00     0.106 A 
ATOM     21  C   UNL d   1     -41.562-122.163 -53.562  0.00  0.00     0.112 A 
ATOM     22  C   UNL d   1     -41.610-122.409 -54.351  0.00  0.00     0.026 A 
ATOM     23  C   UNL d   1     -41.438-123.190 -54.551  0.00  0.00     0.002 A 
ATOM     24  C   UNL d   1     -41.216-123.736 -53.970  0.00  0.00     0.002 A 
ATOM     25  C   UNL d   1     -41.166-123.495 -53.181  0.00  0.00     0.021 A 
BRANCH  21  26
ATOM     26  O   UNL d   1     -41.731-121.388 -53.355  0.00  0.00    -0.327 OA
ATOM     27  C   UNL d   1     -42.118-120.898 -53.888  0.00  0.00     0.181 C 
ENDBRANCH  21  26
ENDBRANCH  19  20
ENDBRANCH  17  19
ENDBRANCH   2  17
TORSDOF 6
ENDMDL
