MODEL 1
REMARK VINA RESULT:      80.2      0.000      0.000
REMARK  5 active torsions:
REMARK  status: ('A' for Active; 'I' for Inactive)
REMARK    1  A    between atoms: C_7  and  N_1 
REMARK    2  A    between atoms: C_2  and  C_6 
REMARK    3  A    between atoms: C_5  and  C_3 
REMARK    4  A    between atoms: N_8  and  C_5 
REMARK    5  A    between atoms: C_19  and  N_9 
ROOT
ATOM      1  C   UNL d   1     -48.009  31.199  34.755  0.00  0.00     0.102 A 
ATOM      2  C   UNL d   1     -47.870  29.944  35.208  0.00  0.00     0.126 A 
ATOM      3  O   UNL d   1     -47.845  30.417  34.532  0.00  0.00    -0.305 OA
ATOM      4  C   UNL d   1     -48.136  31.203  35.578  0.00  0.00     0.027 A 
ATOM      5  C   UNL d   1     -48.050  30.433  35.849  0.00  0.00     0.029 A 
ENDROOT
BRANCH   2   6
ATOM      6  C   UNL d   1     -47.735  29.092  35.247  0.00  0.00     0.143 C 
ATOM      7  S   UNL d   1     -47.043  28.805  35.592  0.00  0.00    -0.057 SA
BRANCH   6   8
ATOM      8  N   UNL d   1     -48.321  28.574  34.927  0.00  0.00    -0.291 N 
ATOM      9  C   UNL d   1     -48.843  28.163  35.408  0.00  0.00     0.100 A 
ATOM     10  C   UNL d   1     -49.399  27.669  35.072  0.00  0.00     0.100 A 
ATOM     11  N   UNL d   1     -49.456  27.566  34.272  0.00  0.00    -0.301 N 
ATOM     12  C   UNL d   1     -48.930  27.978  33.758  0.00  0.00     0.100 A 
ATOM     13  C   UNL d   1     -48.358  28.485  34.092  0.00  0.00     0.100 A 
BRANCH  11  14
ATOM     14  C   UNL d   1     -50.030  27.058  33.953  0.00  0.00     0.064 A 
ATOM     15  C   UNL d   1     -50.748  27.343  33.679  0.00  0.00     0.018 A 
ATOM     16  C   UNL d   1     -51.309  26.829  33.364  0.00  0.00     0.002 A 
ATOM     17  C   UNL d   1     -51.141  26.016  33.326  0.00  0.00     0.000 A 
ATOM     18  C   UNL d   1     -50.423  25.731  33.600  0.00  0.00     0.002 A 
ATOM     19  C   UNL d   1     -49.871  26.257  33.912  0.00  0.00     0.018 A 
ENDBRANCH  11  14
ENDBRANCH   6   8
ENDBRANCH   2   6
BRANCH   1  20
ATOM     20  C   UNL d   1     -48.059  31.903  34.319  0.00  0.00     0.045 A 
ATOM     21  C   UNL d   1     -47.475  32.488  34.403  0.00  0.00     0.129 A 
ATOM     22  C   UNL d   1     -47.525  33.188  33.969  0.00  0.00     0.024 A 
ATOM     23  C   UNL d   1     -48.159  33.318  33.441  0.00  0.00     0.002 A 
ATOM     24  C   UNL d   1     -48.734  32.729  33.366  0.00  0.00     0.000 A 
ATOM     25  C   UNL d   1     -48.684  32.029  33.800  0.00  0.00     0.004 A 
BRANCH  21  26
ATOM     26  N   UNL d   1     -46.850  32.378  34.913  0.00  0.00    -0.114 N 
ATOM     27  O   UNL d   1     -46.873  32.547  35.732  0.00  0.00    -0.532 OA
ATOM     28  O   UNL d   1     -46.114  32.086  34.682  0.00  0.00    -0.532 OA
ENDBRANCH  21  26
ENDBRANCH   1  20
TORSDOF 5
ENDMDL
