MODEL 1
REMARK VINA RESULT:      -3.6      0.000      0.000
REMARK  1 active torsions:
REMARK  status: ('A' for Active; 'I' for Inactive)
REMARK    1  A    between atoms: C_11  and  C_4 
ROOT
ATOM      1  N   UNL d   1      32.714  22.335 -19.572  0.00  0.00    -0.242 NA
ATOM      2  C   UNL d   1      32.833  22.245 -20.373  0.00  0.00     0.099 A 
ATOM      3  N   UNL d   1      33.237  23.602 -20.486  0.00  0.00    -0.241 NA
ATOM      4  C   UNL d   1      32.858  23.058 -19.232  0.00  0.00     0.101 A 
ATOM      5  C   UNL d   1      33.095  22.880 -20.830  0.00  0.00     0.099 A 
ATOM      6  C   UNL d   1      32.690  21.518 -20.719  0.00  0.00     0.021 A 
ATOM      7  C   UNL d   1      32.809  21.412 -21.543  0.00  0.00     0.002 A 
ATOM      8  C   UNL d   1      33.070  22.046 -22.001  0.00  0.00     0.002 A 
ATOM      9  C   UNL d   1      33.213  22.786 -21.633  0.00  0.00     0.021 A 
ATOM     10  C   UNL d   1      33.119  23.692 -19.689  0.00  0.00     0.118 A 
ATOM     11  C   UNL d   1      32.665  20.673 -21.905  0.00  0.00     0.000 C 
ATOM     12  C   UNL d   1      33.188  21.940 -22.819  0.00  0.00     0.000 C 
ENDROOT
BRANCH   4  13
ATOM     13  C   UNL d   1      32.739  23.148 -18.429  0.00  0.00     0.019 A 
ATOM     14  C   UNL d   1      33.241  22.786 -17.892  0.00  0.00     0.002 A 
ATOM     15  C   UNL d   1      33.128  22.873 -17.053  0.00  0.00     0.000 A 
ATOM     16  C   UNL d   1      32.486  23.340 -16.813  0.00  0.00     0.000 A 
ATOM     17  C   UNL d   1      31.984  23.702 -17.351  0.00  0.00     0.000 A 
ATOM     18  C   UNL d   1      32.102  23.613 -18.151  0.00  0.00     0.002 A 
ENDBRANCH   4  13
TORSDOF 1
ENDMDL
MODEL 2
REMARK VINA RESULT:      -3.2      1.664      4.675
REMARK  1 active torsions:
REMARK  status: ('A' for Active; 'I' for Inactive)
REMARK    1  A    between atoms: C_11  and  C_4 
ROOT
ATOM      1  N   UNL d   1      32.810  20.964 -22.178  0.00  0.00    -0.242 NA
ATOM      2  C   UNL d   1      32.784  21.504 -21.569  0.00  0.00     0.099 A 
ATOM      3  N   UNL d   1      33.214  20.514 -20.645  0.00  0.00    -0.241 NA
ATOM      4  C   UNL d   1      33.039  20.202 -22.018  0.00  0.00     0.101 A 
ATOM      5  C   UNL d   1      32.986  21.279 -20.802  0.00  0.00     0.099 A 
ATOM      6  C   UNL d   1      32.554  22.273 -21.727  0.00  0.00     0.021 A 
ATOM      7  C   UNL d   1      32.522  22.840 -21.108  0.00  0.00     0.002 A 
ATOM      8  C   UNL d   1      32.725  22.615 -20.340  0.00  0.00     0.002 A 
ATOM      9  C   UNL d   1      32.958  21.823 -20.194  0.00  0.00     0.021 A 
ATOM     10  C   UNL d   1      33.241  19.977 -21.251  0.00  0.00     0.118 A 
ATOM     11  C   UNL d   1      32.289  23.627 -21.259  0.00  0.00     0.000 C 
ATOM     12  C   UNL d   1      32.693  23.177 -19.726  0.00  0.00     0.000 C 
ENDROOT
BRANCH   4  13
ATOM     13  C   UNL d   1      33.065  19.660 -22.629  0.00  0.00     0.019 A 
ATOM     14  C   UNL d   1      33.211  19.908 -23.397  0.00  0.00     0.002 A 
ATOM     15  C   UNL d   1      33.241  19.353 -24.041  0.00  0.00     0.000 A 
ATOM     16  C   UNL d   1      33.116  18.557 -23.849  0.00  0.00     0.000 A 
ATOM     17  C   UNL d   1      32.971  18.309 -23.081  0.00  0.00     0.000 A 
ATOM     18  C   UNL d   1      32.944  18.848 -22.472  0.00  0.00     0.002 A 
ENDBRANCH   4  13
TORSDOF 1
ENDMDL
MODEL 3
REMARK VINA RESULT:      -3.0      2.361      3.831
REMARK  1 active torsions:
REMARK  status: ('A' for Active; 'I' for Inactive)
REMARK    1  A    between atoms: C_11  and  C_4 
ROOT
ATOM      1  N   UNL d   1      32.799  20.609 -22.499  0.00  0.00    -0.242 NA
ATOM      2  C   UNL d   1      32.909  19.824 -22.685  0.00  0.00     0.099 A 
ATOM      3  N   UNL d   1      33.203  19.520 -21.329  0.00  0.00    -0.241 NA
ATOM      4  C   UNL d   1      32.891  20.846 -21.727  0.00  0.00     0.101 A 
ATOM      5  C   UNL d   1      33.112  19.279 -22.100  0.00  0.00     0.099 A 
ATOM      6  C   UNL d   1      32.817  19.582 -23.461  0.00  0.00     0.021 A 
ATOM      7  C   UNL d   1      32.928  18.776 -23.668  0.00  0.00     0.002 A 
ATOM      8  C   UNL d   1      33.131  18.231 -23.083  0.00  0.00     0.002 A 
ATOM      9  C   UNL d   1      33.222  18.493 -22.292  0.00  0.00     0.021 A 
ATOM     10  C   UNL d   1      33.093  20.301 -21.142  0.00  0.00     0.118 A 
ATOM     11  C   UNL d   1      32.837  18.519 -24.458  0.00  0.00     0.000 C 
ATOM     12  C   UNL d   1      33.241  17.430 -23.288  0.00  0.00     0.000 C 
ENDROOT
BRANCH   4  13
ATOM     13  C   UNL d   1      32.780  21.633 -21.539  0.00  0.00     0.019 A 
ATOM     14  C   UNL d   1      32.231  21.850 -20.970  0.00  0.00     0.002 A 
ATOM     15  C   UNL d   1      32.106  22.666 -20.765  0.00  0.00     0.000 A 
ATOM     16  C   UNL d   1      32.567  23.223 -21.169  0.00  0.00     0.000 A 
ATOM     17  C   UNL d   1      33.116  23.006 -21.738  0.00  0.00     0.000 A 
ATOM     18  C   UNL d   1      33.228  22.222 -21.927  0.00  0.00     0.002 A 
ENDBRANCH   4  13
TORSDOF 1
ENDMDL
MODEL 4
REMARK VINA RESULT:      -2.9      2.368      5.169
REMARK  1 active torsions:
REMARK  status: ('A' for Active; 'I' for Inactive)
REMARK    1  A    between atoms: C_11  and  C_4 
ROOT
ATOM      1  N   UNL d   1      32.871  19.673 -22.129  0.00  0.00    -0.242 NA
ATOM      2  C   UNL d   1      32.963  20.457 -21.932  0.00  0.00     0.099 A 
ATOM      3  N   UNL d   1      33.241  20.787 -23.285  0.00  0.00    -0.241 NA
ATOM      4  C   UNL d   1      32.963  19.449 -22.904  0.00  0.00     0.101 A 
ATOM      5  C   UNL d   1      33.149  21.015 -22.511  0.00  0.00     0.099 A 
ATOM      6  C   UNL d   1      32.871  20.686 -21.152  0.00  0.00     0.021 A 
ATOM      7  C   UNL d   1      32.963  21.492 -20.934  0.00  0.00     0.002 A 
ATOM      8  C   UNL d   1      33.149  22.050 -21.513  0.00  0.00     0.002 A 
ATOM      9  C   UNL d   1      33.241  21.801 -22.308  0.00  0.00     0.021 A 
ATOM     10  C   UNL d   1      33.149  20.007 -23.483  0.00  0.00     0.118 A 
ATOM     11  C   UNL d   1      32.871  21.735 -20.141  0.00  0.00     0.000 C 
ATOM     12  C   UNL d   1      33.241  22.850 -21.297  0.00  0.00     0.000 C 
ENDROOT
BRANCH   4  13
ATOM     13  C   UNL d   1      32.871  18.663 -23.103  0.00  0.00     0.019 A 
ATOM     14  C   UNL d   1      33.241  18.077 -22.664  0.00  0.00     0.002 A 
ATOM     15  C   UNL d   1      33.152  17.254 -22.862  0.00  0.00     0.000 A 
ATOM     16  C   UNL d   1      32.674  17.081 -23.516  0.00  0.00     0.000 A 
ATOM     17  C   UNL d   1      32.304  17.666 -23.955  0.00  0.00     0.000 A 
ATOM     18  C   UNL d   1      32.396  18.450 -23.758  0.00  0.00     0.002 A 
ENDBRANCH   4  13
TORSDOF 1
ENDMDL
MODEL 5
REMARK VINA RESULT:      -2.8      3.472      6.234
REMARK  1 active torsions:
REMARK  status: ('A' for Active; 'I' for Inactive)
REMARK    1  A    between atoms: C_11  and  C_4 
ROOT
ATOM      1  N   UNL d   1      32.729  18.398 -22.786  0.00  0.00    -0.242 NA
ATOM      2  C   UNL d   1      32.856  19.201 -22.726  0.00  0.00     0.099 A 
ATOM      3  N   UNL d   1      32.935  19.316 -24.140  0.00  0.00    -0.241 NA
ATOM      4  C   UNL d   1      32.706  18.059 -23.523  0.00  0.00     0.101 A 
ATOM      5  C   UNL d   1      32.959  19.660 -23.403  0.00  0.00     0.099 A 
ATOM      6  C   UNL d   1      32.880  19.546 -21.985  0.00  0.00     0.021 A 
ATOM      7  C   UNL d   1      33.009  20.372 -21.908  0.00  0.00     0.002 A 
ATOM      8  C   UNL d   1      33.112  20.832 -22.585  0.00  0.00     0.002 A 
ATOM      9  C   UNL d   1      33.085  20.464 -23.338  0.00  0.00     0.021 A 
ATOM     10  C   UNL d   1      32.809  18.518 -24.201  0.00  0.00     0.118 A 
ATOM     11  C   UNL d   1      33.035  20.734 -21.156  0.00  0.00     0.000 C 
ATOM     12  C   UNL d   1      33.241  21.652 -22.509  0.00  0.00     0.000 C 
ENDROOT
BRANCH   4  13
ATOM     13  C   UNL d   1      32.579  17.255 -23.585  0.00  0.00     0.019 A 
ATOM     14  C   UNL d   1      33.213  16.734 -23.587  0.00  0.00     0.002 A 
ATOM     15  C   UNL d   1      33.094  15.894 -23.651  0.00  0.00     0.000 A 
ATOM     16  C   UNL d   1      32.308  15.635 -23.710  0.00  0.00     0.000 A 
ATOM     17  C   UNL d   1      31.675  16.156 -23.708  0.00  0.00     0.000 A 
ATOM     18  C   UNL d   1      31.800  16.958 -23.646  0.00  0.00     0.002 A 
ENDBRANCH   4  13
TORSDOF 1
ENDMDL
MODEL 6
REMARK VINA RESULT:      -2.5      3.433      5.337
REMARK  1 active torsions:
REMARK  status: ('A' for Active; 'I' for Inactive)
REMARK    1  A    between atoms: C_11  and  C_4 
ROOT
ATOM      1  N   UNL d   1      32.772  18.618 -22.711  0.00  0.00    -0.242 NA
ATOM      2  C   UNL d   1      32.723  18.060 -23.303  0.00  0.00     0.099 A 
ATOM      3  N   UNL d   1      33.163  19.010 -24.264  0.00  0.00    -0.241 NA
ATOM      4  C   UNL d   1      33.017  19.369 -22.899  0.00  0.00     0.101 A 
ATOM      5  C   UNL d   1      32.918  18.256 -24.080  0.00  0.00     0.099 A 
ATOM      6  C   UNL d   1      32.477  17.302 -23.118  0.00  0.00     0.021 A 
ATOM      7  C   UNL d   1      32.422  16.718 -23.718  0.00  0.00     0.002 A 
ATOM      8  C   UNL d   1      32.617  16.914 -24.495  0.00  0.00     0.002 A 
ATOM      9  C   UNL d   1      32.867  17.695 -24.670  0.00  0.00     0.021 A 
ATOM     10  C   UNL d   1      33.212  19.565 -23.676  0.00  0.00     0.118 A 
ATOM     11  C   UNL d   1      32.172  15.941 -23.539  0.00  0.00     0.000 C 
ATOM     12  C   UNL d   1      32.562  16.334 -25.091  0.00  0.00     0.000 C 
ENDROOT
BRANCH   4  13
ATOM     13  C   UNL d   1      33.066  19.928 -22.306  0.00  0.00     0.019 A 
ATOM     14  C   UNL d   1      33.002  20.726 -22.483  0.00  0.00     0.002 A 
ATOM     15  C   UNL d   1      33.052  21.319 -21.874  0.00  0.00     0.000 A 
ATOM     16  C   UNL d   1      33.169  21.045 -21.101  0.00  0.00     0.000 A 
ATOM     17  C   UNL d   1      33.233  20.247 -20.924  0.00  0.00     0.000 A 
ATOM     18  C   UNL d   1      33.184  19.689 -21.514  0.00  0.00     0.002 A 
ENDBRANCH   4  13
TORSDOF 1
ENDMDL
MODEL 7
REMARK VINA RESULT:      -2.0      6.874      8.357
REMARK  1 active torsions:
REMARK  status: ('A' for Active; 'I' for Inactive)
REMARK    1  A    between atoms: C_11  and  C_4 
ROOT
ATOM      1  N   UNL d   1      30.496  16.945 -24.086  0.00  0.00    -0.242 NA
ATOM      2  C   UNL d   1      29.829  16.571 -23.805  0.00  0.00     0.099 A 
ATOM      3  N   UNL d   1      30.604  15.454 -23.392  0.00  0.00    -0.241 NA
ATOM      4  C   UNL d   1      31.214  16.572 -24.019  0.00  0.00     0.101 A 
ATOM      5  C   UNL d   1      29.883  15.825 -23.458  0.00  0.00     0.099 A 
ATOM      6  C   UNL d   1      29.104  16.944 -23.872  0.00  0.00     0.021 A 
ATOM      7  C   UNL d   1      28.409  16.570 -23.586  0.00  0.00     0.002 A 
ATOM      8  C   UNL d   1      28.463  15.824 -23.239  0.00  0.00     0.002 A 
ATOM      9  C   UNL d   1      29.212  15.453 -23.178  0.00  0.00     0.021 A 
ATOM     10  C   UNL d   1      31.268  15.825 -23.671  0.00  0.00     0.118 A 
ATOM     11  C   UNL d   1      27.665  16.944 -23.650  0.00  0.00     0.000 C 
ATOM     12  C   UNL d   1      27.772  15.453 -22.956  0.00  0.00     0.000 C 
ENDROOT
BRANCH   4  13
ATOM     13  C   UNL d   1      31.883  16.946 -24.300  0.00  0.00     0.019 A 
ATOM     14  C   UNL d   1      32.051  17.717 -24.079  0.00  0.00     0.002 A 
ATOM     15  C   UNL d   1      32.745  18.118 -24.365  0.00  0.00     0.000 A 
ATOM     16  C   UNL d   1      33.236  17.687 -24.875  0.00  0.00     0.000 A 
ATOM     17  C   UNL d   1      33.067  16.916 -25.097  0.00  0.00     0.000 A 
ATOM     18  C   UNL d   1      32.401  16.542 -24.817  0.00  0.00     0.002 A 
ENDBRANCH   4  13
TORSDOF 1
ENDMDL
MODEL 8
REMARK VINA RESULT:      -1.8      7.412      8.127
REMARK  1 active torsions:
REMARK  status: ('A' for Active; 'I' for Inactive)
REMARK    1  A    between atoms: C_11  and  C_4 
ROOT
ATOM      1  N   UNL d   1      30.246  16.348 -23.869  0.00  0.00    -0.242 NA
ATOM      2  C   UNL d   1      30.981  16.613 -24.100  0.00  0.00     0.099 A 
ATOM      3  N   UNL d   1      30.409  17.802 -24.627  0.00  0.00    -0.241 NA
ATOM      4  C   UNL d   1      29.596  16.812 -24.018  0.00  0.00     0.101 A 
ATOM      5  C   UNL d   1      31.062  17.341 -24.480  0.00  0.00     0.099 A 
ATOM      6  C   UNL d   1      31.638  16.149 -23.951  0.00  0.00     0.021 A 
ATOM      7  C   UNL d   1      32.401  16.410 -24.184  0.00  0.00     0.002 A 
ATOM      8  C   UNL d   1      32.483  17.138 -24.563  0.00  0.00     0.002 A 
ATOM      9  C   UNL d   1      31.801  17.603 -24.709  0.00  0.00     0.021 A 
ATOM     10  C   UNL d   1      29.678  17.539 -24.398  0.00  0.00     0.118 A 
ATOM     11  C   UNL d   1      33.077  15.943 -24.036  0.00  0.00     0.000 C 
ATOM     12  C   UNL d   1      33.241  17.397 -24.794  0.00  0.00     0.000 C 
ENDROOT
BRANCH   4  13
ATOM     13  C   UNL d   1      28.860  16.547 -23.787  0.00  0.00     0.019 A 
ATOM     14  C   UNL d   1      28.273  17.081 -23.580  0.00  0.00     0.002 A 
ATOM     15  C   UNL d   1      27.501  16.817 -23.337  0.00  0.00     0.000 A 
ATOM     16  C   UNL d   1      27.378  15.998 -23.322  0.00  0.00     0.000 A 
ATOM     17  C   UNL d   1      27.965  15.464 -23.529  0.00  0.00     0.000 A 
ATOM     18  C   UNL d   1      28.700  15.726 -23.760  0.00  0.00     0.002 A 
ENDBRANCH   4  13
TORSDOF 1
ENDMDL
MODEL 9
REMARK VINA RESULT:      -1.2      5.912      7.929
REMARK  1 active torsions:
REMARK  status: ('A' for Active; 'I' for Inactive)
REMARK    1  A    between atoms: C_11  and  C_4 
ROOT
ATOM      1  N   UNL d   1      30.549  17.558 -24.041  0.00  0.00    -0.242 NA
ATOM      2  C   UNL d   1      29.929  17.035 -24.118  0.00  0.00     0.099 A 
ATOM      3  N   UNL d   1      30.669  16.263 -25.053  0.00  0.00    -0.241 NA
ATOM      4  C   UNL d   1      31.226  17.432 -24.471  0.00  0.00     0.101 A 
ATOM      5  C   UNL d   1      29.989  16.387 -24.624  0.00  0.00     0.099 A 
ATOM      6  C   UNL d   1      29.245  17.160 -23.687  0.00  0.00     0.021 A 
ATOM      7  C   UNL d   1      28.599  16.629 -23.756  0.00  0.00     0.002 A 
ATOM      8  C   UNL d   1      28.660  15.980 -24.263  0.00  0.00     0.002 A 
ATOM      9  C   UNL d   1      29.366  15.865 -24.698  0.00  0.00     0.021 A 
ATOM     10  C   UNL d   1      31.286  16.783 -24.977  0.00  0.00     0.118 A 
ATOM     11  C   UNL d   1      27.897  16.748 -23.320  0.00  0.00     0.000 C 
ATOM     12  C   UNL d   1      28.018  15.453 -24.331  0.00  0.00     0.000 C 
ENDROOT
BRANCH   4  13
ATOM     13  C   UNL d   1      31.847  17.955 -24.395  0.00  0.00     0.019 A 
ATOM     14  C   UNL d   1      31.783  18.606 -23.900  0.00  0.00     0.002 A 
ATOM     15  C   UNL d   1      32.423  19.160 -23.812  0.00  0.00     0.000 A 
ATOM     16  C   UNL d   1      33.109  19.004 -24.251  0.00  0.00     0.000 A 
ATOM     17  C   UNL d   1      33.173  18.353 -24.745  0.00  0.00     0.000 A 
ATOM     18  C   UNL d   1      32.555  17.830 -24.822  0.00  0.00     0.002 A 
ENDBRANCH   4  13
TORSDOF 1
ENDMDL
