MODEL 1
REMARK VINA RESULT:      21.7      0.000      0.000
REMARK  7 active torsions:
REMARK  status: ('A' for Active; 'I' for Inactive)
REMARK    1  A    between atoms: C_4  and  N_1 
REMARK    2  A    between atoms: O_2  and  C_10 
REMARK    3  A    between atoms: C_3  and  O_2 
REMARK    4  A    between atoms: C_9  and  C_4 
REMARK    5  A    between atoms: C_12  and  C_6 
REMARK    6  A    between atoms: C_7  and  C_12 
REMARK    7  A    between atoms: C_10  and  C_9 
ROOT
ATOM      1  O   UNL d   1     -57.584 -99.322 -44.317  0.00  0.00    -0.302 OA
ENDROOT
BRANCH   1   2
ATOM      2  C   UNL d   1     -56.983 -98.756 -44.335  0.00  0.00     0.166 C 
BRANCH   2   3
ATOM      3  C   UNL d   1     -56.242 -98.940 -44.633  0.00  0.00     0.238 C 
ATOM      4  O   UNL d   1     -56.064 -98.809 -45.412  0.00  0.00    -0.283 OA
BRANCH   3   5
ATOM      5  C   UNL d   1     -55.679 -99.263 -44.123  0.00  0.00     0.125 C 
BRANCH   5   6
ATOM      6  N   UNL d   1     -55.366 -99.996 -44.267  0.00  0.00    -0.296 N 
ATOM      7  C   UNL d   1     -55.115-100.203 -45.026  0.00  0.00     0.107 A 
ATOM      8  C   UNL d   1     -54.796-100.950 -45.173  0.00  0.00     0.142 A 
ATOM      9  O   UNL d   1     -54.729-101.488 -44.560  0.00  0.00    -0.300 OA
ATOM     10  C   UNL d   1     -54.973-101.293 -43.815  0.00  0.00     0.142 A 
ATOM     11  C   UNL d   1     -55.292-100.545 -43.668  0.00  0.00     0.107 A 
ENDBRANCH   5   6
ENDBRANCH   3   5
ENDBRANCH   2   3
ENDBRANCH   1   2
BRANCH   1  12
ATOM     12  C   UNL d   1     -58.325 -99.133 -43.990  0.00  0.00     0.100 A 
ATOM     13  C   UNL d   1     -58.980 -99.009 -44.487  0.00  0.00     0.023 A 
ATOM     14  C   UNL d   1     -59.711 -98.822 -44.169  0.00  0.00     0.002 A 
ATOM     15  C   UNL d   1     -59.793 -98.757 -43.353  0.00  0.00     0.000 A 
ATOM     16  C   UNL d   1     -59.138 -98.880 -42.856  0.00  0.00     0.002 A 
ATOM     17  C   UNL d   1     -58.417 -99.066 -43.187  0.00  0.00     0.025 A 
BRANCH  13  18
ATOM     18  C   UNL d   1     -58.903 -99.074 -45.318  0.00  0.00     0.002 C 
BRANCH  18  19
ATOM     19  C   UNL d   1     -59.490 -98.770 -45.823  0.00  0.00     0.000 C 
ATOM     20  C   UNL d   1     -59.371 -98.783 -46.622  0.00  0.00     0.000 C 
ENDBRANCH  18  19
ENDBRANCH  13  18
ENDBRANCH   1  12
TORSDOF 7
ENDMDL
