MODEL 1
REMARK VINA RESULT:      -8.8      0.000      0.000
REMARK  5 active torsions:
REMARK  status: ('A' for Active; 'I' for Inactive)
REMARK    1  A    between atoms: C_6  and  C_1 
REMARK    2  A    between atoms: C_9  and  C_5 
REMARK       I    between atoms: N_13  and  C_6 
REMARK    3  A    between atoms: C_7  and  C_15 
REMARK    4  A    between atoms: N_10  and  N_13 
REMARK    5  A    between atoms: C_15  and  N_10 
ROOT
ATOM      1  C   UNL d   1     -43.388  12.609  21.797  0.00  0.00     0.316 C 
ATOM      2  N   UNL d   1     -44.251  12.973  22.044  0.00  0.00    -0.104 NA
ATOM      3  O   UNL d   1     -43.273  11.811  21.952  0.00  0.00    -0.262 OA
ENDROOT
BRANCH   1   4
ATOM      4  C   UNL d   1     -42.784  13.041  21.452  0.00  0.00     0.164 A 
ATOM      5  C   UNL d   1     -42.900  13.385  20.715  0.00  0.00     0.047 A 
ATOM      6  C   UNL d   1     -41.589  13.908  20.747  0.00  0.00     0.105 A 
ATOM      7  N   UNL d   1     -41.472  13.564  21.483  0.00  0.00    -0.148 NA
ATOM      8  N   UNL d   1     -42.072  13.129  21.838  0.00  0.00    -0.143 NA
BRANCH   6   9
ATOM      9  C   UNL d   1     -41.136  14.364  20.240  0.00  0.00     0.019 A 
ATOM     10  C   UNL d   1     -40.945  14.073  19.500  0.00  0.00     0.002 A 
ATOM     11  C   UNL d   1     -40.490  14.528  18.988  0.00  0.00     0.000 A 
ATOM     12  C   UNL d   1     -40.297  14.242  18.249  0.00  0.00     0.000 A 
ATOM     13  C   UNL d   1     -40.230  15.274  19.226  0.00  0.00     0.000 A 
ATOM     14  C   UNL d   1     -39.846  14.693  17.742  0.00  0.00     0.000 A 
ATOM     15  C   UNL d   1     -39.583  15.438  17.970  0.00  0.00     0.000 A 
ATOM     16  C   UNL d   1     -39.774  15.728  18.710  0.00  0.00     0.000 A 
ATOM     17  C   UNL d   1     -40.426  15.551  19.960  0.00  0.00     0.000 A 
ATOM     18  C   UNL d   1     -40.879  15.095  20.468  0.00  0.00     0.002 A 
ENDBRANCH   6   9
ENDBRANCH   1   4
BRANCH   2  19
ATOM     19  N   UNL d   1     -45.060  12.555  22.466  0.00  0.00    -0.143 NA
BRANCH  19  20
ATOM     20  C   UNL d   1     -45.568  13.015  22.982  0.00  0.00     0.126 C 
BRANCH  20  21
ATOM     21  C   UNL d   1     -46.365  12.734  23.166  0.00  0.00     0.060 A 
ATOM     22  C   UNL d   1     -47.048  13.230  23.004  0.00  0.00     0.005 A 
ATOM     23  C   UNL d   1     -47.845  12.949  23.188  0.00  0.00     0.000 A 
ATOM     24  C   UNL d   1     -46.940  14.017  22.654  0.00  0.00     0.000 A 
ATOM     25  C   UNL d   1     -48.536  13.452  23.024  0.00  0.00     0.000 A 
ATOM     26  C   UNL d   1     -47.964  12.166  23.538  0.00  0.00     0.003 A 
ATOM     27  C   UNL d   1     -48.424  14.235  22.675  0.00  0.00     0.000 A 
ATOM     28  C   UNL d   1     -47.631  14.519  22.489  0.00  0.00     0.000 A 
ATOM     29  C   UNL d   1     -47.270  11.672  23.698  0.00  0.00     0.042 A 
ATOM     30  C   UNL d   1     -46.473  11.954  23.513  0.00  0.00     0.197 A 
ATOM     31  O   UNL d   1     -45.793  11.460  23.675  0.00  0.00    -0.286 OA
ENDBRANCH  20  21
ENDBRANCH  19  20
ENDBRANCH   2  19
TORSDOF 5
ENDMDL
MODEL 2
REMARK VINA RESULT:      -8.6      1.199      7.112
REMARK  5 active torsions:
REMARK  status: ('A' for Active; 'I' for Inactive)
REMARK    1  A    between atoms: C_6  and  C_1 
REMARK    2  A    between atoms: C_9  and  C_5 
REMARK       I    between atoms: N_13  and  C_6 
REMARK    3  A    between atoms: C_7  and  C_15 
REMARK    4  A    between atoms: N_10  and  N_13 
REMARK    5  A    between atoms: C_15  and  N_10 
ROOT
ATOM      1  C   UNL d   1     -43.282  12.783  21.601  0.00  0.00     0.316 C 
ATOM      2  N   UNL d   1     -42.674  13.502  21.372  0.00  0.00    -0.104 NA
ATOM      3  O   UNL d   1     -42.979  12.021  21.548  0.00  0.00    -0.262 OA
ENDROOT
BRANCH   1   4
ATOM      4  C   UNL d   1     -44.058  12.890  21.838  0.00  0.00     0.164 A 
ATOM      5  C   UNL d   1     -44.509  13.485  21.496  0.00  0.00     0.047 A 
ATOM      6  C   UNL d   1     -45.612  13.118  22.299  0.00  0.00     0.105 A 
ATOM      7  N   UNL d   1     -45.161  12.523  22.642  0.00  0.00    -0.148 NA
ATOM      8  N   UNL d   1     -44.381  12.408  22.411  0.00  0.00    -0.143 NA
BRANCH   6   9
ATOM      9  C   UNL d   1     -46.379  13.388  22.385  0.00  0.00     0.019 A 
ATOM     10  C   UNL d   1     -46.983  13.020  21.976  0.00  0.00     0.002 A 
ATOM     11  C   UNL d   1     -47.756  13.288  22.060  0.00  0.00     0.000 A 
ATOM     12  C   UNL d   1     -48.362  12.924  21.653  0.00  0.00     0.000 A 
ATOM     13  C   UNL d   1     -47.915  13.927  22.557  0.00  0.00     0.000 A 
ATOM     14  C   UNL d   1     -49.127  13.189  21.736  0.00  0.00     0.000 A 
ATOM     15  C   UNL d   1     -49.295  13.827  22.229  0.00  0.00     0.000 A 
ATOM     16  C   UNL d   1     -48.691  14.194  22.638  0.00  0.00     0.000 A 
ATOM     17  C   UNL d   1     -47.308  14.284  22.956  0.00  0.00     0.000 A 
ATOM     18  C   UNL d   1     -46.540  14.014  22.871  0.00  0.00     0.002 A 
ENDBRANCH   6   9
ENDBRANCH   1   4
BRANCH   2  19
ATOM     19  N   UNL d   1     -41.717  13.502  21.073  0.00  0.00    -0.143 NA
BRANCH  19  20
ATOM     20  C   UNL d   1     -41.342  14.228  20.812  0.00  0.00     0.126 C 
BRANCH  20  21
ATOM     21  C   UNL d   1     -40.516  14.221  20.556  0.00  0.00     0.060 A 
ATOM     22  C   UNL d   1     -40.320  14.285  19.721  0.00  0.00     0.005 A 
ATOM     23  C   UNL d   1     -39.494  14.278  19.466  0.00  0.00     0.000 A 
ATOM     24  C   UNL d   1     -40.952  14.358  19.131  0.00  0.00     0.000 A 
ATOM     25  C   UNL d   1     -39.296  14.343  18.621  0.00  0.00     0.000 A 
ATOM     26  C   UNL d   1     -38.856  14.206  20.047  0.00  0.00     0.003 A 
ATOM     27  C   UNL d   1     -39.929  14.415  18.036  0.00  0.00     0.000 A 
ATOM     28  C   UNL d   1     -40.754  14.423  18.287  0.00  0.00     0.000 A 
ATOM     29  C   UNL d   1     -39.062  14.142  20.885  0.00  0.00     0.042 A 
ATOM     30  C   UNL d   1     -39.888  14.149  21.141  0.00  0.00     0.197 A 
ATOM     31  O   UNL d   1     -40.084  14.085  21.972  0.00  0.00    -0.286 OA
ENDBRANCH  20  21
ENDBRANCH  19  20
ENDBRANCH   2  19
TORSDOF 5
ENDMDL
MODEL 3
REMARK VINA RESULT:      -7.2      1.270      2.137
REMARK  5 active torsions:
REMARK  status: ('A' for Active; 'I' for Inactive)
REMARK    1  A    between atoms: C_6  and  C_1 
REMARK    2  A    between atoms: C_9  and  C_5 
REMARK       I    between atoms: N_13  and  C_6 
REMARK    3  A    between atoms: C_7  and  C_15 
REMARK    4  A    between atoms: N_10  and  N_13 
REMARK    5  A    between atoms: C_15  and  N_10 
ROOT
ATOM      1  C   UNL d   1     -44.676  12.770  22.180  0.00  0.00     0.316 C 
ATOM      2  N   UNL d   1     -45.471  13.318  22.100  0.00  0.00    -0.104 NA
ATOM      3  O   UNL d   1     -44.752  12.083  22.624  0.00  0.00    -0.262 OA
ENDROOT
BRANCH   1   4
ATOM      4  C   UNL d   1     -43.953  12.949  21.840  0.00  0.00     0.164 A 
ATOM      5  C   UNL d   1     -43.789  13.723  21.619  0.00  0.00     0.047 A 
ATOM      6  C   UNL d   1     -42.514  13.326  21.159  0.00  0.00     0.105 A 
ATOM      7  N   UNL d   1     -42.678  12.552  21.380  0.00  0.00    -0.148 NA
ATOM      8  N   UNL d   1     -43.400  12.363  21.722  0.00  0.00    -0.143 NA
BRANCH   6   9
ATOM      9  C   UNL d   1     -41.878  13.710  20.816  0.00  0.00     0.019 A 
ATOM     10  C   UNL d   1     -41.337  14.097  21.291  0.00  0.00     0.002 A 
ATOM     11  C   UNL d   1     -40.697  14.484  20.950  0.00  0.00     0.000 A 
ATOM     12  C   UNL d   1     -40.154  14.871  21.421  0.00  0.00     0.000 A 
ATOM     13  C   UNL d   1     -40.606  14.478  20.130  0.00  0.00     0.000 A 
ATOM     14  C   UNL d   1     -39.521  15.254  21.083  0.00  0.00     0.000 A 
ATOM     15  C   UNL d   1     -39.422  15.254  20.266  0.00  0.00     0.000 A 
ATOM     16  C   UNL d   1     -39.963  14.867  19.791  0.00  0.00     0.000 A 
ATOM     17  C   UNL d   1     -41.148  14.091  19.670  0.00  0.00     0.000 A 
ATOM     18  C   UNL d   1     -41.784  13.707  20.013  0.00  0.00     0.002 A 
ENDBRANCH   6   9
ENDBRANCH   1   4
BRANCH   2  19
ATOM     19  N   UNL d   1     -46.400  13.210  22.463  0.00  0.00    -0.143 NA
BRANCH  19  20
ATOM     20  C   UNL d   1     -47.081  13.424  21.986  0.00  0.00     0.126 C 
BRANCH  20  21
ATOM     21  C   UNL d   1     -47.822  13.651  22.369  0.00  0.00     0.060 A 
ATOM     22  C   UNL d   1     -48.454  13.077  22.468  0.00  0.00     0.005 A 
ATOM     23  C   UNL d   1     -49.195  13.305  22.850  0.00  0.00     0.000 A 
ATOM     24  C   UNL d   1     -48.349  12.264  22.183  0.00  0.00     0.000 A 
ATOM     25  C   UNL d   1     -49.834  12.723  22.950  0.00  0.00     0.000 A 
ATOM     26  C   UNL d   1     -49.309  14.114  23.138  0.00  0.00     0.003 A 
ATOM     27  C   UNL d   1     -49.726  11.913  22.665  0.00  0.00     0.000 A 
ATOM     28  C   UNL d   1     -48.988  11.682  22.283  0.00  0.00     0.000 A 
ATOM     29  C   UNL d   1     -48.668  14.686  23.035  0.00  0.00     0.042 A 
ATOM     30  C   UNL d   1     -47.926  14.458  22.652  0.00  0.00     0.197 A 
ATOM     31  O   UNL d   1     -47.298  15.030  22.553  0.00  0.00    -0.286 OA
ENDBRANCH  20  21
ENDBRANCH  19  20
ENDBRANCH   2  19
TORSDOF 5
ENDMDL
