MODEL 1
REMARK VINA RESULT:      -8.1      0.000      0.000
REMARK  2 active torsions:
REMARK  status: ('A' for Active; 'I' for Inactive)
REMARK    1  A    between atoms: C_2  and  C_1 
REMARK    2  A    between atoms: C_6  and  C_2 
ROOT
ATOM      1  C   UNL d   1     -47.909  12.224  22.907  0.00  0.00     0.059 A 
ATOM      2  C   UNL d   1     -47.352  11.938  23.431  0.00  0.00     0.106 A 
ATOM      3  C   UNL d   1     -47.868  12.991  22.630  0.00  0.00     0.011 A 
ATOM      4  C   UNL d   1     -46.746  12.416  23.685  0.00  0.00     0.021 A 
ATOM      5  C   UNL d   1     -47.241  13.494  22.890  0.00  0.00     0.035 A 
ATOM      6  N   UNL d   1     -47.412  11.160  23.698  0.00  0.00    -0.148 N 
ATOM      7  C   UNL d   1     -46.698  13.192  23.410  0.00  0.00     0.008 A 
ATOM      8 BR   UNL d   1     -47.194  14.261  22.618  0.00  0.00    -0.049 Br
ENDROOT
BRANCH   1   9
ATOM      9  C   UNL d   1     -48.527  11.731  22.649  0.00  0.00     0.197 C 
ATOM     10  O   UNL d   1     -48.411  11.016  22.252  0.00  0.00    -0.286 OA
BRANCH   9  11
ATOM     11  C   UNL d   1     -49.294  11.974  22.799  0.00  0.00     0.039 A 
ATOM     12  C   UNL d   1     -49.621  11.877  23.541  0.00  0.00     0.003 A 
ATOM     13  C   UNL d   1     -50.400  12.123  23.698  0.00  0.00     0.000 A 
ATOM     14  C   UNL d   1     -50.850  12.473  23.082  0.00  0.00     0.000 A 
ATOM     15  C   UNL d   1     -50.519  12.571  22.328  0.00  0.00     0.000 A 
ATOM     16  C   UNL d   1     -49.732  12.315  22.200  0.00  0.00     0.003 A 
ENDBRANCH   9  11
ENDBRANCH   1   9
TORSDOF 2
ENDMDL
MODEL 2
REMARK VINA RESULT:      -7.8      1.693      2.103
REMARK  2 active torsions:
REMARK  status: ('A' for Active; 'I' for Inactive)
REMARK    1  A    between atoms: C_2  and  C_1 
REMARK    2  A    between atoms: C_6  and  C_2 
ROOT
ATOM      1  C   UNL d   1     -47.808  13.531  23.039  0.00  0.00     0.059 A 
ATOM      2  C   UNL d   1     -47.164  13.991  22.838  0.00  0.00     0.106 A 
ATOM      3  C   UNL d   1     -47.709  12.772  23.324  0.00  0.00     0.011 A 
ATOM      4  C   UNL d   1     -46.411  13.699  22.921  0.00  0.00     0.021 A 
ATOM      5  C   UNL d   1     -46.928  12.461  23.413  0.00  0.00     0.035 A 
ATOM      6  N   UNL d   1     -47.289  14.754  22.552  0.00  0.00    -0.148 N 
ATOM      7  C   UNL d   1     -46.301  12.933  23.209  0.00  0.00     0.008 A 
ATOM      8 BR   UNL d   1     -46.820  11.705  23.698  0.00  0.00    -0.049 Br
ENDROOT
BRANCH   1   9
ATOM      9  C   UNL d   1     -48.578  13.834  22.953  0.00  0.00     0.197 C 
ATOM     10  O   UNL d   1     -48.838  14.537  23.300  0.00  0.00    -0.286 OA
BRANCH   9  11
ATOM     11  C   UNL d   1     -49.106  13.407  22.496  0.00  0.00     0.039 A 
ATOM     12  C   UNL d   1     -49.058  13.426  21.681  0.00  0.00     0.003 A 
ATOM     13  C   UNL d   1     -49.593  12.993  21.214  0.00  0.00     0.000 A 
ATOM     14  C   UNL d   1     -50.186  12.533  21.590  0.00  0.00     0.000 A 
ATOM     15  C   UNL d   1     -50.235  12.513  22.418  0.00  0.00     0.000 A 
ATOM     16  C   UNL d   1     -49.683  12.959  22.862  0.00  0.00     0.003 A 
ENDBRANCH   9  11
ENDBRANCH   1   9
TORSDOF 2
ENDMDL
MODEL 3
REMARK VINA RESULT:      -7.7      1.680      3.253
REMARK  2 active torsions:
REMARK  status: ('A' for Active; 'I' for Inactive)
REMARK    1  A    between atoms: C_2  and  C_1 
REMARK    2  A    between atoms: C_6  and  C_2 
ROOT
ATOM      1  C   UNL d   1     -49.114  12.720  22.070  0.00  0.00     0.059 A 
ATOM      2  C   UNL d   1     -49.759  13.128  21.779  0.00  0.00     0.106 A 
ATOM      3  C   UNL d   1     -49.192  12.209  22.701  0.00  0.00     0.011 A 
ATOM      4  C   UNL d   1     -50.491  13.030  22.115  0.00  0.00     0.021 A 
ATOM      5  C   UNL d   1     -49.951  12.100  23.057  0.00  0.00     0.035 A 
ATOM      6  N   UNL d   1     -49.656  13.640  21.140  0.00  0.00    -0.148 N 
ATOM      7  C   UNL d   1     -50.579  12.514  22.754  0.00  0.00     0.008 A 
ATOM      8 BR   UNL d   1     -50.038  11.591  23.687  0.00  0.00    -0.049 Br
ENDROOT
BRANCH   1   9
ATOM      9  C   UNL d   1     -48.365  12.824  21.722  0.00  0.00     0.197 C 
ATOM     10  O   UNL d   1     -48.194  12.643  20.935  0.00  0.00    -0.286 OA
BRANCH   9  11
ATOM     11  C   UNL d   1     -47.767  13.125  22.192  0.00  0.00     0.039 A 
ATOM     12  C   UNL d   1     -47.725  13.924  22.350  0.00  0.00     0.003 A 
ATOM     13  C   UNL d   1     -47.118  14.232  22.827  0.00  0.00     0.000 A 
ATOM     14  C   UNL d   1     -46.544  13.711  23.148  0.00  0.00     0.000 A 
ATOM     15  C   UNL d   1     -46.586  12.897  22.988  0.00  0.00     0.000 A 
ATOM     16  C   UNL d   1     -47.208  12.616  22.504  0.00  0.00     0.003 A 
ENDBRANCH   9  11
ENDBRANCH   1   9
TORSDOF 2
ENDMDL
MODEL 4
REMARK VINA RESULT:      -7.3      1.762      2.001
REMARK  2 active torsions:
REMARK  status: ('A' for Active; 'I' for Inactive)
REMARK    1  A    between atoms: C_2  and  C_1 
REMARK    2  A    between atoms: C_6  and  C_2 
ROOT
ATOM      1  C   UNL d   1     -48.256  13.041  22.579  0.00  0.00     0.059 A 
ATOM      2  C   UNL d   1     -48.336  12.276  22.853  0.00  0.00     0.106 A 
ATOM      3  C   UNL d   1     -47.553  13.446  22.666  0.00  0.00     0.011 A 
ATOM      4  C   UNL d   1     -47.713  11.905  23.219  0.00  0.00     0.021 A 
ATOM      5  C   UNL d   1     -46.900  13.067  23.045  0.00  0.00     0.035 A 
ATOM      6  N   UNL d   1     -49.057  11.886  22.754  0.00  0.00    -0.148 N 
ATOM      7  C   UNL d   1     -46.999  12.307  23.311  0.00  0.00     0.008 A 
ATOM      8 BR   UNL d   1     -46.194  13.464  23.137  0.00  0.00    -0.049 Br
ENDROOT
BRANCH   1   9
ATOM      9  C   UNL d   1     -48.897  13.417  22.205  0.00  0.00     0.197 C 
ATOM     10  O   UNL d   1     -49.245  13.147  21.506  0.00  0.00    -0.286 OA
BRANCH   9  11
ATOM     11  C   UNL d   1     -49.197  14.094  22.554  0.00  0.00     0.039 A 
ATOM     12  C   UNL d   1     -49.717  14.041  23.181  0.00  0.00     0.003 A 
ATOM     13  C   UNL d   1     -50.023  14.727  23.538  0.00  0.00     0.000 A 
ATOM     14  C   UNL d   1     -49.792  15.479  23.246  0.00  0.00     0.000 A 
ATOM     15  C   UNL d   1     -49.263  15.533  22.608  0.00  0.00     0.000 A 
ATOM     16  C   UNL d   1     -48.971  14.826  22.269  0.00  0.00     0.003 A 
ENDBRANCH   9  11
ENDBRANCH   1   9
TORSDOF 2
ENDMDL
