MODEL 1
REMARK VINA RESULT:      19.3      0.000      0.000
REMARK  2 active torsions:
REMARK  status: ('A' for Active; 'I' for Inactive)
REMARK    1  A    between atoms: C_6  and  N_1 
REMARK    2  A    between atoms: C_7  and  C_6 
ROOT
ATOM      1  N   UNL d   1      58.992  49.659  50.475  0.00  0.00    -0.287 N 
ATOM      2  N   UNL d   1      59.147  49.653  51.811  0.00  0.00    -0.224 NA
ATOM      3  C   UNL d   1      58.608  49.707  51.209  0.00  0.00     0.183 A 
ATOM      4  C   UNL d   1      59.806  49.570  50.625  0.00  0.00     0.083 A 
ATOM      5  C   UNL d   1      59.904  49.566  51.474  0.00  0.00     0.099 A 
ATOM      6  C   UNL d   1      60.467  49.493  50.162  0.00  0.00     0.019 A 
ATOM      7  C   UNL d   1      60.653  49.485  51.773  0.00  0.00     0.021 A 
ATOM      8  C   UNL d   1      61.190  49.415  50.464  0.00  0.00     0.002 A 
ATOM      9  C   UNL d   1      61.288  49.411  51.313  0.00  0.00     0.002 A 
ENDROOT
BRANCH   1  10
ATOM     10  C   UNL d   1      58.531  49.704  49.801  0.00  0.00     0.082 C 
BRANCH  10  11
ATOM     11  C   UNL d   1      57.733  49.628  49.805  0.00  0.00     0.018 A 
ATOM     12  C   UNL d   1      57.284  49.680  50.478  0.00  0.00     0.002 A 
ATOM     13  C   UNL d   1      56.477  49.604  50.486  0.00  0.00     0.000 A 
ATOM     14  C   UNL d   1      56.037  49.661  51.186  0.00  0.00     0.000 C 
ATOM     15  C   UNL d   1      56.091  49.466  49.770  0.00  0.00     0.000 A 
ATOM     16  C   UNL d   1      56.526  49.409  49.071  0.00  0.00     0.000 A 
ATOM     17  C   UNL d   1      57.347  49.490  49.089  0.00  0.00     0.002 A 
ENDBRANCH  10  11
ENDBRANCH   1  10
TORSDOF 2
ENDMDL
MODEL 2
REMARK VINA RESULT:      19.7      0.519      3.580
REMARK  2 active torsions:
REMARK  status: ('A' for Active; 'I' for Inactive)
REMARK    1  A    between atoms: C_6  and  N_1 
REMARK    2  A    between atoms: C_7  and  C_6 
ROOT
ATOM      1  N   UNL d   1      58.448  49.647  50.326  0.00  0.00    -0.287 N 
ATOM      2  N   UNL d   1      57.602  49.537  51.366  0.00  0.00    -0.224 NA
ATOM      3  C   UNL d   1      58.381  49.584  51.151  0.00  0.00     0.183 A 
ATOM      4  C   UNL d   1      57.677  49.641  50.013  0.00  0.00     0.083 A 
ATOM      5  C   UNL d   1      57.139  49.571  50.674  0.00  0.00     0.099 A 
ATOM      6  C   UNL d   1      57.363  49.684  49.267  0.00  0.00     0.019 A 
ATOM      7  C   UNL d   1      56.344  49.551  50.521  0.00  0.00     0.021 A 
ATOM      8  C   UNL d   1      56.588  49.663  49.130  0.00  0.00     0.002 A 
ATOM      9  C   UNL d   1      56.050  49.594  49.791  0.00  0.00     0.002 A 
ENDROOT
BRANCH   1  10
ATOM     10  C   UNL d   1      59.199  49.700  50.009  0.00  0.00     0.082 C 
BRANCH  10  11
ATOM     11  C   UNL d   1      59.870  49.637  50.445  0.00  0.00     0.018 A 
ATOM     12  C   UNL d   1      59.883  49.701  51.252  0.00  0.00     0.002 A 
ATOM     13  C   UNL d   1      60.558  49.638  51.697  0.00  0.00     0.000 A 
ATOM     14  C   UNL d   1      60.548  49.706  52.523  0.00  0.00     0.000 C 
ATOM     15  C   UNL d   1      61.271  49.501  51.305  0.00  0.00     0.000 A 
ATOM     16  C   UNL d   1      61.284  49.433  50.482  0.00  0.00     0.000 A 
ATOM     17  C   UNL d   1      60.583  49.501  50.053  0.00  0.00     0.002 A 
ENDBRANCH  10  11
ENDBRANCH   1  10
TORSDOF 2
ENDMDL
