MODEL 1
REMARK VINA RESULT:      -2.0      0.000      0.000
REMARK  6 active torsions:
REMARK  status: ('A' for Active; 'I' for Inactive)
REMARK    1  A    between atoms: C_12  and  N_3 
REMARK    2  A    between atoms: C_8  and  C_4 
REMARK    3  A    between atoms: O_23  and  C_11 
REMARK    4  A    between atoms: C_19  and  C_12 
REMARK    5  A    between atoms: N_13  and  C_19 
REMARK    6  A    between atoms: O_26  and  C_17 
ROOT
ATOM      1  C   UNL d   1     -40.127  14.612  19.345  0.00  0.00     0.083 A 
ATOM      2  C   UNL d   1     -40.609  14.176  18.837  0.00  0.00     0.161 A 
ATOM      3  N   UNL d   1     -41.051  14.014  20.083  0.00  0.00    -0.270 N 
ATOM      4  C   UNL d   1     -40.402  14.508  20.106  0.00  0.00     0.074 A 
ATOM      5  C   UNL d   1     -41.185  13.803  19.297  0.00  0.00     0.288 A 
ATOM      6  C   UNL d   1     -39.497  15.048  19.045  0.00  0.00     0.201 A 
ATOM      7  O   UNL d   1     -40.461  14.177  18.028  0.00  0.00    -0.302 OA
ATOM      8  C   UNL d   1     -39.349  15.048  18.235  0.00  0.00     0.064 A 
ATOM      9  C   UNL d   1     -39.831  14.613  17.726  0.00  0.00     0.103 A 
ATOM     10  O   UNL d   1     -41.784  13.311  19.015  0.00  0.00    -0.264 OA
ATOM     11  O   UNL d   1     -39.015  15.483  19.554  0.00  0.00    -0.286 OA
ATOM     12  C   UNL d   1     -38.723  15.482  17.940  0.00  0.00     0.035 A 
ATOM     13  C   UNL d   1     -39.682  14.613  16.917  0.00  0.00     0.027 A 
ATOM     14  C   UNL d   1     -38.570  15.485  17.124  0.00  0.00     0.140 A 
ATOM     15  C   UNL d   1     -39.057  15.047  16.622  0.00  0.00     0.032 A 
ATOM     16  F   UNL d   1     -37.940  15.921  16.823  0.00  0.00    -0.204 F 
ENDROOT
BRANCH   4  17
ATOM     17  C   UNL d   1     -40.083  14.845  20.793  0.00  0.00     0.041 A 
ATOM     18  C   UNL d   1     -39.495  14.452  21.216  0.00  0.00     0.118 A 
ATOM     19  C   UNL d   1     -39.182  14.791  21.896  0.00  0.00     0.116 A 
ATOM     20  C   UNL d   1     -39.456  15.526  22.158  0.00  0.00     0.026 A 
ATOM     21  C   UNL d   1     -40.046  15.921  21.734  0.00  0.00     0.002 A 
ATOM     22  C   UNL d   1     -40.360  15.579  21.050  0.00  0.00     0.004 A 
BRANCH  18  23
ATOM     23  O   UNL d   1     -39.224  13.721  20.953  0.00  0.00    -0.326 OA
ATOM     24  C   UNL d   1     -38.781  13.274  21.493  0.00  0.00     0.181 C 
ENDBRANCH  18  23
BRANCH  19  25
ATOM     25  O   UNL d   1     -38.592  14.396  22.320  0.00  0.00    -0.326 OA
ATOM     26  C   UNL d   1     -38.277  14.733  23.001  0.00  0.00     0.181 C 
ENDBRANCH  19  25
ENDBRANCH   4  17
BRANCH   3  27
ATOM     27  C   UNL d   1     -41.501  13.761  20.727  0.00  0.00     0.102 C 
BRANCH  27  28
ATOM     28  C   UNL d   1     -42.324  13.700  20.665  0.00  0.00     0.100 C 
BRANCH  28  29
ATOM     29  N   UNL d   1     -42.743  13.208  21.178  0.00  0.00    -0.298 N 
ATOM     30  C   UNL d   1     -42.350  12.607  21.582  0.00  0.00     0.107 A 
ATOM     31  C   UNL d   1     -42.763  12.118  22.090  0.00  0.00     0.142 A 
ATOM     32  O   UNL d   1     -43.578  12.229  22.197  0.00  0.00    -0.300 OA
ATOM     33  C   UNL d   1     -43.972  12.829  21.794  0.00  0.00     0.142 A 
ATOM     34  C   UNL d   1     -43.556  13.323  21.280  0.00  0.00     0.107 A 
ENDBRANCH  28  29
ENDBRANCH  27  28
ENDBRANCH   3  27
TORSDOF 6
ENDMDL
MODEL 2
REMARK VINA RESULT:      -0.4      5.620      8.472
REMARK  6 active torsions:
REMARK  status: ('A' for Active; 'I' for Inactive)
REMARK    1  A    between atoms: C_12  and  N_3 
REMARK    2  A    between atoms: C_8  and  C_4 
REMARK    3  A    between atoms: O_23  and  C_11 
REMARK    4  A    between atoms: C_19  and  C_12 
REMARK    5  A    between atoms: N_13  and  C_19 
REMARK    6  A    between atoms: O_26  and  C_17 
ROOT
ATOM      1  C   UNL d   1     -47.893  12.519  23.147  0.00  0.00     0.083 A 
ATOM      2  C   UNL d   1     -48.192  11.775  23.343  0.00  0.00     0.161 A 
ATOM      3  N   UNL d   1     -46.861  11.721  23.374  0.00  0.00    -0.270 N 
ATOM      4  C   UNL d   1     -47.079  12.479  23.168  0.00  0.00     0.074 A 
ATOM      5  C   UNL d   1     -47.548  11.277  23.485  0.00  0.00     0.288 A 
ATOM      6  C   UNL d   1     -48.408  13.138  22.975  0.00  0.00     0.201 A 
ATOM      7  O   UNL d   1     -49.005  11.651  23.367  0.00  0.00    -0.302 OA
ATOM      8  C   UNL d   1     -49.222  13.013  22.999  0.00  0.00     0.064 A 
ATOM      9  C   UNL d   1     -49.520  12.269  23.195  0.00  0.00     0.103 A 
ATOM     10  O   UNL d   1     -47.591  10.481  23.698  0.00  0.00    -0.264 OA
ATOM     11  O   UNL d   1     -48.109  13.882  22.779  0.00  0.00    -0.286 OA
ATOM     12  C   UNL d   1     -49.729  13.629  22.827  0.00  0.00     0.035 A 
ATOM     13  C   UNL d   1     -50.333  12.145  23.218  0.00  0.00     0.027 A 
ATOM     14  C   UNL d   1     -50.550  13.507  22.850  0.00  0.00     0.140 A 
ATOM     15  C   UNL d   1     -50.840  12.760  23.047  0.00  0.00     0.032 A 
ATOM     16  F   UNL d   1     -51.064  14.126  22.677  0.00  0.00    -0.204 F 
ENDROOT
BRANCH   4  17
ATOM     17  C   UNL d   1     -46.553  13.100  23.008  0.00  0.00     0.041 A 
ATOM     18  C   UNL d   1     -46.108  13.101  22.315  0.00  0.00     0.118 A 
ATOM     19  C   UNL d   1     -45.589  13.719  22.161  0.00  0.00     0.116 A 
ATOM     20  C   UNL d   1     -45.512  14.341  22.701  0.00  0.00     0.026 A 
ATOM     21  C   UNL d   1     -45.958  14.340  23.397  0.00  0.00     0.002 A 
ATOM     22  C   UNL d   1     -46.481  13.718  23.550  0.00  0.00     0.004 A 
BRANCH  18  23
ATOM     23  O   UNL d   1     -46.187  12.481  21.779  0.00  0.00    -0.326 OA
ATOM     24  C   UNL d   1     -46.116  12.674  20.975  0.00  0.00     0.181 C 
ENDBRANCH  18  23
BRANCH  19  25
ATOM     25  O   UNL d   1     -45.142  13.719  21.465  0.00  0.00    -0.326 OA
ATOM     26  C   UNL d   1     -44.325  13.633  21.500  0.00  0.00     0.181 C 
ENDBRANCH  19  25
ENDBRANCH   4  17
BRANCH   3  27
ATOM     27  C   UNL d   1     -46.092  11.434  23.460  0.00  0.00     0.102 C 
BRANCH  27  28
ATOM     28  C   UNL d   1     -45.958  10.643  23.657  0.00  0.00     0.100 C 
BRANCH  28  29
ATOM     29  N   UNL d   1     -45.203  10.318  23.580  0.00  0.00    -0.298 N 
ATOM     30  C   UNL d   1     -45.119   9.521  23.388  0.00  0.00     0.107 A 
ATOM     31  C   UNL d   1     -44.373   9.195  23.311  0.00  0.00     0.142 A 
ATOM     32  O   UNL d   1     -43.702   9.670  23.428  0.00  0.00    -0.300 OA
ATOM     33  C   UNL d   1     -43.786  10.466  23.621  0.00  0.00     0.142 A 
ATOM     34  C   UNL d   1     -44.539  10.795  23.698  0.00  0.00     0.107 A 
ENDBRANCH  28  29
ENDBRANCH  27  28
ENDBRANCH   3  27
TORSDOF 6
ENDMDL
MODEL 3
REMARK VINA RESULT:       0.8      1.457      3.147
REMARK  6 active torsions:
REMARK  status: ('A' for Active; 'I' for Inactive)
REMARK    1  A    between atoms: C_12  and  N_3 
REMARK    2  A    between atoms: C_8  and  C_4 
REMARK    3  A    between atoms: O_23  and  C_11 
REMARK    4  A    between atoms: C_19  and  C_12 
REMARK    5  A    between atoms: N_13  and  C_19 
REMARK    6  A    between atoms: O_26  and  C_17 
ROOT
ATOM      1  C   UNL d   1     -39.881  15.009  19.149  0.00  0.00     0.083 A 
ATOM      2  C   UNL d   1     -39.102  14.814  18.961  0.00  0.00     0.161 A 
ATOM      3  N   UNL d   1     -39.284  14.626  20.268  0.00  0.00    -0.270 N 
ATOM      4  C   UNL d   1     -39.986  14.893  19.949  0.00  0.00     0.074 A 
ATOM      5  C   UNL d   1     -38.729  14.574  19.659  0.00  0.00     0.288 A 
ATOM      6  C   UNL d   1     -40.394  15.270  18.561  0.00  0.00     0.201 A 
ATOM      7  O   UNL d   1     -38.836  14.879  18.185  0.00  0.00    -0.302 OA
ATOM      8  C   UNL d   1     -40.128  15.335  17.784  0.00  0.00     0.064 A 
ATOM      9  C   UNL d   1     -39.349  15.139  17.596  0.00  0.00     0.103 A 
ATOM     10  O   UNL d   1     -37.944  14.329  19.728  0.00  0.00    -0.264 OA
ATOM     11  O   UNL d   1     -41.173  15.466  18.749  0.00  0.00    -0.286 OA
ATOM     12  C   UNL d   1     -40.640  15.594  17.204  0.00  0.00     0.035 A 
ATOM     13  C   UNL d   1     -39.083  15.204  16.820  0.00  0.00     0.027 A 
ATOM     14  C   UNL d   1     -40.375  15.661  16.419  0.00  0.00     0.140 A 
ATOM     15  C   UNL d   1     -39.594  15.463  16.240  0.00  0.00     0.032 A 
ATOM     16  F   UNL d   1     -40.889  15.922  15.831  0.00  0.00    -0.204 F 
ENDROOT
BRANCH   4  17
ATOM     17  C   UNL d   1     -40.685  15.021  20.376  0.00  0.00     0.041 A 
ATOM     18  C   UNL d   1     -41.182  14.390  20.561  0.00  0.00     0.118 A 
ATOM     19  C   UNL d   1     -41.874  14.523  20.985  0.00  0.00     0.116 A 
ATOM     20  C   UNL d   1     -42.073  15.289  21.225  0.00  0.00     0.026 A 
ATOM     21  C   UNL d   1     -41.575  15.922  21.039  0.00  0.00     0.002 A 
ATOM     22  C   UNL d   1     -40.880  15.787  20.613  0.00  0.00     0.004 A 
BRANCH  18  23
ATOM     23  O   UNL d   1     -40.981  13.629  20.321  0.00  0.00    -0.326 OA
ATOM     24  C   UNL d   1     -41.544  13.035  20.460  0.00  0.00     0.181 C 
ENDBRANCH  18  23
BRANCH  19  25
ATOM     25  O   UNL d   1     -42.372  13.890  21.170  0.00  0.00    -0.326 OA
ATOM     26  C   UNL d   1     -43.130  14.031  21.455  0.00  0.00     0.181 C 
ENDBRANCH  19  25
ENDBRANCH   4  17
BRANCH   3  27
ATOM     27  C   UNL d   1     -39.141  14.437  21.058  0.00  0.00     0.102 C 
BRANCH  27  28
ATOM     28  C   UNL d   1     -38.368  14.421  21.353  0.00  0.00     0.100 C 
BRANCH  28  29
ATOM     29  N   UNL d   1     -38.225  14.185  22.130  0.00  0.00    -0.298 N 
ATOM     30  C   UNL d   1     -38.160  13.383  22.309  0.00  0.00     0.107 A 
ATOM     31  C   UNL d   1     -38.018  13.146  23.078  0.00  0.00     0.142 A 
ATOM     32  O   UNL d   1     -37.939  13.715  23.677  0.00  0.00    -0.300 OA
ATOM     33  C   UNL d   1     -38.004  14.516  23.499  0.00  0.00     0.142 A 
ATOM     34  C   UNL d   1     -38.147  14.756  22.723  0.00  0.00     0.107 A 
ENDBRANCH  28  29
ENDBRANCH  27  28
ENDBRANCH   3  27
TORSDOF 6
ENDMDL
