MODEL 1
REMARK VINA RESULT:     105.7      0.000      0.000
REMARK  3 active torsions:
REMARK  status: ('A' for Active; 'I' for Inactive)
REMARK    1  A    between atoms: C_11  and  N_1 
REMARK    2  A    between atoms: C_3  and  C_2 
REMARK    3  A    between atoms: C_13  and  C_16 
ROOT
ATOM      1  N   UNL d   1      59.633  48.469  50.564  0.00  0.00    -0.260 N 
ATOM      2  C   UNL d   1      60.619  47.582  50.641  0.00  0.00     0.093 A 
ATOM      3  C   UNL d   1      60.304  48.887  50.489  0.00  0.00     0.153 A 
ATOM      4  C   UNL d   1      59.801  47.658  50.660  0.00  0.00     0.272 A 
ATOM      5  S   UNL d   1      60.925  48.346  50.535  0.00  0.00    -0.053 SA
ATOM      6  S   UNL d   1      60.356  49.708  50.384  0.00  0.00    -0.052 SA
ATOM      7  O   UNL d   1      59.259  47.043  50.756  0.00  0.00    -0.266 OA
ENDROOT
BRANCH   2   8
ATOM      8  C   UNL d   1      61.062  46.904  50.711  0.00  0.00     0.068 A 
ATOM      9  C   UNL d   1      61.233  46.537  51.420  0.00  0.00     0.258 A 
ATOM     10  N   UNL d   1      61.682  45.882  51.282  0.00  0.00    -0.321 N 
ATOM     11  O   UNL d   1      60.981  46.800  52.163  0.00  0.00    -0.267 OA
ATOM     12  H   UNL d   1      61.967  45.363  51.860  0.00  0.00     0.169 HD
ATOM     13  C   UNL d   1      61.803  45.826  50.467  0.00  0.00     0.059 A 
ATOM     14  C   UNL d   1      61.425  46.451  50.108  0.00  0.00     0.021 A 
ATOM     15  C   UNL d   1      62.224  45.264  50.009  0.00  0.00     0.017 A 
ATOM     16  C   UNL d   1      61.449  46.541  49.295  0.00  0.00     0.002 A 
ATOM     17  C   UNL d   1      61.859  45.996  48.833  0.00  0.00     0.000 A 
ATOM     18  C   UNL d   1      62.247  45.358  49.189  0.00  0.00     0.002 A 
ENDBRANCH   2   8
BRANCH   1  19
ATOM     19  C   UNL d   1      58.872  48.748  50.556  0.00  0.00     0.068 A 
ATOM     20  C   UNL d   1      58.656  49.409  50.980  0.00  0.00     0.018 A 
ATOM     21  C   UNL d   1      57.862  49.680  50.957  0.00  0.00     0.008 A 
ATOM     22  C   UNL d   1      57.314  49.275  50.507  0.00  0.00     0.065 A 
ATOM     23  C   UNL d   1      57.535  48.604  50.076  0.00  0.00     0.008 A 
ATOM     24  C   UNL d   1      58.299  48.344  50.099  0.00  0.00     0.018 A 
BRANCH  22  25
ATOM     25  C   UNL d   1      56.511  49.565  50.495  0.00  0.00     0.211 C 
ATOM     26  O   UNL d   1      56.133  49.708  49.770  0.00  0.00    -0.644 OA
ATOM     27  O   UNL d   1      56.108  49.705  51.207  0.00  0.00    -0.644 OA
ENDBRANCH  22  25
ENDBRANCH   1  19
TORSDOF 3
ENDMDL
