MODEL 1
REMARK VINA RESULT:       4.7      0.000      0.000
REMARK  4 active torsions:
REMARK  status: ('A' for Active; 'I' for Inactive)
REMARK    1  A    between atoms: C_10  and  N_3 
REMARK    2  A    between atoms: C_11  and  C_6 
REMARK    3  A    between atoms: C_16  and  C_10 
REMARK    4  A    between atoms: N_17  and  C_16 
ROOT
ATOM      1  C   UNL d   1     -41.410-122.187 -52.616  0.00  0.00     0.083 A 
ATOM      2  C   UNL d   1     -41.502-122.982 -52.474  0.00  0.00     0.161 A 
ATOM      3  N   UNL d   1     -41.522-122.359 -51.321  0.00  0.00    -0.270 N 
ATOM      4  C   UNL d   1     -41.571-123.089 -51.671  0.00  0.00     0.288 A 
ATOM      5  C   UNL d   1     -41.326-121.905 -53.382  0.00  0.00     0.201 A 
ATOM      6  C   UNL d   1     -41.423-121.803 -51.901  0.00  0.00     0.072 A 
ATOM      7  O   UNL d   1     -41.509-123.511 -53.108  0.00  0.00    -0.302 OA
ATOM      8  C   UNL d   1     -41.335-122.440 -54.006  0.00  0.00     0.062 A 
ATOM      9  C   UNL d   1     -41.427-123.240 -53.862  0.00  0.00     0.103 A 
ATOM     10  O   UNL d   1     -41.674-123.817 -51.285  0.00  0.00    -0.264 OA
ATOM     11  O   UNL d   1     -41.232-121.096 -53.527  0.00  0.00    -0.286 OA
ATOM     12  C   UNL d   1     -41.250-122.163 -54.779  0.00  0.00     0.005 A 
ATOM     13  C   UNL d   1     -41.435-123.768 -54.492  0.00  0.00     0.025 A 
ATOM     14  C   UNL d   1     -41.260-122.696 -55.389  0.00  0.00     0.000 A 
ATOM     15  C   UNL d   1     -41.352-123.496 -55.246  0.00  0.00     0.002 A 
ENDROOT
BRANCH   6  16
ATOM     16  C   UNL d   1     -41.347-120.980 -51.788  0.00  0.00     0.017 A 
ATOM     17  C   UNL d   1     -41.202-120.682 -51.032  0.00  0.00     0.004 A 
ATOM     18  C   UNL d   1     -41.127-119.866 -50.923  0.00  0.00     0.030 A 
ATOM     19  C   UNL d   1     -41.199-119.342 -51.576  0.00  0.00     0.140 A 
ATOM     20  C   UNL d   1     -41.345-119.651 -52.328  0.00  0.00     0.030 A 
ATOM     21  F   UNL d   1     -41.124-118.522 -51.466  0.00  0.00    -0.204 F 
ATOM     22  C   UNL d   1     -41.421-120.472 -52.439  0.00  0.00     0.004 A 
ENDBRANCH   6  16
BRANCH   3  23
ATOM     23  C   UNL d   1     -41.566-122.206 -50.500  0.00  0.00     0.102 C 
BRANCH  23  24
ATOM     24  C   UNL d   1     -41.993-122.729 -50.007  0.00  0.00     0.100 C 
BRANCH  24  25
ATOM     25  N   UNL d   1     -41.949-122.640 -49.178  0.00  0.00    -0.299 N 
ATOM     26  C   UNL d   1     -41.213-122.502 -48.817  0.00  0.00     0.100 C 
ATOM     27  C   UNL d   1     -42.639-122.690 -48.722  0.00  0.00     0.100 C 
ENDBRANCH  24  25
ENDBRANCH  23  24
ENDBRANCH   3  23
TORSDOF 4
ENDMDL
