MODEL 1
REMARK VINA RESULT:      -9.1      0.000      0.000
REMARK  4 active torsions:
REMARK  status: ('A' for Active; 'I' for Inactive)
REMARK    1  A    between atoms: N_3  and  C_1 
REMARK    2  A    between atoms: C_4  and  C_2 
REMARK       I    between atoms: C_6  and  N_3 
REMARK    3  A    between atoms: C_18  and  C_6 
REMARK    4  A    between atoms: C_17  and  C_18 
ROOT
ATOM      1  N   UNL d   1      53.471  33.389  53.450  0.00  0.00    -0.201 NA
ATOM      2  C   UNL d   1      53.810  32.717  53.781  0.00  0.00     0.280 C 
ATOM      3  O   UNL d   1      53.950  32.668  54.597  0.00  0.00    -0.265 OA
ENDROOT
BRANCH   2   4
ATOM      4  C   UNL d   1      54.017  32.075  53.291  0.00  0.00     0.063 C 
BRANCH   4   5
ATOM      5  C   UNL d   1      53.618  31.345  53.356  0.00  0.00     0.007 A 
ATOM      6  C   UNL d   1      53.857  30.781  53.917  0.00  0.00     0.026 A 
ATOM      7  C   UNL d   1      53.453  30.056  53.974  0.00  0.00     0.119 A 
ATOM      8  O   UNL d   1      53.564  29.400  54.472  0.00  0.00    -0.300 OA
ATOM      9  C   UNL d   1      52.820  29.898  53.478  0.00  0.00     0.119 A 
ATOM     10  C   UNL d   1      52.982  28.830  54.269  0.00  0.00     0.304 A 
ATOM     11  O   UNL d   1      52.536  29.149  53.662  0.00  0.00    -0.300 OA
ATOM     12  C   UNL d   1      52.580  30.459  52.918  0.00  0.00     0.026 A 
ATOM     13  C   UNL d   1      52.980  31.175  52.862  0.00  0.00     0.002 A 
ENDBRANCH   4   5
ENDBRANCH   2   4
BRANCH   1  14
ATOM     14  C   UNL d   1      53.266  34.025  53.931  0.00  0.00     0.119 A 
ATOM     15  C   UNL d   1      52.716  34.606  53.758  0.00  0.00     0.084 A 
ATOM     16  C   UNL d   1      52.685  35.128  54.386  0.00  0.00     0.014 A 
ATOM     17  C   UNL d   1      53.222  34.876  54.966  0.00  0.00     0.037 A 
ATOM     18  S   UNL d   1      53.582  34.184  54.675  0.00  0.00    -0.067 SA
BRANCH  15  19
ATOM     19  C   UNL d   1      52.261  34.670  53.071  0.00  0.00     0.299 C 
ATOM     20  O   UNL d   1      52.589  34.912  52.355  0.00  0.00    -0.264 OA
ATOM     21  N   UNL d   1      51.459  34.486  53.107  0.00  0.00    -0.102 N 
ENDBRANCH  15  19
ENDBRANCH   1  14
TORSDOF 4
ENDMDL
MODEL 2
REMARK VINA RESULT:      -8.2      1.801      4.539
REMARK  4 active torsions:
REMARK  status: ('A' for Active; 'I' for Inactive)
REMARK    1  A    between atoms: N_3  and  C_1 
REMARK    2  A    between atoms: C_4  and  C_2 
REMARK       I    between atoms: C_6  and  N_3 
REMARK    3  A    between atoms: C_18  and  C_6 
REMARK    4  A    between atoms: C_17  and  C_18 
ROOT
ATOM      1  N   UNL d   1      53.786  30.966  53.776  0.00  0.00    -0.201 NA
ATOM      2  C   UNL d   1      53.809  31.718  53.444  0.00  0.00     0.280 C 
ATOM      3  O   UNL d   1      53.296  31.928  52.829  0.00  0.00    -0.265 OA
ENDROOT
BRANCH   2   4
ATOM      4  C   UNL d   1      54.357  32.278  53.731  0.00  0.00     0.063 C 
BRANCH   4   5
ATOM      5  C   UNL d   1      54.094  32.968  54.121  0.00  0.00     0.007 A 
ATOM      6  C   UNL d   1      53.701  33.567  53.701  0.00  0.00     0.026 A 
ATOM      7  C   UNL d   1      53.442  34.251  54.099  0.00  0.00     0.119 A 
ATOM      8  O   UNL d   1      53.043  34.928  53.830  0.00  0.00    -0.300 OA
ATOM      9  C   UNL d   1      53.576  34.334  54.903  0.00  0.00     0.119 A 
ATOM     10  C   UNL d   1      52.932  35.433  54.492  0.00  0.00     0.304 A 
ATOM     11  O   UNL d   1      53.263  35.056  55.138  0.00  0.00    -0.300 OA
ATOM     12  C   UNL d   1      53.968  33.737  55.324  0.00  0.00     0.026 A 
ATOM     13  C   UNL d   1      54.222  33.061  54.929  0.00  0.00     0.002 A 
ENDBRANCH   4   5
ENDBRANCH   2   4
BRANCH   1  14
ATOM     14  C   UNL d   1      53.248  30.410  53.497  0.00  0.00     0.119 A 
ATOM     15  C   UNL d   1      53.057  29.698  53.852  0.00  0.00     0.084 A 
ATOM     16  C   UNL d   1      52.499  29.319  53.390  0.00  0.00     0.014 A 
ATOM     17  C   UNL d   1      52.334  29.795  52.731  0.00  0.00     0.037 A 
ATOM     18  S   UNL d   1      52.806  30.478  52.804  0.00  0.00    -0.067 SA
BRANCH  15  19
ATOM     19  C   UNL d   1      53.364  29.398  54.558  0.00  0.00     0.299 C 
ATOM     20  O   UNL d   1      53.142  29.701  55.291  0.00  0.00    -0.264 OA
ATOM     21  N   UNL d   1      53.906  28.779  54.523  0.00  0.00    -0.102 N 
ENDBRANCH  15  19
ENDBRANCH   1  14
TORSDOF 4
ENDMDL
MODEL 3
REMARK VINA RESULT:      -8.0      2.052      4.422
REMARK  4 active torsions:
REMARK  status: ('A' for Active; 'I' for Inactive)
REMARK    1  A    between atoms: N_3  and  C_1 
REMARK    2  A    between atoms: C_4  and  C_2 
REMARK       I    between atoms: C_6  and  N_3 
REMARK    3  A    between atoms: C_18  and  C_6 
REMARK    4  A    between atoms: C_17  and  C_18 
ROOT
ATOM      1  N   UNL d   1      53.020  33.135  53.224  0.00  0.00    -0.201 NA
ATOM      2  C   UNL d   1      52.396  33.239  52.698  0.00  0.00     0.280 C 
ATOM      3  O   UNL d   1      52.005  32.588  52.367  0.00  0.00    -0.265 OA
ENDROOT
BRANCH   2   4
ATOM      4  C   UNL d   1      52.152  34.010  52.496  0.00  0.00     0.063 C 
BRANCH   4   5
ATOM      5  C   UNL d   1      51.341  34.210  52.484  0.00  0.00     0.007 A 
ATOM      6  C   UNL d   1      50.912  34.192  51.773  0.00  0.00     0.026 A 
ATOM      7  C   UNL d   1      50.105  34.393  51.771  0.00  0.00     0.119 A 
ATOM      8  O   UNL d   1      49.546  34.425  51.158  0.00  0.00    -0.300 OA
ATOM      9  C   UNL d   1      49.733  34.608  52.469  0.00  0.00     0.119 A 
ATOM     10  C   UNL d   1      48.816  34.666  51.495  0.00  0.00     0.304 A 
ATOM     11  O   UNL d   1      48.947  34.773  52.296  0.00  0.00    -0.300 OA
ATOM     12  C   UNL d   1      50.159  34.626  53.179  0.00  0.00     0.026 A 
ATOM     13  C   UNL d   1      50.957  34.427  53.180  0.00  0.00     0.002 A 
ENDBRANCH   4   5
ENDBRANCH   2   4
BRANCH   1  14
ATOM     14  C   UNL d   1      53.264  32.375  53.426  0.00  0.00     0.119 A 
ATOM     15  C   UNL d   1      53.822  32.180  53.992  0.00  0.00     0.084 A 
ATOM     16  C   UNL d   1      53.895  31.366  54.013  0.00  0.00     0.014 A 
ATOM     17  C   UNL d   1      53.377  31.039  53.453  0.00  0.00     0.037 A 
ATOM     18  S   UNL d   1      52.985  31.677  53.089  0.00  0.00    -0.067 SA
BRANCH  15  19
ATOM     19  C   UNL d   1      54.248  32.702  54.469  0.00  0.00     0.299 C 
ATOM     20  O   UNL d   1      54.920  33.091  54.194  0.00  0.00    -0.264 OA
ATOM     21  N   UNL d   1      53.992  32.834  55.241  0.00  0.00    -0.102 N 
ENDBRANCH  15  19
ENDBRANCH   1  14
TORSDOF 4
ENDMDL
