MODEL 1
REMARK VINA RESULT:      51.7      0.000      0.000
REMARK  2 active torsions:
REMARK  status: ('A' for Active; 'I' for Inactive)
REMARK    1  A    between atoms: C_4  and  C_1 
REMARK       I    between atoms: N_7  and  C_4 
REMARK    2  A    between atoms: C_17  and  N_8 
ROOT
ATOM      1  C   UNL d   1      13.482  12.328  -2.677  0.00  0.00     0.248 C 
ATOM      2  N   UNL d   1      13.592  13.047  -3.138  0.00  0.00    -0.272 N 
ATOM      3  N   UNL d   1      13.810  14.478  -4.058  0.00  0.00    -0.301 N 
ATOM      4  O   UNL d   1      12.925  11.780  -2.904  0.00  0.00    -0.271 OA
ATOM      5  C   UNL d   1      13.113  13.186  -3.841  0.00  0.00     0.102 A 
ATOM      6  C   UNL d   1      14.182  13.611  -2.883  0.00  0.00     0.102 A 
ATOM      7  C   UNL d   1      13.219  13.892  -4.296  0.00  0.00     0.100 A 
ATOM      8  C   UNL d   1      14.289  14.338  -3.356  0.00  0.00     0.100 A 
ENDROOT
BRANCH   1   9
ATOM      9  C   UNL d   1      13.930  12.193  -2.016  0.00  0.00     0.112 A 
ATOM     10  C   UNL d   1      14.213  11.884  -0.556  0.00  0.00     0.025 A 
ATOM     11  C   UNL d   1      14.373  12.056  -1.347  0.00  0.00     0.074 A 
ATOM     12  C   UNL d   1      14.824  11.781  -0.031  0.00  0.00     0.002 C 
ATOM     13  C   UNL d   1      13.542  11.779  -0.117  0.00  0.00     0.002 C 
ATOM     14  C   UNL d   1      14.980  11.951  -0.811  0.00  0.00     0.012 C 
ATOM     15  C   UNL d   1      15.049  12.162  -1.788  0.00  0.00    -0.023 A 
ATOM     16  C   UNL d   1      13.565  12.033  -1.296  0.00  0.00     0.172 A 
ATOM     17  C   UNL d   1      14.604  12.298  -2.452  0.00  0.00    -0.018 A 
ATOM     18  C   UNL d   1      13.119  12.169  -1.963  0.00  0.00     0.024 A 
ATOM     19  O   UNL d   1      13.028  11.897  -0.705  0.00  0.00    -0.291 OA
ENDBRANCH   1   9
BRANCH   3  20
ATOM     20  C   UNL d   1      13.922  15.200  -4.520  0.00  0.00     0.064 A 
ATOM     21  C   UNL d   1      13.373  15.395  -5.147  0.00  0.00     0.018 A 
ATOM     22  C   UNL d   1      13.483  16.112  -5.606  0.00  0.00     0.002 A 
ATOM     23  C   UNL d   1      14.150  16.639  -5.436  0.00  0.00     0.000 A 
ATOM     24  C   UNL d   1      14.702  16.438  -4.802  0.00  0.00     0.002 A 
ATOM     25  C   UNL d   1      14.588  15.719  -4.345  0.00  0.00     0.018 A 
ENDBRANCH   3  20
TORSDOF 2
ENDMDL
MODEL 2
REMARK VINA RESULT:      52.5      2.147      3.256
REMARK  2 active torsions:
REMARK  status: ('A' for Active; 'I' for Inactive)
REMARK    1  A    between atoms: C_4  and  C_1 
REMARK       I    between atoms: N_7  and  C_4 
REMARK    2  A    between atoms: C_17  and  N_8 
ROOT
ATOM      1  C   UNL d   1      14.507  12.377  -1.771  0.00  0.00     0.248 C 
ATOM      2  N   UNL d   1      14.673  13.199  -1.578  0.00  0.00    -0.272 N 
ATOM      3  N   UNL d   1      15.004  14.838  -1.193  0.00  0.00    -0.301 N 
ATOM      4  O   UNL d   1      14.893  11.780  -1.375  0.00  0.00    -0.271 OA
ATOM      5  C   UNL d   1      15.247  13.392  -0.965  0.00  0.00     0.102 A 
ATOM      6  C   UNL d   1      14.257  13.812  -2.006  0.00  0.00     0.102 A 
ATOM      7  C   UNL d   1      15.412  14.200  -0.774  0.00  0.00     0.100 A 
ATOM      8  C   UNL d   1      14.430  14.645  -1.806  0.00  0.00     0.100 A 
ENDROOT
BRANCH   1   9
ATOM      9  C   UNL d   1      13.968  12.191  -2.346  0.00  0.00     0.112 A 
ATOM     10  C   UNL d   1      13.433  12.009  -3.756  0.00  0.00     0.025 A 
ATOM     11  C   UNL d   1      13.432  12.007  -2.931  0.00  0.00     0.074 A 
ATOM     12  C   UNL d   1      12.769  11.780  -4.163  0.00  0.00     0.002 C 
ATOM     13  C   UNL d   1      13.973  12.196  -4.328  0.00  0.00     0.002 C 
ATOM     14  C   UNL d   1      12.769  11.779  -3.350  0.00  0.00     0.012 C 
ATOM     15  C   UNL d   1      12.889  11.819  -2.355  0.00  0.00    -0.023 A 
ATOM     16  C   UNL d   1      14.172  12.263  -3.140  0.00  0.00     0.172 A 
ATOM     17  C   UNL d   1      13.424  12.003  -1.776  0.00  0.00    -0.018 A 
ATOM     18  C   UNL d   1      14.710  12.448  -2.559  0.00  0.00     0.024 A 
ATOM     19  O   UNL d   1      14.559  12.397  -3.839  0.00  0.00    -0.291 OA
ENDBRANCH   1   9
BRANCH   3  20
ATOM     20  C   UNL d   1      15.169  15.664  -1.001  0.00  0.00     0.064 A 
ATOM     21  C   UNL d   1      14.955  16.281  -1.555  0.00  0.00     0.018 A 
ATOM     22  C   UNL d   1      15.118  17.103  -1.366  0.00  0.00     0.002 A 
ATOM     23  C   UNL d   1      15.498  17.308  -0.615  0.00  0.00     0.000 A 
ATOM     24  C   UNL d   1      15.712  16.683  -0.059  0.00  0.00     0.002 A 
ATOM     25  C   UNL d   1      15.547  15.861  -0.252  0.00  0.00     0.018 A 
ENDBRANCH   3  20
TORSDOF 2
ENDMDL
