MODEL 1
REMARK VINA RESULT:      -9.2      0.000      0.000
REMARK  2 active torsions:
REMARK  status: ('A' for Active; 'I' for Inactive)
REMARK    1  A    between atoms: C_4  and  C_2 
REMARK    2  A    between atoms: C_8  and  C_3 
ROOT
ATOM      1  S   UNL d   1      53.198  33.493  54.209  0.00  0.00    -0.081 SA
ATOM      2  C   UNL d   1      53.661  32.826  54.057  0.00  0.00     0.031 A 
ATOM      3  C   UNL d   1      53.676  34.056  54.606  0.00  0.00     0.094 A 
ATOM      4  C   UNL d   1      54.431  32.969  54.357  0.00  0.00     0.007 A 
ATOM      5  C   UNL d   1      54.431  33.730  54.694  0.00  0.00     0.013 A 
ENDROOT
BRANCH   2   6
ATOM      6  C   UNL d   1      53.417  32.142  53.679  0.00  0.00     0.025 A 
ATOM      7  C   UNL d   1      53.620  31.402  53.984  0.00  0.00     0.005 A 
ATOM      8  C   UNL d   1      53.376  30.719  53.606  0.00  0.00     0.038 A 
ATOM      9  C   UNL d   1      53.578  29.985  53.909  0.00  0.00     0.003 C 
ATOM     10  C   UNL d   1      52.924  30.770  52.915  0.00  0.00     0.184 A 
ATOM     11  N   UNL d   1      52.720  31.515  52.609  0.00  0.00    -0.224 NA
ATOM     12  N   UNL d   1      52.677  30.085  52.533  0.00  0.00    -0.127 N 
ATOM     13  C   UNL d   1      52.972  32.192  52.999  0.00  0.00     0.101 A 
ENDBRANCH   2   6
BRANCH   3  14
ATOM     14  C   UNL d   1      53.426  34.798  54.857  0.00  0.00     0.217 C 
ATOM     15  O   UNL d   1      53.291  35.394  54.292  0.00  0.00    -0.643 OA
ATOM     16  O   UNL d   1      53.309  34.959  55.642  0.00  0.00    -0.643 OA
ENDBRANCH   3  14
TORSDOF 2
ENDMDL
MODEL 2
REMARK VINA RESULT:      -8.7      2.609      3.749
REMARK  2 active torsions:
REMARK  status: ('A' for Active; 'I' for Inactive)
REMARK    1  A    between atoms: C_4  and  C_2 
REMARK    2  A    between atoms: C_8  and  C_3 
ROOT
ATOM      1  S   UNL d   1      53.188  30.934  54.138  0.00  0.00    -0.081 SA
ATOM      2  C   UNL d   1      53.518  31.584  53.748  0.00  0.00     0.031 A 
ATOM      3  C   UNL d   1      53.276  30.263  53.644  0.00  0.00     0.094 A 
ATOM      4  C   UNL d   1      53.813  31.321  53.009  0.00  0.00     0.007 A 
ATOM      5  C   UNL d   1      53.661  30.505  52.953  0.00  0.00     0.013 A 
ENDROOT
BRANCH   2   6
ATOM      6  C   UNL d   1      53.552  32.351  54.029  0.00  0.00     0.025 A 
ATOM      7  C   UNL d   1      54.199  32.603  54.476  0.00  0.00     0.005 A 
ATOM      8  C   UNL d   1      54.234  33.370  54.757  0.00  0.00     0.038 A 
ATOM      9  C   UNL d   1      54.877  33.619  55.201  0.00  0.00     0.003 C 
ATOM     10  C   UNL d   1      53.617  33.897  54.592  0.00  0.00     0.184 A 
ATOM     11  N   UNL d   1      52.967  33.643  54.142  0.00  0.00    -0.224 NA
ATOM     12  N   UNL d   1      53.649  34.669  54.873  0.00  0.00    -0.127 N 
ATOM     13  C   UNL d   1      52.945  32.870  53.867  0.00  0.00     0.101 A 
ENDBRANCH   2   6
BRANCH   3  14
ATOM     14  C   UNL d   1      53.021  29.502  53.826  0.00  0.00     0.217 C 
ATOM     15  O   UNL d   1      52.415  29.157  53.372  0.00  0.00    -0.643 OA
ATOM     16  O   UNL d   1      53.348  29.085  54.438  0.00  0.00    -0.643 OA
ENDBRANCH   3  14
TORSDOF 2
ENDMDL
MODEL 3
REMARK VINA RESULT:      -8.5      2.195      2.724
REMARK  2 active torsions:
REMARK  status: ('A' for Active; 'I' for Inactive)
REMARK    1  A    between atoms: C_4  and  C_2 
REMARK    2  A    between atoms: C_8  and  C_3 
ROOT
ATOM      1  S   UNL d   1      53.645  33.789  54.482  0.00  0.00    -0.081 SA
ATOM      2  C   UNL d   1      53.345  33.528  53.758  0.00  0.00     0.031 A 
ATOM      3  C   UNL d   1      54.388  33.420  54.604  0.00  0.00     0.094 A 
ATOM      4  C   UNL d   1      53.900  32.995  53.424  0.00  0.00     0.007 A 
ATOM      5  C   UNL d   1      54.540  32.935  53.952  0.00  0.00     0.013 A 
ENDROOT
BRANCH   2   6
ATOM      6  C   UNL d   1      52.633  33.747  53.421  0.00  0.00     0.025 A 
ATOM      7  C   UNL d   1      51.966  33.267  53.506  0.00  0.00     0.005 A 
ATOM      8  C   UNL d   1      51.254  33.486  53.169  0.00  0.00     0.038 A 
ATOM      9  C   UNL d   1      50.592  33.009  53.254  0.00  0.00     0.003 C 
ATOM     10  C   UNL d   1      51.202  34.192  52.740  0.00  0.00     0.184 A 
ATOM     11  N   UNL d   1      51.873  34.674  52.654  0.00  0.00    -0.224 NA
ATOM     12  N   UNL d   1      50.487  34.415  52.400  0.00  0.00    -0.127 N 
ATOM     13  C   UNL d   1      52.581  34.441  52.998  0.00  0.00     0.101 A 
ENDBRANCH   2   6
BRANCH   3  14
ATOM     14  C   UNL d   1      54.871  33.531  55.261  0.00  0.00     0.217 C 
ATOM     15  O   UNL d   1      54.708  33.110  55.960  0.00  0.00    -0.643 OA
ATOM     16  O   UNL d   1      55.499  34.042  55.239  0.00  0.00    -0.643 OA
ENDBRANCH   3  14
TORSDOF 2
ENDMDL
MODEL 4
REMARK VINA RESULT:      -8.0      2.561      3.284
REMARK  2 active torsions:
REMARK  status: ('A' for Active; 'I' for Inactive)
REMARK    1  A    between atoms: C_4  and  C_2 
REMARK    2  A    between atoms: C_8  and  C_3 
ROOT
ATOM      1  S   UNL d   1      51.485  34.115  53.480  0.00  0.00    -0.081 SA
ATOM      2  C   UNL d   1      52.297  34.098  53.326  0.00  0.00     0.031 A 
ATOM      3  C   UNL d   1      51.090  34.314  52.768  0.00  0.00     0.094 A 
ATOM      4  C   UNL d   1      52.412  34.286  52.517  0.00  0.00     0.007 A 
ATOM      5  C   UNL d   1      51.663  34.418  52.180  0.00  0.00     0.013 A 
ENDROOT
BRANCH   2   6
ATOM      6  C   UNL d   1      52.889  33.928  53.864  0.00  0.00     0.025 A 
ATOM      7  C   UNL d   1      53.165  33.155  53.950  0.00  0.00     0.005 A 
ATOM      8  C   UNL d   1      53.757  32.985  54.488  0.00  0.00     0.038 A 
ATOM      9  C   UNL d   1      54.031  32.217  54.572  0.00  0.00     0.003 C 
ATOM     10  C   UNL d   1      54.081  33.592  54.949  0.00  0.00     0.184 A 
ATOM     11  N   UNL d   1      53.802  34.369  54.862  0.00  0.00    -0.224 NA
ATOM     12  N   UNL d   1      54.676  33.424  55.490  0.00  0.00    -0.127 N 
ATOM     13  C   UNL d   1      53.208  34.525  54.318  0.00  0.00     0.101 A 
ENDBRANCH   2   6
BRANCH   3  14
ATOM     14  C   UNL d   1      50.275  34.389  52.682  0.00  0.00     0.217 C 
ATOM     15  O   UNL d   1      49.845  34.814  53.253  0.00  0.00    -0.643 OA
ATOM     16  O   UNL d   1      49.886  34.057  52.054  0.00  0.00    -0.643 OA
ENDBRANCH   3  14
TORSDOF 2
ENDMDL
MODEL 5
REMARK VINA RESULT:      -7.9      2.264      2.742
REMARK  2 active torsions:
REMARK  status: ('A' for Active; 'I' for Inactive)
REMARK    1  A    between atoms: C_4  and  C_2 
REMARK    2  A    between atoms: C_8  and  C_3 
ROOT
ATOM      1  S   UNL d   1      51.215  33.508  53.006  0.00  0.00    -0.081 SA
ATOM      2  C   UNL d   1      52.038  33.544  53.062  0.00  0.00     0.031 A 
ATOM      3  C   UNL d   1      50.936  34.265  52.778  0.00  0.00     0.094 A 
ATOM      4  C   UNL d   1      52.278  34.324  52.870  0.00  0.00     0.007 A 
ATOM      5  C   UNL d   1      51.592  34.762  52.696  0.00  0.00     0.013 A 
ENDROOT
BRANCH   2   6
ATOM      6  C   UNL d   1      52.537  32.929  53.269  0.00  0.00     0.025 A 
ATOM      7  C   UNL d   1      53.086  33.025  53.879  0.00  0.00     0.005 A 
ATOM      8  C   UNL d   1      53.585  32.411  54.086  0.00  0.00     0.038 A 
ATOM      9  C   UNL d   1      54.129  32.507  54.691  0.00  0.00     0.003 C 
ATOM     10  C   UNL d   1      53.539  31.690  53.681  0.00  0.00     0.184 A 
ATOM     11  N   UNL d   1      52.987  31.595  53.068  0.00  0.00    -0.224 NA
ATOM     12  N   UNL d   1      54.040  31.071  53.887  0.00  0.00    -0.127 N 
ATOM     13  C   UNL d   1      52.493  32.220  52.872  0.00  0.00     0.101 A 
ENDBRANCH   2   6
BRANCH   3  14
ATOM     14  C   UNL d   1      50.147  34.465  52.660  0.00  0.00     0.217 C 
ATOM     15  O   UNL d   1      49.730  34.849  53.270  0.00  0.00    -0.643 OA
ATOM     16  O   UNL d   1      49.770  34.295  51.964  0.00  0.00    -0.643 OA
ENDBRANCH   3  14
TORSDOF 2
ENDMDL
