MODEL 1
REMARK VINA RESULT:      -5.7      0.000      0.000
REMARK  6 active torsions:
REMARK  status: ('A' for Active; 'I' for Inactive)
REMARK    1  A    between atoms: N_2  and  S_1 
REMARK    2  A    between atoms: C_3  and  S_1 
REMARK    3  A    between atoms: C_6  and  N_2 
REMARK    4  A    between atoms: C_12  and  C_6 
REMARK    5  A    between atoms: C_7  and  S_9 
REMARK    6  A    between atoms: S_9  and  C_12 
ROOT
ATOM      1  N   UNL d   1     -41.123-122.373 -52.106  0.00  0.00    -0.188 NA
ENDROOT
BRANCH   1   2
ATOM      2  S   UNL d   1     -41.416-122.336 -52.876  0.00  0.00     0.281 S 
ATOM      3  O   UNL d   1     -41.425-121.502 -52.849  0.00  0.00    -0.199 OA
ATOM      4  O   UNL d   1     -41.413-123.160 -52.917  0.00  0.00    -0.199 OA
BRANCH   2   5
ATOM      5  C   UNL d   1     -41.717-122.297 -53.666  0.00  0.00     0.105 A 
ATOM      6  C   UNL d   1     -41.505-122.875 -54.218  0.00  0.00     0.014 A 
ATOM      7  C   UNL d   1     -41.791-122.840 -54.970  0.00  0.00     0.012 A 
ATOM      8  C   UNL d   1     -42.303-122.222 -55.206  0.00  0.00     0.058 A 
ATOM      9  C   UNL d   1     -42.504-121.653 -54.642  0.00  0.00     0.012 A 
ATOM     10 CL   UNL d   1     -42.607-122.172 -55.982  0.00  0.00    -0.082 Cl
ATOM     11  C   UNL d   1     -42.210-121.693 -53.875  0.00  0.00     0.014 A 
ENDBRANCH   2   5
ENDBRANCH   1   2
BRANCH   1  12
ATOM     12  C   UNL d   1     -41.578-122.714 -51.508  0.00  0.00     0.107 C 
ATOM     13  C   UNL d   1     -41.935-121.987 -51.361  0.00  0.00     0.026 C 
ATOM     14  C   UNL d   1     -41.208-123.457 -51.665  0.00  0.00     0.026 C 
BRANCH  12  15
ATOM     15  C   UNL d   1     -42.029-123.060 -50.915  0.00  0.00     0.087 C 
BRANCH  15  16
ATOM     16  S   UNL d   1     -41.672-123.337 -50.228  0.00  0.00    -0.093 SA
BRANCH  16  17
ATOM     17  C   UNL d   1     -42.104-123.494 -49.558  0.00  0.00     0.107 A 
ATOM     18  N   UNL d   1     -42.906-123.655 -49.608  0.00  0.00    -0.238 NA
ATOM     19  C   UNL d   1     -43.345-123.813 -48.944  0.00  0.00     0.100 A 
ATOM     20  C   UNL d   1     -42.964-123.810 -48.190  0.00  0.00     0.021 A 
ATOM     21  C   UNL d   1     -42.162-123.649 -48.139  0.00  0.00     0.004 A 
ATOM     22  C   UNL d   1     -41.729-123.491 -48.823  0.00  0.00     0.025 A 
ENDBRANCH  16  17
ENDBRANCH  15  16
ENDBRANCH  12  15
ENDBRANCH   1  12
TORSDOF 6
ENDMDL
MODEL 2
REMARK VINA RESULT:      -5.4      2.077      4.888
REMARK  6 active torsions:
REMARK  status: ('A' for Active; 'I' for Inactive)
REMARK    1  A    between atoms: N_2  and  S_1 
REMARK    2  A    between atoms: C_3  and  S_1 
REMARK    3  A    between atoms: C_6  and  N_2 
REMARK    4  A    between atoms: C_12  and  C_6 
REMARK    5  A    between atoms: C_7  and  S_9 
REMARK    6  A    between atoms: S_9  and  C_12 
ROOT
ATOM      1  N   UNL d   1     -41.123-123.021 -51.150  0.00  0.00    -0.188 NA
ENDROOT
BRANCH   1   2
ATOM      2  S   UNL d   1     -41.588-123.178 -50.487  0.00  0.00     0.281 S 
ATOM      3  O   UNL d   1     -42.000-123.776 -50.898  0.00  0.00    -0.199 OA
ATOM      4  O   UNL d   1     -41.190-122.590 -50.068  0.00  0.00    -0.199 OA
BRANCH   2   5
ATOM      5  C   UNL d   1     -42.066-123.340 -49.807  0.00  0.00     0.105 A 
ATOM      6  C   UNL d   1     -41.771-123.191 -49.050  0.00  0.00     0.014 A 
ATOM      7  C   UNL d   1     -42.224-123.344 -48.402  0.00  0.00     0.012 A 
ATOM      8  C   UNL d   1     -42.997-123.654 -48.482  0.00  0.00     0.058 A 
ATOM      9  C   UNL d   1     -43.276-123.796 -49.246  0.00  0.00     0.012 A 
ATOM     10 CL   UNL d   1     -43.479-123.817 -47.820  0.00  0.00    -0.082 Cl
ATOM     11  C   UNL d   1     -42.809-123.639 -49.905  0.00  0.00     0.014 A 
ENDBRANCH   2   5
ENDBRANCH   1   2
BRANCH   1  12
ATOM     12  C   UNL d   1     -41.481-122.864 -51.876  0.00  0.00     0.107 C 
ATOM     13  C   UNL d   1     -41.546-122.069 -51.676  0.00  0.00     0.026 C 
ATOM     14  C   UNL d   1     -41.410-123.683 -52.074  0.00  0.00     0.026 C 
BRANCH  12  15
ATOM     15  C   UNL d   1     -41.837-122.715 -52.601  0.00  0.00     0.087 C 
BRANCH  15  16
ATOM     16  S   UNL d   1     -41.422-122.333 -53.199  0.00  0.00    -0.093 SA
BRANCH  16  17
ATOM     17  C   UNL d   1     -41.733-122.246 -53.945  0.00  0.00     0.107 A 
ATOM     18  N   UNL d   1     -42.292-121.667 -54.097  0.00  0.00    -0.238 NA
ATOM     19  C   UNL d   1     -42.609-121.575 -54.839  0.00  0.00     0.100 A 
ATOM     20  C   UNL d   1     -42.354-122.086 -55.461  0.00  0.00     0.021 A 
ATOM     21  C   UNL d   1     -41.795-122.665 -55.308  0.00  0.00     0.004 A 
ATOM     22  C   UNL d   1     -41.482-122.748 -54.550  0.00  0.00     0.025 A 
ENDBRANCH  16  17
ENDBRANCH  15  16
ENDBRANCH  12  15
ENDBRANCH   1  12
TORSDOF 6
ENDMDL
