MODEL 1
REMARK VINA RESULT:      52.9      0.000      0.000
REMARK  3 active torsions:
REMARK  status: ('A' for Active; 'I' for Inactive)
REMARK    1  A    between atoms: N_3  and  C_1 
REMARK       I    between atoms: C_5  and  N_3 
REMARK    2  A    between atoms: C_9  and  C_5 
REMARK    3  A    between atoms: O_22  and  C_20 
ROOT
ATOM      1  N   UNL d   1      14.186  14.619  -2.635  0.00  0.00    -0.183 NA
ATOM      2  C   UNL d   1      14.513  14.468  -1.892  0.00  0.00     0.281 C 
ATOM      3  O   UNL d   1      14.543  13.675  -1.604  0.00  0.00    -0.265 OA
ENDROOT
BRANCH   1   4
ATOM      4  C   UNL d   1      13.888  14.006  -3.098  0.00  0.00     0.197 A 
ATOM      5  N   UNL d   1      13.575  13.296  -2.802  0.00  0.00    -0.221 NA
ATOM      6  C   UNL d   1      13.342  12.842  -3.458  0.00  0.00     0.090 A 
ATOM      7  C   UNL d   1      12.999  12.095  -3.508  0.00  0.00     0.022 A 
ATOM      8  C   UNL d   1      13.513  13.276  -4.140  0.00  0.00     0.052 A 
ATOM      9  C   UNL d   1      12.827  11.782  -4.258  0.00  0.00     0.026 A 
ATOM     10  C   UNL d   1      12.996  12.210  -4.933  0.00  0.00     0.095 A 
ATOM     11  C   UNL d   1      13.341  12.964  -4.891  0.00  0.00     0.032 A 
ATOM     12  S   UNL d   1      13.846  13.984  -3.907  0.00  0.00    -0.047 SA
BRANCH  10  13
ATOM     13  O   UNL d   1      12.821  11.895  -5.709  0.00  0.00    -0.328 OA
ATOM     14  C   UNL d   1      13.431  11.872  -6.286  0.00  0.00     0.181 C 
ENDBRANCH  10  13
ENDBRANCH   1   4
BRANCH   2  15
ATOM     15  C   UNL d   1      14.811  15.081  -1.428  0.00  0.00     0.059 A 
ATOM     16  C   UNL d   1      14.897  15.831  -1.753  0.00  0.00     0.013 A 
ATOM     17  C   UNL d   1      15.192  16.448  -1.303  0.00  0.00     0.049 A 
ATOM     18  S   UNL d   1      15.337  17.247  -1.479  0.00  0.00    -0.064 SA
ATOM     19  C   UNL d   1      15.409  16.314  -0.503  0.00  0.00     0.088 A 
ATOM     20  C   UNL d   1      15.639  17.594  -0.788  0.00  0.00     0.135 A 
ATOM     21  N   UNL d   1      15.687  17.036  -0.188  0.00  0.00    -0.236 NA
ATOM     22  C   UNL d   1      15.327  15.561  -0.163  0.00  0.00     0.020 A 
ATOM     23  C   UNL d   1      15.028  14.948  -0.628  0.00  0.00     0.006 A 
ENDBRANCH   2  15
TORSDOF 3
ENDMDL
