MODEL 1
REMARK VINA RESULT:       2.5      0.000      0.000
REMARK  3 active torsions:
REMARK  status: ('A' for Active; 'I' for Inactive)
REMARK    1  A    between atoms: N_9  and  C_3 
REMARK    2  A    between atoms: C_14  and  C_5 
REMARK       I    between atoms: C_10  and  N_11 
REMARK    3  A    between atoms: C_13  and  C_10 
ROOT
ATOM      1  N   UNL d   1     -41.898-122.159 -51.729  0.00  0.00    -0.196 N 
ATOM      2  C   UNL d   1     -41.851-121.736 -52.430  0.00  0.00     0.167 A 
ATOM      3  C   UNL d   1     -41.764-121.782 -51.007  0.00  0.00     0.152 A 
ATOM      4  N   UNL d   1     -42.085-122.935 -51.911  0.00  0.00    -0.163 NA
ATOM      5  C   UNL d   1     -42.009-122.249 -53.049  0.00  0.00     0.055 A 
ATOM      6  C   UNL d   1     -42.152-122.983 -52.731  0.00  0.00     0.104 A 
ATOM      7  N   UNL d   1     -41.669-120.930 -52.420  0.00  0.00    -0.227 NA
ATOM      8  C   UNL d   1     -41.580-120.970 -50.992  0.00  0.00     0.057 A 
ATOM      9  C   UNL d   1     -41.533-120.548 -51.693  0.00  0.00     0.086 A 
ATOM     10  C   UNL d   1     -42.335-123.663 -53.169  0.00  0.00     0.023 C 
ATOM     11  C   UNL d   1     -41.348-119.729 -51.670  0.00  0.00     0.021 C 
ENDROOT
BRANCH   3  12
ATOM     12  N   UNL d   1     -41.810-122.205 -50.305  0.00  0.00    -0.286 N 
ATOM     13  C   UNL d   1     -42.537-122.310 -49.924  0.00  0.00     0.101 A 
ATOM     14  C   UNL d   1     -42.580-122.734 -49.223  0.00  0.00     0.102 A 
ATOM     15  N   UNL d   1     -41.891-123.059 -48.892  0.00  0.00    -0.267 N 
ATOM     16  C   UNL d   1     -41.926-123.491 -48.179  0.00  0.00     0.288 C 
ATOM     17  C   UNL d   1     -41.173-122.955 -49.267  0.00  0.00     0.102 A 
ATOM     18  O   UNL d   1     -41.254-123.817 -47.842  0.00  0.00    -0.264 OA
ATOM     19  C   UNL d   1     -41.130-122.527 -49.977  0.00  0.00     0.101 A 
BRANCH  16  20
ATOM     20  C   UNL d   1     -42.661-123.593 -47.801  0.00  0.00     0.156 A 
ATOM     21  O   UNL d   1     -43.398-123.812 -48.084  0.00  0.00    -0.300 OA
ATOM     22  C   UNL d   1     -43.916-123.817 -47.445  0.00  0.00     0.123 A 
ATOM     23  C   UNL d   1     -43.514-123.607 -46.779  0.00  0.00     0.029 A 
ATOM     24  C   UNL d   1     -42.722-123.463 -46.994  0.00  0.00     0.032 A 
ENDBRANCH  16  20
ENDBRANCH   3  12
BRANCH   5  25
ATOM     25  C   UNL d   1     -42.041-122.141 -53.867  0.00  0.00     0.004 A 
ATOM     26  C   UNL d   1     -42.732-121.831 -54.215  0.00  0.00     0.001 A 
ATOM     27  C   UNL d   1     -42.765-121.722 -55.031  0.00  0.00     0.011 A 
ATOM     28  C   UNL d   1     -42.117-121.918 -55.503  0.00  0.00     0.058 A 
ATOM     29  C   UNL d   1     -41.427-122.226 -55.159  0.00  0.00     0.011 A 
ATOM     30 CL   UNL d   1     -42.155-121.806 -56.322  0.00  0.00    -0.082 Cl
ATOM     31  C   UNL d   1     -41.395-122.335 -54.342  0.00  0.00     0.001 A 
ENDBRANCH   5  25
TORSDOF 3
ENDMDL
MODEL 2
REMARK VINA RESULT:       5.0      2.732      5.607
REMARK  3 active torsions:
REMARK  status: ('A' for Active; 'I' for Inactive)
REMARK    1  A    between atoms: N_9  and  C_3 
REMARK    2  A    between atoms: C_14  and  C_5 
REMARK       I    between atoms: C_10  and  N_11 
REMARK    3  A    between atoms: C_13  and  C_10 
ROOT
ATOM      1  N   UNL d   1     -41.896-122.123 -51.222  0.00  0.00    -0.196 N 
ATOM      2  C   UNL d   1     -41.895-121.852 -50.448  0.00  0.00     0.167 A 
ATOM      3  C   UNL d   1     -41.641-121.633 -51.835  0.00  0.00     0.152 A 
ATOM      4  N   UNL d   1     -42.174-122.895 -51.222  0.00  0.00    -0.163 NA
ATOM      5  C   UNL d   1     -42.173-122.454 -49.966  0.00  0.00     0.055 A 
ATOM      6  C   UNL d   1     -42.343-123.091 -50.440  0.00  0.00     0.104 A 
ATOM      7  N   UNL d   1     -41.641-121.085 -50.276  0.00  0.00    -0.227 NA
ATOM      8  C   UNL d   1     -41.384-120.860 -51.666  0.00  0.00     0.057 A 
ATOM      9  C   UNL d   1     -41.384-120.588 -50.893  0.00  0.00     0.086 A 
ATOM     10  C   UNL d   1     -42.639-123.817 -50.170  0.00  0.00     0.023 C 
ATOM     11  C   UNL d   1     -41.123-119.807 -50.729  0.00  0.00     0.021 C 
ENDROOT
BRANCH   3  12
ATOM     12  N   UNL d   1     -41.642-121.905 -52.610  0.00  0.00    -0.286 N 
ATOM     13  C   UNL d   1     -42.143-121.567 -53.175  0.00  0.00     0.101 A 
ATOM     14  C   UNL d   1     -42.141-121.842 -53.947  0.00  0.00     0.102 A 
ATOM     15  N   UNL d   1     -41.633-122.462 -54.166  0.00  0.00    -0.267 N 
ATOM     16  C   UNL d   1     -41.624-122.747 -54.950  0.00  0.00     0.288 C 
ATOM     17  C   UNL d   1     -41.138-122.795 -53.609  0.00  0.00     0.102 A 
ATOM     18  O   UNL d   1     -41.128-123.357 -55.178  0.00  0.00    -0.264 OA
ATOM     19  C   UNL d   1     -41.140-122.517 -52.827  0.00  0.00     0.101 A 
BRANCH  16  20
ATOM     20  C   UNL d   1     -42.132-122.402 -55.513  0.00  0.00     0.156 A 
ATOM     21  O   UNL d   1     -42.933-122.493 -55.659  0.00  0.00    -0.300 OA
ATOM     22  C   UNL d   1     -43.125-122.003 -56.292  0.00  0.00     0.123 A 
ATOM     23  C   UNL d   1     -42.462-121.616 -56.535  0.00  0.00     0.029 A 
ATOM     24  C   UNL d   1     -41.831-121.860 -56.050  0.00  0.00     0.032 A 
ENDBRANCH  16  20
ENDBRANCH   3  12
BRANCH   5  25
ATOM     25  C   UNL d   1     -42.293-122.501 -49.151  0.00  0.00     0.004 A 
ATOM     26  C   UNL d   1     -41.653-122.688 -48.651  0.00  0.00     0.001 A 
ATOM     27  C   UNL d   1     -41.772-122.736 -47.836  0.00  0.00     0.011 A 
ATOM     28  C   UNL d   1     -42.520-122.600 -47.516  0.00  0.00     0.058 A 
ATOM     29  C   UNL d   1     -43.159-122.413 -48.012  0.00  0.00     0.011 A 
ATOM     30 CL   UNL d   1     -42.634-122.649 -46.699  0.00  0.00    -0.082 Cl
ATOM     31  C   UNL d   1     -43.040-122.365 -48.827  0.00  0.00     0.001 A 
ENDBRANCH   5  25
TORSDOF 3
ENDMDL
