MODEL 1
REMARK VINA RESULT:      21.7      0.000      0.000
REMARK  5 active torsions:
REMARK  status: ('A' for Active; 'I' for Inactive)
REMARK    1  A    between atoms: C_10  and  N_1 
REMARK    2  A    between atoms: N_2  and  C_8 
REMARK    3  A    between atoms: C_5  and  C_12 
REMARK       I    between atoms: N_6  and  C_5 
REMARK    4  A    between atoms: C_7  and  N_6 
REMARK    5  A    between atoms: O_26  and  C_14 
ROOT
ATOM      1  C   UNL d   1      45.666 -17.338  43.239  0.00  0.00     0.279 C 
ATOM      2  N   UNL d   1      46.319 -17.775  43.457  0.00  0.00    -0.206 NA
ATOM      3  O   UNL d   1      45.111 -17.642  42.717  0.00  0.00    -0.265 OA
ENDROOT
BRANCH   1   4
ATOM      4  C   UNL d   1      45.559 -16.562  43.553  0.00  0.00     0.058 A 
ATOM      5  C   UNL d   1      45.134 -16.461  44.241  0.00  0.00     0.006 A 
ATOM      6  C   UNL d   1      45.028 -15.690  44.554  0.00  0.00     0.018 A 
ATOM      7  C   UNL d   1      45.351 -15.050  44.165  0.00  0.00     0.070 A 
ATOM      8  C   UNL d   1      45.779 -15.149  43.473  0.00  0.00     0.018 A 
ATOM      9  C   UNL d   1      45.885 -15.920  43.160  0.00  0.00     0.006 A 
BRANCH   7  10
ATOM     10  N   UNL d   1      45.244 -14.270  44.481  0.00  0.00    -0.242 N 
ATOM     11  C   UNL d   1      45.786 -13.663  44.658  0.00  0.00     0.267 A 
ATOM     12  C   UNL d   1      45.362 -13.024  44.954  0.00  0.00     0.066 A 
ATOM     13  O   UNL d   1      46.646 -13.697  44.551  0.00  0.00    -0.267 OA
ATOM     14  C   UNL d   1      44.567 -13.253  44.951  0.00  0.00     0.066 A 
ATOM     15  C   UNL d   1      44.489 -14.014  44.663  0.00  0.00     0.267 A 
ATOM     16  O   UNL d   1      43.760 -14.424  44.583  0.00  0.00    -0.267 OA
ENDBRANCH   7  10
ENDBRANCH   1   4
BRANCH   2  17
ATOM     17  C   UNL d   1      46.426 -18.555  43.142  0.00  0.00     0.108 A 
ATOM     18  C   UNL d   1      46.432 -18.675  42.320  0.00  0.00     0.045 A 
ATOM     19  C   UNL d   1      46.536 -19.434  42.013  0.00  0.00     0.128 A 
ATOM     20  C   UNL d   1      46.637 -20.089  42.521  0.00  0.00     0.026 A 
ATOM     21  C   UNL d   1      46.629 -19.957  43.337  0.00  0.00     0.027 A 
ATOM     22  C   UNL d   1      46.525 -19.199  43.644  0.00  0.00     0.112 A 
BRANCH  19  23
ATOM     23  N   UNL d   1      46.541 -19.541  41.207  0.00  0.00    -0.114 N 
ATOM     24  O   UNL d   1      46.571 -20.280  40.817  0.00  0.00    -0.532 OA
ATOM     25  O   UNL d   1      46.513 -18.852  40.689  0.00  0.00    -0.532 OA
ENDBRANCH  19  23
BRANCH  22  26
ATOM     26  O   UNL d   1      46.521 -19.095  44.455  0.00  0.00    -0.327 OA
ATOM     27  C   UNL d   1      46.436 -19.749  44.954  0.00  0.00     0.181 C 
ENDBRANCH  22  26
ENDBRANCH   2  17
TORSDOF 5
ENDMDL
