MODEL 1
REMARK VINA RESULT:      16.6      0.000      0.000
REMARK  7 active torsions:
REMARK  status: ('A' for Active; 'I' for Inactive)
REMARK    1  A    between atoms: N_4  and  C_1 
REMARK    2  A    between atoms: N_8  and  C_1 
REMARK    3  A    between atoms: C_2  and  C_3 
REMARK    4  A    between atoms: C_5  and  C_2 
REMARK    5  A    between atoms: N_6  and  C_2 
REMARK    6  A    between atoms: C_3  and  N_4 
REMARK    7  A    between atoms: C_14  and  N_8 
ROOT
ATOM      1  C   UNL d   1      46.281 -17.664  44.150  0.00  0.00     0.100 C 
ATOM      2  C   UNL d   1      46.646 -17.641  44.884  0.00  0.00     0.022 C 
ENDROOT
BRANCH   1   3
ATOM      3  C   UNL d   1      46.294 -18.360  43.707  0.00  0.00     0.088 C 
BRANCH   3   4
ATOM      4  C   UNL d   1      46.189 -19.090  44.079  0.00  0.00     0.047 A 
ATOM      5  S   UNL d   1      45.692 -19.705  43.830  0.00  0.00    -0.085 SA
ATOM      6  C   UNL d   1      45.762 -20.327  44.366  0.00  0.00     0.035 A 
ATOM      7  C   UNL d   1      46.303 -20.110  44.955  0.00  0.00     0.007 A 
ATOM      8  C   UNL d   1      46.572 -19.339  44.780  0.00  0.00     0.009 A 
ENDBRANCH   3   4
BRANCH   3   9
ATOM      9  N   UNL d   1      46.411 -18.332  42.885  0.00  0.00    -0.299 N 
ATOM     10  C   UNL d   1      46.522 -19.023  42.462  0.00  0.00     0.107 A 
ATOM     11  C   UNL d   1      46.640 -19.006  41.647  0.00  0.00     0.142 A 
ATOM     12  O   UNL d   1      46.646 -18.279  41.239  0.00  0.00    -0.300 OA
ATOM     13  C   UNL d   1      46.533 -17.576  41.672  0.00  0.00     0.142 A 
ATOM     14  C   UNL d   1      46.416 -17.603  42.490  0.00  0.00     0.107 A 
ENDBRANCH   3   9
ENDBRANCH   1   3
BRANCH   1  15
ATOM     15  N   UNL d   1      45.901 -16.999  43.849  0.00  0.00    -0.216 NA
BRANCH  15  16
ATOM     16  C   UNL d   1      45.696 -16.375  44.357  0.00  0.00     0.221 C 
ATOM     17  S   UNL d   1      44.996 -16.417  44.790  0.00  0.00    -0.037 SA
BRANCH  16  18
ATOM     18  N   UNL d   1      46.192 -15.720  44.424  0.00  0.00    -0.217 NA
BRANCH  18  19
ATOM     19  C   UNL d   1      45.880 -14.955  44.425  0.00  0.00     0.084 A 
ATOM     20  C   UNL d   1      45.227 -14.777  44.908  0.00  0.00     0.021 A 
ATOM     21  C   UNL d   1      44.925 -14.023  44.903  0.00  0.00     0.031 A 
ATOM     22  C   UNL d   1      45.259 -13.433  44.427  0.00  0.00     0.140 A 
ATOM     23  C   UNL d   1      45.907 -13.614  43.950  0.00  0.00     0.031 A 
ATOM     24  F   UNL d   1      44.942 -12.665  44.431  0.00  0.00    -0.204 F 
ATOM     25  C   UNL d   1      46.215 -14.374  43.951  0.00  0.00     0.021 A 
ENDBRANCH  18  19
ENDBRANCH  16  18
ENDBRANCH  15  16
ENDBRANCH   1  15
TORSDOF 7
ENDMDL
