MODEL 1
REMARK VINA RESULT:      78.7      0.000      0.000
REMARK  9 active torsions:
REMARK  status: ('A' for Active; 'I' for Inactive)
REMARK    1  A    between atoms: C_12  and  C_1 
REMARK       I    between atoms: C_4  and  N_11 
REMARK    2  A    between atoms: C_5  and  C_4 
REMARK    3  A    between atoms: O_18  and  C_6 
REMARK    4  A    between atoms: O_19  and  C_7 
REMARK    5  A    between atoms: O_20  and  C_8 
REMARK    6  A    between atoms: N_11  and  C_15 
REMARK    7  A    between atoms: C_26  and  O_18 
REMARK    8  A    between atoms: C_28  and  O_19 
REMARK    9  A    between atoms: C_27  and  O_20 
ROOT
ATOM      1  C   UNL d   1     -48.991  28.009  34.313  0.00  0.00     0.279 C 
ATOM      2  N   UNL d   1     -48.889  28.158  35.122  0.00  0.00    -0.208 NA
ATOM      3  O   UNL d   1     -48.540  28.418  33.757  0.00  0.00    -0.265 OA
ENDROOT
BRANCH   1   4
ATOM      4  C   UNL d   1     -49.544  27.452  34.067  0.00  0.00     0.062 A 
ATOM      5  C   UNL d   1     -49.348  26.649  34.067  0.00  0.00     0.032 A 
ATOM      6  C   UNL d   1     -49.901  26.093  33.821  0.00  0.00     0.125 A 
ATOM      7  C   UNL d   1     -50.650  26.334  33.575  0.00  0.00     0.145 A 
ATOM      8  C   UNL d   1     -50.843  27.132  33.575  0.00  0.00     0.125 A 
ATOM      9  C   UNL d   1     -50.292  27.684  33.820  0.00  0.00     0.032 A 
BRANCH   6  10
ATOM     10  O   UNL d   1     -49.703  25.285  33.821  0.00  0.00    -0.303 OA
BRANCH  10  11
ATOM     11  C   UNL d   1     -48.952  25.048  33.563  0.00  0.00     0.123 C 
ATOM     12  C   UNL d   1     -48.808  24.244  33.404  0.00  0.00     0.029 C 
ENDBRANCH  10  11
ENDBRANCH   6  10
BRANCH   7  13
ATOM     13  O   UNL d   1     -51.204  25.773  33.328  0.00  0.00    -0.301 OA
BRANCH  13  14
ATOM     14  C   UNL d   1     -51.586  25.304  33.884  0.00  0.00     0.123 C 
ATOM     15  C   UNL d   1     -52.210  24.815  33.651  0.00  0.00     0.029 C 
ENDBRANCH  13  14
ENDBRANCH   7  13
BRANCH   8  16
ATOM     16  O   UNL d   1     -51.600  27.377  33.326  0.00  0.00    -0.303 OA
BRANCH  16  17
ATOM     17  C   UNL d   1     -51.789  28.181  33.327  0.00  0.00     0.123 C 
ATOM     18  C   UNL d   1     -52.547  28.423  33.560  0.00  0.00     0.029 C 
ENDBRANCH  16  17
ENDBRANCH   8  16
ENDBRANCH   1   4
BRANCH   2  19
ATOM     19  C   UNL d   1     -48.331  28.722  35.377  0.00  0.00     0.085 A 
ATOM     20  C   UNL d   1     -48.305  29.464  35.008  0.00  0.00     0.022 A 
ATOM     21  C   UNL d   1     -47.755  30.022  35.256  0.00  0.00     0.037 A 
ATOM     22  C   UNL d   1     -47.229  29.849  35.869  0.00  0.00     0.003 A 
ATOM     23  C   UNL d   1     -47.258  29.105  36.235  0.00  0.00     0.002 A 
ATOM     24  C   UNL d   1     -47.804  28.544  35.992  0.00  0.00     0.019 A 
BRANCH  21  25
ATOM     25  C   UNL d   1     -47.726  30.763  34.892  0.00  0.00     0.162 A 
ATOM     26  N   UNL d   1     -47.142  31.344  34.876  0.00  0.00    -0.225 NA
ATOM     27  C   UNL d   1     -47.423  31.973  34.421  0.00  0.00     0.101 A 
ATOM     28  C   UNL d   1     -47.084  32.700  34.212  0.00  0.00     0.021 A 
ATOM     29  C   UNL d   1     -48.173  31.775  34.162  0.00  0.00     0.101 A 
ATOM     30  C   UNL d   1     -47.510  33.221  33.742  0.00  0.00     0.002 A 
ATOM     31  C   UNL d   1     -48.273  33.020  33.479  0.00  0.00     0.002 A 
ATOM     32  C   UNL d   1     -48.601  32.303  33.687  0.00  0.00     0.021 A 
ATOM     33  N   UNL d   1     -48.361  31.030  34.452  0.00  0.00    -0.225 NA
ENDBRANCH  21  25
ENDBRANCH   2  19
TORSDOF 9
ENDMDL
MODEL 2
REMARK VINA RESULT:      80.3      0.633      2.116
REMARK  9 active torsions:
REMARK  status: ('A' for Active; 'I' for Inactive)
REMARK    1  A    between atoms: C_12  and  C_1 
REMARK       I    between atoms: C_4  and  N_11 
REMARK    2  A    between atoms: C_5  and  C_4 
REMARK    3  A    between atoms: O_18  and  C_6 
REMARK    4  A    between atoms: O_19  and  C_7 
REMARK    5  A    between atoms: O_20  and  C_8 
REMARK    6  A    between atoms: N_11  and  C_15 
REMARK    7  A    between atoms: C_26  and  O_18 
REMARK    8  A    between atoms: C_28  and  O_19 
REMARK    9  A    between atoms: C_27  and  O_20 
ROOT
ATOM      1  C   UNL d   1     -49.023  27.216  34.227  0.00  0.00     0.279 C 
ATOM      2  N   UNL d   1     -49.199  27.812  34.774  0.00  0.00    -0.208 NA
ATOM      3  O   UNL d   1     -48.264  27.152  33.914  0.00  0.00    -0.265 OA
ENDROOT
BRANCH   1   4
ATOM      4  C   UNL d   1     -49.611  26.687  33.997  0.00  0.00     0.062 A 
ATOM      5  C   UNL d   1     -50.355  26.969  33.775  0.00  0.00     0.032 A 
ATOM      6  C   UNL d   1     -50.941  26.440  33.545  0.00  0.00     0.125 A 
ATOM      7  C   UNL d   1     -50.788  25.630  33.537  0.00  0.00     0.145 A 
ATOM      8  C   UNL d   1     -50.049  25.351  33.758  0.00  0.00     0.125 A 
ATOM      9  C   UNL d   1     -49.466  25.878  33.986  0.00  0.00     0.032 A 
BRANCH   6  10
ATOM     10  O   UNL d   1     -51.690  26.724  33.321  0.00  0.00    -0.303 OA
BRANCH  10  11
ATOM     11  C   UNL d   1     -52.023  27.364  33.730  0.00  0.00     0.123 C 
ATOM     12  C   UNL d   1     -52.431  27.953  33.307  0.00  0.00     0.029 C 
ENDBRANCH  10  11
ENDBRANCH   6  10
BRANCH   7  13
ATOM     13  O   UNL d   1     -51.379  25.101  33.306  0.00  0.00    -0.301 OA
BRANCH  13  14
ATOM     14  C   UNL d   1     -51.348  24.319  33.557  0.00  0.00     0.123 C 
ATOM     15  C   UNL d   1     -52.006  23.828  33.460  0.00  0.00     0.029 C 
ENDBRANCH  13  14
ENDBRANCH   7  13
BRANCH   8  16
ATOM     16  O   UNL d   1     -49.893  24.533  33.749  0.00  0.00    -0.303 OA
BRANCH  16  17
ATOM     17  C   UNL d   1     -49.116  24.266  33.656  0.00  0.00     0.123 C 
ATOM     18  C   UNL d   1     -48.669  24.066  34.325  0.00  0.00     0.029 C 
ENDBRANCH  16  17
ENDBRANCH   8  16
ENDBRANCH   1   4
BRANCH   2  19
ATOM     19  C   UNL d   1     -48.608  28.350  35.010  0.00  0.00     0.085 A 
ATOM     20  C   UNL d   1     -48.614  29.120  34.705  0.00  0.00     0.022 A 
ATOM     21  C   UNL d   1     -48.032  29.654  34.935  0.00  0.00     0.037 A 
ATOM     22  C   UNL d   1     -47.443  29.427  35.468  0.00  0.00     0.003 A 
ATOM     23  C   UNL d   1     -47.441  28.655  35.771  0.00  0.00     0.002 A 
ATOM     24  C   UNL d   1     -48.018  28.119  35.545  0.00  0.00     0.019 A 
BRANCH  21  25
ATOM     25  C   UNL d   1     -48.034  30.423  34.634  0.00  0.00     0.162 A 
ATOM     26  N   UNL d   1     -48.643  30.901  34.353  0.00  0.00    -0.225 NA
ATOM     27  C   UNL d   1     -48.313  31.621  34.121  0.00  0.00     0.101 A 
ATOM     28  C   UNL d   1     -48.651  32.307  33.801  0.00  0.00     0.021 A 
ATOM     29  C   UNL d   1     -47.509  31.581  34.261  0.00  0.00     0.101 A 
ATOM     30  C   UNL d   1     -48.169  32.948  33.624  0.00  0.00     0.002 A 
ATOM     31  C   UNL d   1     -47.350  32.907  33.767  0.00  0.00     0.002 A 
ATOM     32  C   UNL d   1     -47.024  32.230  34.082  0.00  0.00     0.021 A 
ATOM     33  N   UNL d   1     -47.335  30.843  34.577  0.00  0.00    -0.225 NA
ENDBRANCH  21  25
ENDBRANCH   2  19
TORSDOF 9
ENDMDL
