MODEL 1
REMARK VINA RESULT:     117.5      0.000      0.000
REMARK  5 active torsions:
REMARK  status: ('A' for Active; 'I' for Inactive)
REMARK    1  A    between atoms: C_2  and  S_1 
REMARK    2  A    between atoms: C_9  and  S_1 
REMARK    3  A    between atoms: N_5  and  C_3 
REMARK    4  A    between atoms: O_28  and  C_23 
REMARK    5  A    between atoms: O_29  and  C_24 
ROOT
ATOM      1  C   UNL d   1     -49.994  26.772  33.933  0.00  0.00     0.123 A 
ATOM      2  C   UNL d   1     -49.886  27.105  34.678  0.00  0.00     0.078 A 
ATOM      3  C   UNL d   1     -49.289  27.660  34.795  0.00  0.00     0.036 A 
ATOM      4  C   UNL d   1     -49.507  26.994  33.306  0.00  0.00     0.112 A 
ATOM      5  N   UNL d   1     -48.911  27.549  33.423  0.00  0.00    -0.243 NA
ATOM      6  C   UNL d   1     -48.802  27.883  34.168  0.00  0.00     0.083 A 
ATOM      7  C   UNL d   1     -49.181  27.993  35.540  0.00  0.00     0.027 A 
ATOM      8  C   UNL d   1     -48.206  28.438  34.285  0.00  0.00     0.021 A 
ATOM      9  C   UNL d   1     -48.584  28.549  35.657  0.00  0.00     0.094 A 
ATOM     10  C   UNL d   1     -48.096  28.771  35.030  0.00  0.00     0.026 A 
ENDROOT
BRANCH   1  11
ATOM     11  S   UNL d   1     -50.597  26.208  33.809  0.00  0.00     0.213 S 
ATOM     12  O   UNL d   1     -50.051  25.593  33.951  0.00  0.00    -0.217 OA
ATOM     13  O   UNL d   1     -51.139  26.821  33.667  0.00  0.00    -0.217 OA
BRANCH  11  14
ATOM     14  C   UNL d   1     -51.199  25.644  33.684  0.00  0.00     0.088 A 
ATOM     15  C   UNL d   1     -51.970  25.898  33.534  0.00  0.00     0.013 A 
ATOM     16  C   UNL d   1     -52.568  25.345  33.410  0.00  0.00     0.025 A 
ATOM     17  C   UNL d   1     -52.396  24.527  33.437  0.00  0.00     0.094 A 
ATOM     18  C   UNL d   1     -51.614  24.284  33.590  0.00  0.00     0.025 A 
ATOM     19  C   UNL d   1     -51.023  24.838  33.712  0.00  0.00     0.013 A 
BRANCH  17  20
ATOM     20  O   UNL d   1     -52.997  23.969  33.313  0.00  0.00    -0.328 OA
ATOM     21  C   UNL d   1     -52.964  23.234  33.686  0.00  0.00     0.181 C 
ENDBRANCH  17  20
ENDBRANCH  11  14
ENDBRANCH   1  11
BRANCH   2  22
ATOM     22  N   UNL d   1     -50.373  26.882  35.306  0.00  0.00    -0.303 N 
ATOM     23  C   UNL d   1     -50.073  26.418  35.917  0.00  0.00     0.081 A 
ATOM     24  C   UNL d   1     -50.565  26.194  36.551  0.00  0.00     0.053 A 
ATOM     25  C   UNL d   1     -51.352  26.436  36.567  0.00  0.00     0.239 A 
ATOM     26  C   UNL d   1     -51.662  26.906  35.951  0.00  0.00     0.053 A 
ATOM     27  O   UNL d   1     -52.158  26.638  36.660  0.00  0.00    -0.298 OA
ATOM     28  O   UNL d   1     -51.135  25.977  37.214  0.00  0.00    -0.298 OA
ATOM     29  C   UNL d   1     -51.170  27.130  35.317  0.00  0.00     0.081 A 
ATOM     30  C   UNL d   1     -52.422  26.296  37.368  0.00  0.00     0.146 A 
ATOM     31  C   UNL d   1     -51.791  25.889  37.709  0.00  0.00     0.146 A 
ENDBRANCH   2  22
BRANCH   9  32
ATOM     32  O   UNL d   1     -48.480  28.880  36.408  0.00  0.00    -0.328 OA
ATOM     33  C   UNL d   1     -47.965  29.520  36.504  0.00  0.00     0.181 C 
ENDBRANCH   9  32
TORSDOF 5
ENDMDL
