MODEL 1
REMARK VINA RESULT:      -9.1      0.000      0.000
REMARK  4 active torsions:
REMARK  status: ('A' for Active; 'I' for Inactive)
REMARK    1  A    between atoms: C_11  and  C_9 
REMARK       I    between atoms: N_17  and  C_11 
REMARK    2  A    between atoms: C_19  and  N_17 
REMARK    3  A    between atoms: C_20  and  C_19 
REMARK    4  A    between atoms: C_21  and  C_20 
ROOT
ATOM      1  C   UNL d   1      52.192  34.280  53.620  0.00  0.00     0.081 A 
ATOM      2  C   UNL d   1      52.067  33.499  53.385  0.00  0.00     0.117 A 
ATOM      3  N   UNL d   1      52.621  32.918  53.587  0.00  0.00    -0.221 NA
ATOM      4  N   UNL d   1      53.412  33.899  54.251  0.00  0.00    -0.258 N 
ATOM      5  C   UNL d   1      53.294  33.117  54.019  0.00  0.00     0.151 A 
ATOM      6  C   UNL d   1      52.865  34.490  54.056  0.00  0.00     0.268 A 
ATOM      7  C   UNL d   1      51.556  34.732  53.344  0.00  0.00     0.018 A 
ATOM      8  S   UNL d   1      51.362  33.472  52.969  0.00  0.00    -0.063 SA
ATOM      9  C   UNL d   1      51.045  34.231  52.943  0.00  0.00     0.089 A 
ATOM     10  C   UNL d   1      53.835  32.544  54.215  0.00  0.00     0.035 A 
ATOM     11  C   UNL d   1      54.084  34.106  54.685  0.00  0.00     0.084 A 
ATOM     12  O   UNL d   1      52.985  35.264  54.287  0.00  0.00    -0.267 OA
ATOM     13  C   UNL d   1      54.627  33.516  54.878  0.00  0.00     0.019 A 
ATOM     14  C   UNL d   1      54.502  32.737  54.643  0.00  0.00     0.004 A 
ATOM     15  C   UNL d   1      53.707  31.764  53.978  0.00  0.00     0.003 C 
ENDROOT
BRANCH   9  16
ATOM     16  C   UNL d   1      50.339  34.454  52.579  0.00  0.00     0.285 C 
ATOM     17  O   UNL d   1      50.197  34.248  51.795  0.00  0.00    -0.265 OA
ATOM     18  N   UNL d   1      49.775  34.882  52.999  0.00  0.00    -0.206 NA
BRANCH  18  19
ATOM     19  C   UNL d   1      49.069  35.105  52.634  0.00  0.00     0.102 C 
BRANCH  19  20
ATOM     20  C   UNL d   1      48.537  35.580  53.023  0.00  0.00     0.021 C 
BRANCH  20  21
ATOM     21  C   UNL d   1      47.873  35.885  52.623  0.00  0.00     0.002 C 
ATOM     22  C   UNL d   1      47.344  36.377  53.007  0.00  0.00     0.000 C 
ENDBRANCH  20  21
ENDBRANCH  19  20
ENDBRANCH  18  19
ENDBRANCH   9  16
TORSDOF 4
ENDMDL
MODEL 2
REMARK VINA RESULT:      -7.7      2.169      4.744
REMARK  4 active torsions:
REMARK  status: ('A' for Active; 'I' for Inactive)
REMARK    1  A    between atoms: C_11  and  C_9 
REMARK       I    between atoms: N_17  and  C_11 
REMARK    2  A    between atoms: C_19  and  N_17 
REMARK    3  A    between atoms: C_20  and  C_19 
REMARK    4  A    between atoms: C_21  and  C_20 
ROOT
ATOM      1  C   UNL d   1      53.414  32.679  53.799  0.00  0.00     0.081 A 
ATOM      2  C   UNL d   1      52.737  32.705  53.327  0.00  0.00     0.117 A 
ATOM      3  N   UNL d   1      52.349  33.427  53.210  0.00  0.00    -0.221 NA
ATOM      4  N   UNL d   1      53.311  34.081  54.032  0.00  0.00    -0.258 N 
ATOM      5  C   UNL d   1      52.635  34.115  53.562  0.00  0.00     0.151 A 
ATOM      6  C   UNL d   1      53.709  33.366  54.157  0.00  0.00     0.268 A 
ATOM      7  C   UNL d   1      53.680  31.895  53.817  0.00  0.00     0.018 A 
ATOM      8  S   UNL d   1      52.590  31.946  53.058  0.00  0.00    -0.063 SA
ATOM      9  C   UNL d   1      53.170  31.445  53.358  0.00  0.00     0.089 A 
ATOM     10  C   UNL d   1      52.251  34.821  53.444  0.00  0.00     0.035 A 
ATOM     11  C   UNL d   1      53.603  34.768  54.388  0.00  0.00     0.084 A 
ATOM     12  O   UNL d   1      54.379  33.335  54.624  0.00  0.00    -0.267 OA
ATOM     13  C   UNL d   1      53.205  35.478  54.262  0.00  0.00     0.019 A 
ATOM     14  C   UNL d   1      52.530  35.505  53.790  0.00  0.00     0.004 A 
ATOM     15  C   UNL d   1      51.575  34.843  52.972  0.00  0.00     0.003 C 
ENDROOT
BRANCH   9  16
ATOM     16  C   UNL d   1      53.231  30.633  53.225  0.00  0.00     0.285 C 
ATOM     17  O   UNL d   1      53.242  30.341  52.455  0.00  0.00    -0.265 OA
ATOM     18  N   UNL d   1      53.283  30.113  53.861  0.00  0.00    -0.206 NA
BRANCH  18  19
ATOM     19  C   UNL d   1      53.344  29.301  53.728  0.00  0.00     0.102 C 
BRANCH  19  20
ATOM     20  C   UNL d   1      53.101  28.771  54.294  0.00  0.00     0.021 C 
BRANCH  20  21
ATOM     21  C   UNL d   1      53.640  28.480  54.859  0.00  0.00     0.002 C 
ATOM     22  C   UNL d   1      53.384  28.262  55.604  0.00  0.00     0.000 C 
ENDBRANCH  20  21
ENDBRANCH  19  20
ENDBRANCH  18  19
ENDBRANCH   9  16
TORSDOF 4
ENDMDL
MODEL 3
REMARK VINA RESULT:      -7.2      1.490      5.256
REMARK  4 active torsions:
REMARK  status: ('A' for Active; 'I' for Inactive)
REMARK    1  A    between atoms: C_11  and  C_9 
REMARK       I    between atoms: N_17  and  C_11 
REMARK    2  A    between atoms: C_19  and  N_17 
REMARK    3  A    between atoms: C_20  and  C_19 
REMARK    4  A    between atoms: C_21  and  C_20 
ROOT
ATOM      1  C   UNL d   1      49.862  34.524  52.161  0.00  0.00     0.081 A 
ATOM      2  C   UNL d   1      49.903  34.831  52.926  0.00  0.00     0.117 A 
ATOM      3  N   UNL d   1      49.284  35.301  53.210  0.00  0.00    -0.221 NA
ATOM      4  N   UNL d   1      48.597  35.151  51.972  0.00  0.00    -0.258 N 
ATOM      5  C   UNL d   1      48.630  35.462  52.735  0.00  0.00     0.151 A 
ATOM      6  C   UNL d   1      49.209  34.680  51.675  0.00  0.00     0.268 A 
ATOM      7  C   UNL d   1      50.549  34.082  52.028  0.00  0.00     0.018 A 
ATOM      8  S   UNL d   1      50.608  34.580  53.259  0.00  0.00    -0.063 SA
ATOM      9  C   UNL d   1      51.008  34.119  52.707  0.00  0.00     0.089 A 
ATOM     10  C   UNL d   1      48.025  35.923  53.019  0.00  0.00     0.035 A 
ATOM     11  C   UNL d   1      47.944  35.309  51.490  0.00  0.00     0.084 A 
ATOM     12  O   UNL d   1      49.172  34.374  50.918  0.00  0.00    -0.267 OA
ATOM     13  C   UNL d   1      47.336  35.778  51.788  0.00  0.00     0.019 A 
ATOM     14  C   UNL d   1      47.376  36.084  52.552  0.00  0.00     0.004 A 
ATOM     15  C   UNL d   1      48.069  36.228  53.784  0.00  0.00     0.003 C 
ENDROOT
BRANCH   9  16
ATOM     16  C   UNL d   1      51.740  33.755  52.814  0.00  0.00     0.285 C 
ATOM     17  O   UNL d   1      52.425  34.209  52.857  0.00  0.00    -0.265 OA
ATOM     18  N   UNL d   1      51.789  32.935  52.879  0.00  0.00    -0.206 NA
BRANCH  18  19
ATOM     19  C   UNL d   1      52.521  32.571  52.986  0.00  0.00     0.102 C 
BRANCH  19  20
ATOM     20  C   UNL d   1      52.587  31.762  52.957  0.00  0.00     0.021 C 
BRANCH  20  21
ATOM     21  C   UNL d   1      53.235  31.378  53.314  0.00  0.00     0.002 C 
ATOM     22  C   UNL d   1      53.297  30.562  53.298  0.00  0.00     0.000 C 
ENDBRANCH  20  21
ENDBRANCH  19  20
ENDBRANCH  18  19
ENDBRANCH   9  16
TORSDOF 4
ENDMDL
MODEL 4
REMARK VINA RESULT:      -6.7      1.152      5.011
REMARK  4 active torsions:
REMARK  status: ('A' for Active; 'I' for Inactive)
REMARK    1  A    between atoms: C_11  and  C_9 
REMARK       I    between atoms: N_17  and  C_11 
REMARK    2  A    between atoms: C_19  and  N_17 
REMARK    3  A    between atoms: C_20  and  C_19 
REMARK    4  A    between atoms: C_21  and  C_20 
ROOT
ATOM      1  C   UNL d   1      50.167  34.648  52.938  0.00  0.00     0.081 A 
ATOM      2  C   UNL d   1      50.152  34.272  52.204  0.00  0.00     0.117 A 
ATOM      3  N   UNL d   1      49.515  34.402  51.692  0.00  0.00    -0.221 NA
ATOM      4  N   UNL d   1      48.922  35.276  52.647  0.00  0.00    -0.258 N 
ATOM      5  C   UNL d   1      48.900  34.904  51.912  0.00  0.00     0.151 A 
ATOM      6  C   UNL d   1      49.552  35.154  53.169  0.00  0.00     0.268 A 
ATOM      7  C   UNL d   1      50.860  34.417  53.328  0.00  0.00     0.018 A 
ATOM      8  S   UNL d   1      50.829  33.815  52.143  0.00  0.00    -0.063 SA
ATOM      9  C   UNL d   1      51.267  33.903  52.834  0.00  0.00     0.089 A 
ATOM     10  C   UNL d   1      48.277  35.028  51.405  0.00  0.00     0.035 A 
ATOM     11  C   UNL d   1      48.307  35.781  52.874  0.00  0.00     0.084 A 
ATOM     12  O   UNL d   1      49.571  35.525  53.897  0.00  0.00    -0.267 OA
ATOM     13  C   UNL d   1      47.681  35.900  52.352  0.00  0.00     0.019 A 
ATOM     14  C   UNL d   1      47.665  35.524  51.619  0.00  0.00     0.004 A 
ATOM     15  C   UNL d   1      48.265  34.651  50.672  0.00  0.00     0.003 C 
ENDROOT
BRANCH   9  16
ATOM     16  C   UNL d   1      51.988  33.540  53.005  0.00  0.00     0.285 C 
ATOM     17  O   UNL d   1      52.300  32.979  52.491  0.00  0.00    -0.265 OA
ATOM     18  N   UNL d   1      52.398  33.740  53.692  0.00  0.00    -0.206 NA
BRANCH  18  19
ATOM     19  C   UNL d   1      53.119  33.377  53.863  0.00  0.00     0.102 C 
BRANCH  19  20
ATOM     20  C   UNL d   1      53.558  33.614  54.504  0.00  0.00     0.021 C 
BRANCH  20  21
ATOM     21  C   UNL d   1      54.207  33.161  54.762  0.00  0.00     0.002 C 
ATOM     22  C   UNL d   1      54.807  33.505  55.199  0.00  0.00     0.000 C 
ENDBRANCH  20  21
ENDBRANCH  19  20
ENDBRANCH  18  19
ENDBRANCH   9  16
TORSDOF 4
ENDMDL
MODEL 5
REMARK VINA RESULT:      -6.3      8.950     10.193
REMARK  4 active torsions:
REMARK  status: ('A' for Active; 'I' for Inactive)
REMARK    1  A    between atoms: C_11  and  C_9 
REMARK       I    between atoms: N_17  and  C_11 
REMARK    2  A    between atoms: C_19  and  N_17 
REMARK    3  A    between atoms: C_20  and  C_19 
REMARK    4  A    between atoms: C_21  and  C_20 
ROOT
ATOM      1  C   UNL d   1      44.878  29.335  56.666  0.00  0.00     0.081 A 
ATOM      2  C   UNL d   1      44.906  29.327  57.491  0.00  0.00     0.117 A 
ATOM      3  N   UNL d   1      44.799  30.033  57.910  0.00  0.00    -0.221 NA
ATOM      4  N   UNL d   1      44.639  30.740  56.684  0.00  0.00    -0.258 N 
ATOM      5  C   UNL d   1      44.666  30.740  57.508  0.00  0.00     0.151 A 
ATOM      6  C   UNL d   1      44.745  30.041  56.253  0.00  0.00     0.268 A 
ATOM      7  C   UNL d   1      45.001  28.561  56.400  0.00  0.00     0.018 A 
ATOM      8  S   UNL d   1      45.045  28.556  57.729  0.00  0.00    -0.063 SA
ATOM      9  C   UNL d   1      45.104  28.082  57.059  0.00  0.00     0.089 A 
ATOM     10  C   UNL d   1      44.562  31.430  57.923  0.00  0.00     0.035 A 
ATOM     11  C   UNL d   1      44.506  31.446  56.274  0.00  0.00     0.084 A 
ATOM     12  O   UNL d   1      44.718  30.045  55.436  0.00  0.00    -0.267 OA
ATOM     13  C   UNL d   1      44.402  32.140  56.706  0.00  0.00     0.019 A 
ATOM     14  C   UNL d   1      44.429  32.132  57.530  0.00  0.00     0.004 A 
ATOM     15  C   UNL d   1      44.590  31.418  58.748  0.00  0.00     0.003 C 
ENDROOT
BRANCH   9  16
ATOM     16  C   UNL d   1      45.242  27.269  57.046  0.00  0.00     0.285 C 
ATOM     17  O   UNL d   1      45.791  26.935  57.560  0.00  0.00    -0.265 OA
ATOM     18  N   UNL d   1      44.831  26.788  56.518  0.00  0.00    -0.206 NA
BRANCH  18  19
ATOM     19  C   UNL d   1      44.969  25.975  56.505  0.00  0.00     0.102 C 
BRANCH  19  20
ATOM     20  C   UNL d   1      44.504  25.485  56.054  0.00  0.00     0.021 C 
BRANCH  20  21
ATOM     21  C   UNL d   1      44.818  24.785  55.729  0.00  0.00     0.002 C 
ATOM     22  C   UNL d   1      44.352  24.119  55.645  0.00  0.00     0.000 C 
ENDBRANCH  20  21
ENDBRANCH  19  20
ENDBRANCH  18  19
ENDBRANCH   9  16
TORSDOF 4
ENDMDL
