MODEL 1
REMARK VINA RESULT:      -2.0      0.000      0.000
REMARK  4 active torsions:
REMARK  status: ('A' for Active; 'I' for Inactive)
REMARK    1  A    between atoms: N_6  and  S_1 
REMARK    2  A    between atoms: C_10  and  S_1 
REMARK    3  A    between atoms: S_2  and  C_11 
REMARK    4  A    between atoms: N_7  and  S_2 
REMARK       I    between atoms: C_14  and  N_6 
REMARK       I    between atoms: C_15  and  N_7 
ROOT
ATOM      1  C   UNL d   1      56.793   0.424  32.332  0.00  0.00     0.040 A 
ATOM      2  C   UNL d   1      57.759   0.368  31.421  0.00  0.00     0.040 A 
ATOM      3  C   UNL d   1      56.942   0.313  31.536  0.00  0.00     0.196 A 
ATOM      4  C   UNL d   1      58.102   0.513  32.153  0.00  0.00     0.003 A 
ATOM      5  C   UNL d   1      57.513   0.548  32.716  0.00  0.00     0.003 A 
ATOM      6  C   UNL d   1      56.105   0.557  33.582  0.00  0.00     0.105 A 
ATOM      7  C   UNL d   1      59.036   0.387  30.811  0.00  0.00     0.105 A 
ATOM      8  C   UNL d   1      56.080   0.429  32.774  0.00  0.00     0.016 A 
ATOM      9  C   UNL d   1      58.227   0.304  30.742  0.00  0.00     0.016 A 
ATOM     10  C   UNL d   1      58.920   0.595  32.214  0.00  0.00     0.001 A 
ATOM     11  C   UNL d   1      57.531   0.677  33.535  0.00  0.00     0.001 A 
ATOM     12  O   UNL d   1      56.383   0.171  30.942  0.00  0.00    -0.287 OA
ATOM     13  C   UNL d   1      59.393   0.532  31.541  0.00  0.00     0.013 A 
ATOM     14  C   UNL d   1      56.824   0.682  33.971  0.00  0.00     0.013 A 
ENDROOT
BRANCH   6  15
ATOM     15  S   UNL d   1      55.406   0.563  34.021  0.00  0.00     0.288 S 
ATOM     16  O   UNL d   1      55.851   0.471  34.712  0.00  0.00    -0.198 OA
ATOM     17  O   UNL d   1      54.951   0.656  33.335  0.00  0.00    -0.198 OA
BRANCH  15  18
ATOM     18  N   UNL d   1      54.704   0.567  34.484  0.00  0.00    -0.118 NA
ATOM     19  C   UNL d   1      53.969   0.623  34.110  0.00  0.00     0.289 C 
ATOM     20  O   UNL d   1      53.927   0.675  33.280  0.00  0.00    -0.265 OA
ATOM     21  C   UNL d   1      53.286   0.628  34.551  0.00  0.00     0.068 C 
ENDBRANCH  15  18
ENDBRANCH   6  15
BRANCH   7  22
ATOM     22  S   UNL d   1      59.504   0.323  30.132  0.00  0.00     0.288 S 
ATOM     23  O   UNL d   1      60.179   0.424  30.597  0.00  0.00    -0.198 OA
ATOM     24  O   UNL d   1      58.829   0.222  29.666  0.00  0.00    -0.198 OA
BRANCH  22  25
ATOM     25  N   UNL d   1      59.915   0.251  29.415  0.00  0.00    -0.118 NA
ATOM     26  C   UNL d   1      60.402  -0.399  29.286  0.00  0.00     0.289 C 
ATOM     27  O   UNL d   1      60.811  -0.468  28.568  0.00  0.00    -0.265 OA
ATOM     28  C   UNL d   1      60.484  -0.978  29.862  0.00  0.00     0.068 C 
ENDBRANCH  22  25
ENDBRANCH   7  22
TORSDOF 4
ENDMDL
MODEL 2
REMARK VINA RESULT:      -1.2     10.066     10.571
REMARK  4 active torsions:
REMARK  status: ('A' for Active; 'I' for Inactive)
REMARK    1  A    between atoms: N_6  and  S_1 
REMARK    2  A    between atoms: C_10  and  S_1 
REMARK    3  A    between atoms: S_2  and  C_11 
REMARK    4  A    between atoms: N_7  and  S_2 
REMARK       I    between atoms: C_14  and  N_6 
REMARK       I    between atoms: C_15  and  N_7 
ROOT
ATOM      1  C   UNL d   1      58.832  -9.408  32.367  0.00  0.00     0.040 A 
ATOM      2  C   UNL d   1      58.036  -9.508  31.307  0.00  0.00     0.040 A 
ATOM      3  C   UNL d   1      58.052  -9.385  32.125  0.00  0.00     0.196 A 
ATOM      4  C   UNL d   1      58.812  -9.606  31.058  0.00  0.00     0.003 A 
ATOM      5  C   UNL d   1      59.305  -9.545  31.705  0.00  0.00     0.003 A 
ATOM      6  C   UNL d   1      60.003  -9.373  33.194  0.00  0.00     0.105 A 
ATOM      7  C   UNL d   1      57.580  -9.674  29.978  0.00  0.00     0.105 A 
ATOM      8  C   UNL d   1      59.189  -9.321  33.121  0.00  0.00     0.016 A 
ATOM      9  C   UNL d   1      57.411  -9.541  30.766  0.00  0.00     0.016 A 
ATOM     10  C   UNL d   1      58.973  -9.739  30.260  0.00  0.00     0.001 A 
ATOM     11  C   UNL d   1      60.129  -9.597  31.784  0.00  0.00     0.001 A 
ATOM     12  O   UNL d   1      57.388  -9.260  32.603  0.00  0.00    -0.287 OA
ATOM     13  C   UNL d   1      58.355  -9.774  29.714  0.00  0.00     0.013 A 
ATOM     14  C   UNL d   1      60.480  -9.511  32.532  0.00  0.00     0.013 A 
ENDROOT
BRANCH   6  15
ATOM     15  S   UNL d   1      60.358  -9.288  33.933  0.00  0.00     0.288 S 
ATOM     16  O   UNL d   1      59.786  -9.790  34.256  0.00  0.00    -0.198 OA
ATOM     17  O   UNL d   1      60.937  -8.784  33.620  0.00  0.00    -0.198 OA
BRANCH  15  18
ATOM     18  N   UNL d   1      60.708  -9.213  34.694  0.00  0.00    -0.118 NA
ATOM     19  C   UNL d   1      60.540  -8.550  35.157  0.00  0.00     0.289 C 
ATOM     20  O   UNL d   1      60.026  -7.960  34.870  0.00  0.00    -0.265 OA
ATOM     21  C   UNL d   1      60.875  -8.470  35.894  0.00  0.00     0.068 C 
ENDBRANCH  15  18
ENDBRANCH   6  15
BRANCH   7  22
ATOM     22  S   UNL d   1      56.955  -9.708  29.437  0.00  0.00     0.288 S 
ATOM     23  O   UNL d   1      56.429  -9.818  30.063  0.00  0.00    -0.198 OA
ATOM     24  O   UNL d   1      57.481  -9.599  28.809  0.00  0.00    -0.198 OA
BRANCH  22  25
ATOM     25  N   UNL d   1      56.375  -9.733  28.845  0.00  0.00    -0.118 NA
ATOM     26  C   UNL d   1      55.579  -9.730  29.051  0.00  0.00     0.289 C 
ATOM     27  O   UNL d   1      55.002  -9.755  28.457  0.00  0.00    -0.265 OA
ATOM     28  C   UNL d   1      55.354  -9.703  29.840  0.00  0.00     0.068 C 
ENDBRANCH  22  25
ENDBRANCH   7  22
TORSDOF 4
ENDMDL
