MODEL 1
REMARK VINA RESULT:      54.5      0.000      0.000
REMARK  3 active torsions:
REMARK  status: ('A' for Active; 'I' for Inactive)
REMARK    1  A    between atoms: C_2  and  C_1 
REMARK       I    between atoms: N_8  and  C_2 
REMARK    2  A    between atoms: C_12  and  C_4 
REMARK    3  A    between atoms: C_9  and  N_8 
ROOT
ATOM      1  C   UNL d   1      57.558  49.373  51.233  0.00  0.00     0.106 A 
ATOM      2  C   UNL d   1      57.911  49.540  52.033  0.00  0.00     0.093 A 
ATOM      3  C   UNL d   1      56.856  49.229  51.126  0.00  0.00     0.093 A 
ATOM      4  C   UNL d   1      56.582  49.352  52.507  0.00  0.00     0.369 A 
ATOM      5  N   UNL d   1      57.383  49.519  52.649  0.00  0.00    -0.191 NA
ATOM      6  N   UNL d   1      56.320  49.207  51.746  0.00  0.00    -0.191 NA
ATOM      7  O   UNL d   1      56.050  49.333  53.141  0.00  0.00    -0.242 OA
ATOM      8  C   UNL d   1      58.707  49.700  52.128  0.00  0.00     0.021 C 
ENDROOT
BRANCH   1   9
ATOM      9  C   UNL d   1      58.058  49.384  50.582  0.00  0.00     0.331 C 
ATOM     10  N   UNL d   1      58.869  49.360  50.681  0.00  0.00    -0.365 NA
ATOM     11  O   UNL d   1      57.738  49.418  49.826  0.00  0.00    -0.251 OA
BRANCH  10  12
ATOM     12  C   UNL d   1      59.729  49.335  50.815  0.00  0.00     0.135 A 
ATOM     13  C   UNL d   1      60.294  49.503  50.160  0.00  0.00     0.030 A 
ATOM     14  C   UNL d   1      59.977  49.699  49.360  0.00  0.00     0.003 C 
ATOM     15  C   UNL d   1      61.146  49.477  50.293  0.00  0.00     0.003 A 
ATOM     16  C   UNL d   1      61.466  49.282  51.091  0.00  0.00     0.000 A 
ATOM     17  C   UNL d   1      60.909  49.114  51.745  0.00  0.00     0.003 A 
ATOM     18  C   UNL d   1      60.044  49.139  51.611  0.00  0.00     0.032 A 
ENDBRANCH  10  12
ENDBRANCH   1   9
BRANCH   3  19
ATOM     19  C   UNL d   1      56.596  49.084  50.362  0.00  0.00     0.018 A 
ATOM     20  C   UNL d   1      56.632  48.323  50.044  0.00  0.00     0.002 A 
ATOM     21  C   UNL d   1      56.370  48.191  49.281  0.00  0.00     0.000 A 
ATOM     22  C   UNL d   1      56.072  48.809  48.832  0.00  0.00     0.000 A 
ATOM     23  C   UNL d   1      56.037  49.560  49.146  0.00  0.00     0.000 A 
ATOM     24  C   UNL d   1      56.295  49.706  49.905  0.00  0.00     0.002 A 
ENDBRANCH   3  19
TORSDOF 3
ENDMDL
