MODEL 1
REMARK VINA RESULT:      79.2      0.000      0.000
REMARK  10 active torsions:
REMARK  status: ('A' for Active; 'I' for Inactive)
REMARK    1  A    between atoms: N_2  and  S_1 
REMARK    2  A    between atoms: C_12  and  S_1 
REMARK    3  A    between atoms: C_4  and  N_2 
REMARK    4  A    between atoms: O_22  and  C_6 
REMARK    5  A    between atoms: C_7  and  N_15 
REMARK    6  A    between atoms: N_8  and  C_7 
REMARK       I    between atoms: C_10  and  N_8 
REMARK    7  A    between atoms: O_23  and  C_9 
REMARK    8  A    between atoms: C_20  and  C_10 
REMARK    9  A    between atoms: N_15  and  C_21 
REMARK   10  A    between atoms: C_26  and  C_20 
ROOT
ATOM      1  C   UNL d   1      60.136  48.534  50.733  0.00  0.00     0.105 A 
ATOM      2  C   UNL d   1      59.909  47.947  50.223  0.00  0.00     0.015 A 
ATOM      3  C   UNL d   1      60.918  48.602  50.953  0.00  0.00     0.015 A 
ATOM      4  C   UNL d   1      61.252  47.486  50.149  0.00  0.00     0.084 A 
ATOM      5  C   UNL d   1      60.444  47.412  49.918  0.00  0.00     0.020 A 
ATOM      6  C   UNL d   1      61.467  48.079  50.660  0.00  0.00     0.020 A 
ENDROOT
BRANCH   1   7
ATOM      7  S   UNL d   1      59.572  49.085  51.045  0.00  0.00     0.287 S 
ATOM      8  O   UNL d   1      59.949  49.695  50.613  0.00  0.00    -0.198 OA
ATOM      9  O   UNL d   1      59.206  48.475  51.470  0.00  0.00    -0.198 OA
BRANCH   7  10
ATOM     10  N   UNL d   1      59.024  49.640  51.345  0.00  0.00    -0.139 NA
BRANCH  10  11
ATOM     11  C   UNL d   1      58.236  49.662  51.059  0.00  0.00     0.182 A 
ATOM     12  N   UNL d   1      57.631  49.674  51.572  0.00  0.00    -0.185 NA
ATOM     13  C   UNL d   1      56.840  49.695  51.318  0.00  0.00     0.274 A 
ATOM     14  N   UNL d   1      56.686  49.705  50.518  0.00  0.00    -0.181 NA
ATOM     15  C   UNL d   1      57.280  49.694  49.973  0.00  0.00     0.185 A 
ATOM     16  C   UNL d   1      58.107  49.671  50.258  0.00  0.00     0.084 A 
BRANCH  13  17
ATOM     17  O   UNL d   1      56.202  49.708  51.855  0.00  0.00    -0.297 OA
ATOM     18  C   UNL d   1      56.094  49.098  52.407  0.00  0.00     0.185 C 
ENDBRANCH  13  17
BRANCH  15  19
ATOM     19  O   UNL d   1      57.091  49.704  49.164  0.00  0.00    -0.312 OA
ATOM     20  C   UNL d   1      56.696  49.056  48.835  0.00  0.00     0.183 C 
ENDBRANCH  15  19
ENDBRANCH  10  11
ENDBRANCH   7  10
ENDBRANCH   1   7
BRANCH   4  21
ATOM     21  N   UNL d   1      61.832  46.959  49.858  0.00  0.00    -0.217 NA
BRANCH  21  22
ATOM     22  C   UNL d   1      61.621  46.170  49.745  0.00  0.00     0.223 C 
ATOM     23  S   UNL d   1      61.853  45.756  49.065  0.00  0.00    -0.037 SA
BRANCH  22  24
ATOM     24  N   UNL d   1      61.172  45.787  50.321  0.00  0.00    -0.179 NA
ATOM     25  C   UNL d   1      61.314  44.989  50.508  0.00  0.00     0.281 C 
ATOM     26  O   UNL d   1      61.913  44.577  50.112  0.00  0.00    -0.265 OA
BRANCH  25  27
ATOM     27  C   UNL d   1      60.863  44.609  51.085  0.00  0.00     0.063 C 
BRANCH  27  28
ATOM     28  C   UNL d   1      61.192  44.021  51.563  0.00  0.00     0.005 C 
ATOM     29  C   UNL d   1      61.161  43.203  51.347  0.00  0.00     0.000 C 
ATOM     30  C   UNL d   1      61.558  44.237  52.266  0.00  0.00     0.000 C 
ENDBRANCH  27  28
ENDBRANCH  25  27
ENDBRANCH  22  24
ENDBRANCH  21  22
ENDBRANCH   4  21
TORSDOF 10
ENDMDL
MODEL 2
REMARK VINA RESULT:      82.2      1.139      1.791
REMARK  10 active torsions:
REMARK  status: ('A' for Active; 'I' for Inactive)
REMARK    1  A    between atoms: N_2  and  S_1 
REMARK    2  A    between atoms: C_12  and  S_1 
REMARK    3  A    between atoms: C_4  and  N_2 
REMARK    4  A    between atoms: O_22  and  C_6 
REMARK    5  A    between atoms: C_7  and  N_15 
REMARK    6  A    between atoms: N_8  and  C_7 
REMARK       I    between atoms: C_10  and  N_8 
REMARK    7  A    between atoms: O_23  and  C_9 
REMARK    8  A    between atoms: C_20  and  C_10 
REMARK    9  A    between atoms: N_15  and  C_21 
REMARK   10  A    between atoms: C_26  and  C_20 
ROOT
ATOM      1  C   UNL d   1      60.433  48.394  50.724  0.00  0.00     0.105 A 
ATOM      2  C   UNL d   1      61.139  48.491  50.340  0.00  0.00     0.015 A 
ATOM      3  C   UNL d   1      60.212  47.655  50.989  0.00  0.00     0.015 A 
ATOM      4  C   UNL d   1      61.411  47.102  50.481  0.00  0.00     0.084 A 
ATOM      5  C   UNL d   1      61.645  47.865  50.205  0.00  0.00     0.020 A 
ATOM      6  C   UNL d   1      60.702  47.018  50.865  0.00  0.00     0.020 A 
ENDROOT
BRANCH   1   7
ATOM      7  S   UNL d   1      59.914  49.051  50.859  0.00  0.00     0.287 S 
ATOM      8  O   UNL d   1      60.225  49.420  50.175  0.00  0.00    -0.198 OA
ATOM      9  O   UNL d   1      59.613  48.678  51.535  0.00  0.00    -0.198 OA
BRANCH   7  10
ATOM     10  N   UNL d   1      59.409  49.706  50.978  0.00  0.00    -0.139 NA
BRANCH  10  11
ATOM     11  C   UNL d   1      58.593  49.658  50.794  0.00  0.00     0.182 A 
ATOM     12  N   UNL d   1      58.361  49.608  50.037  0.00  0.00    -0.185 NA
ATOM     13  C   UNL d   1      57.559  49.559  49.825  0.00  0.00     0.274 A 
ATOM     14  N   UNL d   1      56.997  49.562  50.415  0.00  0.00    -0.181 NA
ATOM     15  C   UNL d   1      57.202  49.612  51.193  0.00  0.00     0.185 A 
ATOM     16  C   UNL d   1      58.051  49.663  51.399  0.00  0.00     0.084 A 
BRANCH  13  17
ATOM     17  O   UNL d   1      57.314  49.506  49.030  0.00  0.00    -0.297 OA
ATOM     18  C   UNL d   1      56.573  49.190  48.829  0.00  0.00     0.185 C 
ENDBRANCH  13  17
BRANCH  15  19
ATOM     19  O   UNL d   1      56.606  49.613  51.772  0.00  0.00    -0.312 OA
ATOM     20  C   UNL d   1      56.078  48.978  51.807  0.00  0.00     0.183 C 
ENDBRANCH  15  19
ENDBRANCH  10  11
ENDBRANCH   7  10
ENDBRANCH   1   7
BRANCH   4  21
ATOM     21  N   UNL d   1      61.901  46.435  50.364  0.00  0.00    -0.217 NA
BRANCH  21  22
ATOM     22  C   UNL d   1      61.677  45.882  49.794  0.00  0.00     0.223 C 
ATOM     23  S   UNL d   1      62.241  45.496  49.324  0.00  0.00    -0.037 SA
BRANCH  22  24
ATOM     24  N   UNL d   1      60.877  45.709  49.693  0.00  0.00    -0.179 NA
ATOM     25  C   UNL d   1      60.638  45.072  49.215  0.00  0.00     0.281 C 
ATOM     26  O   UNL d   1      61.211  44.607  48.839  0.00  0.00    -0.265 OA
BRANCH  25  27
ATOM     27  C   UNL d   1      59.837  44.902  49.115  0.00  0.00     0.063 C 
BRANCH  27  28
ATOM     28  C   UNL d   1      59.531  44.162  49.318  0.00  0.00     0.005 C 
ATOM     29  C   UNL d   1      58.873  44.083  49.844  0.00  0.00     0.000 C 
ATOM     30  C   UNL d   1      59.875  43.487  49.000  0.00  0.00     0.000 C 
ENDBRANCH  27  28
ENDBRANCH  25  27
ENDBRANCH  22  24
ENDBRANCH  21  22
ENDBRANCH   4  21
TORSDOF 10
ENDMDL
