MODEL 1
REMARK VINA RESULT:      -7.1      0.000      0.000
REMARK  5 active torsions:
REMARK  status: ('A' for Active; 'I' for Inactive)
REMARK    1  A    between atoms: C_11  and  C_4 
REMARK    2  A    between atoms: N_10  and  C_5 
REMARK    3  A    between atoms: C_12  and  C_8 
REMARK    4  A    between atoms: C_16  and  N_10 
REMARK    5  A    between atoms: C_17  and  C_16 
ROOT
ATOM      1  C   UNL d   1     -48.049  12.405  23.122  0.00  0.00     0.167 A 
ATOM      2  N   UNL d   1     -47.493  11.848  23.386  0.00  0.00    -0.195 N 
ATOM      3  N   UNL d   1     -47.801  13.147  22.914  0.00  0.00    -0.231 NA
ATOM      4  C   UNL d   1     -48.824  12.203  23.076  0.00  0.00     0.057 A 
ATOM      5  C   UNL d   1     -46.716  12.060  23.428  0.00  0.00     0.167 A 
ATOM      6  N   UNL d   1     -48.512  10.913  23.545  0.00  0.00    -0.161 NA
ATOM      7  C   UNL d   1     -46.464  12.804  23.221  0.00  0.00     0.054 A 
ATOM      8  C   UNL d   1     -47.017  13.357  22.959  0.00  0.00     0.063 A 
ATOM      9  C   UNL d   1     -49.056  11.458  23.287  0.00  0.00     0.124 A 
ENDROOT
BRANCH   5  10
ATOM     10  N   UNL d   1     -46.149  11.493  23.697  0.00  0.00    -0.224 NA
BRANCH  10  11
ATOM     11  C   UNL d   1     -45.858  10.720  23.534  0.00  0.00     0.120 C 
BRANCH  11  12
ATOM     12  C   UNL d   1     -45.034  10.568  23.512  0.00  0.00     0.101 A 
ATOM     13  N   UNL d   1     -44.492  11.188  23.305  0.00  0.00    -0.242 NA
ATOM     14  C   UNL d   1     -43.662  11.028  23.285  0.00  0.00     0.099 A 
ATOM     15  C   UNL d   1     -43.372  10.254  23.470  0.00  0.00     0.021 A 
ATOM     16  C   UNL d   1     -43.923   9.637  23.678  0.00  0.00     0.003 A 
ATOM     17  C   UNL d   1     -44.745   9.797  23.698  0.00  0.00     0.021 A 
ENDBRANCH  11  12
ENDBRANCH  10  11
ENDBRANCH   5  10
BRANCH   8  18
ATOM     18  C   UNL d   1     -46.765  14.138  22.739  0.00  0.00     0.036 C 
ATOM     19  C   UNL d   1     -46.518  14.913  22.525  0.00  0.00     0.006 C 
ATOM     20  C   UNL d   1     -46.312  14.252  22.031  0.00  0.00     0.006 C 
ATOM     21  C   UNL d   1     -46.971  14.799  23.234  0.00  0.00     0.006 C 
ENDBRANCH   8  18
BRANCH   4  22
ATOM     22  C   UNL d   1     -49.368  12.748  22.818  0.00  0.00     0.005 A 
ATOM     23  C   UNL d   1     -49.762  13.224  23.353  0.00  0.00     0.001 A 
ATOM     24  C   UNL d   1     -50.297  13.760  23.099  0.00  0.00     0.011 A 
ATOM     25  C   UNL d   1     -50.462  13.844  22.299  0.00  0.00     0.058 A 
ATOM     26  C   UNL d   1     -50.079  13.380  21.768  0.00  0.00     0.011 A 
ATOM     27 CL   UNL d   1     -51.026  14.409  22.031  0.00  0.00    -0.082 Cl
ATOM     28  C   UNL d   1     -49.529  12.829  22.029  0.00  0.00     0.001 A 
ENDBRANCH   4  22
TORSDOF 5
ENDMDL
MODEL 2
REMARK VINA RESULT:      -5.1      1.595      2.146
REMARK  5 active torsions:
REMARK  status: ('A' for Active; 'I' for Inactive)
REMARK    1  A    between atoms: C_11  and  C_4 
REMARK    2  A    between atoms: N_10  and  C_5 
REMARK    3  A    between atoms: C_12  and  C_8 
REMARK    4  A    between atoms: C_16  and  N_10 
REMARK    5  A    between atoms: C_17  and  C_16 
ROOT
ATOM      1  C   UNL d   1     -47.394  12.611  22.612  0.00  0.00     0.167 A 
ATOM      2  N   UNL d   1     -46.573  12.570  22.500  0.00  0.00    -0.195 N 
ATOM      3  N   UNL d   1     -47.770  13.326  22.555  0.00  0.00    -0.231 NA
ATOM      4  C   UNL d   1     -47.808  11.943  22.774  0.00  0.00     0.057 A 
ATOM      5  C   UNL d   1     -46.167  13.247  22.337  0.00  0.00     0.167 A 
ATOM      6  N   UNL d   1     -46.616  11.196  22.718  0.00  0.00    -0.161 NA
ATOM      7  C   UNL d   1     -46.539  13.966  22.279  0.00  0.00     0.054 A 
ATOM      8  C   UNL d   1     -47.355  14.007  22.391  0.00  0.00     0.063 A 
ATOM      9  C   UNL d   1     -47.420  11.236  22.827  0.00  0.00     0.124 A 
ENDROOT
BRANCH   5  10
ATOM     10  N   UNL d   1     -45.329  13.205  22.223  0.00  0.00    -0.224 NA
BRANCH  10  11
ATOM     11  C   UNL d   1     -44.734  13.321  21.639  0.00  0.00     0.120 C 
BRANCH  11  12
ATOM     12  C   UNL d   1     -43.978  12.970  21.721  0.00  0.00     0.101 A 
ATOM     13  N   UNL d   1     -43.883  12.270  22.193  0.00  0.00    -0.242 NA
ATOM     14  C   UNL d   1     -43.117  11.920  22.272  0.00  0.00     0.099 A 
ATOM     15  C   UNL d   1     -42.448  12.265  21.884  0.00  0.00     0.021 A 
ATOM     16  C   UNL d   1     -42.552  12.968  21.412  0.00  0.00     0.003 A 
ATOM     17  C   UNL d   1     -43.311  13.313  21.334  0.00  0.00     0.021 A 
ENDBRANCH  11  12
ENDBRANCH  10  11
ENDBRANCH   5  10
BRANCH   8  18
ATOM     18  C   UNL d   1     -47.756  14.753  22.333  0.00  0.00     0.036 C 
ATOM     19  C   UNL d   1     -48.153  15.492  22.272  0.00  0.00     0.006 C 
ATOM     20  C   UNL d   1     -47.790  15.268  23.006  0.00  0.00     0.006 C 
ATOM     21  C   UNL d   1     -48.120  14.977  21.597  0.00  0.00     0.006 C 
ENDBRANCH   8  18
BRANCH   4  22
ATOM     22  C   UNL d   1     -48.612  11.983  22.884  0.00  0.00     0.005 A 
ATOM     23  C   UNL d   1     -48.920  12.254  23.590  0.00  0.00     0.001 A 
ATOM     24  C   UNL d   1     -49.710  12.293  23.698  0.00  0.00     0.011 A 
ATOM     25  C   UNL d   1     -50.228  12.063  23.104  0.00  0.00     0.058 A 
ATOM     26  C   UNL d   1     -49.933  11.795  22.407  0.00  0.00     0.011 A 
ATOM     27 CL   UNL d   1     -51.061  12.104  23.217  0.00  0.00    -0.082 Cl
ATOM     28  C   UNL d   1     -49.121  11.755  22.297  0.00  0.00     0.001 A 
ENDBRANCH   4  22
TORSDOF 5
ENDMDL
