MODEL 1
REMARK VINA RESULT:      51.2      0.000      0.000
REMARK  3 active torsions:
REMARK  status: ('A' for Active; 'I' for Inactive)
REMARK    1  A    between atoms: C_6  and  C_1 
REMARK    2  A    between atoms: C_10  and  C_3 
REMARK    3  A    between atoms: C_8  and  N_4 
REMARK       I    between atoms: N_7  and  C_6 
ROOT
ATOM      1  C   UNL d   1     -58.213 -98.779 -44.564  0.00  0.00     0.095 A 
ATOM      2  N   UNL d   1     -59.636 -98.789 -44.658  0.00  0.00    -0.165 NA
ATOM      3  C   UNL d   1     -58.954 -98.787 -44.204  0.00  0.00     0.107 A 
ATOM      4  N   UNL d   1     -58.849 -98.774 -45.849  0.00  0.00    -0.228 N 
ATOM      5  C   UNL d   1     -58.168 -98.772 -45.386  0.00  0.00     0.107 A 
ENDROOT
BRANCH   1   6
ATOM      6  C   UNL d   1     -57.531 -98.777 -44.100  0.00  0.00     0.268 C 
ATOM      7  N   UNL d   1     -56.762 -98.774 -44.481  0.00  0.00    -0.272 N 
ATOM      8  C   UNL d   1     -56.051 -98.772 -44.009  0.00  0.00     0.083 A 
ATOM      9  C   UNL d   1     -56.707 -98.773 -45.333  0.00  0.00     0.083 A 
ATOM     10  C   UNL d   1     -55.286 -98.769 -44.387  0.00  0.00     0.019 A 
ATOM     11  C   UNL d   1     -55.237 -98.768 -45.236  0.00  0.00     0.003 A 
ATOM     12  C   UNL d   1     -55.942 -98.770 -45.712  0.00  0.00     0.019 A 
ATOM     13  O   UNL d   1     -57.581 -98.777 -43.289  0.00  0.00    -0.267 OA
ENDBRANCH   1   6
BRANCH   3  14
ATOM     14  C   UNL d   1     -59.009 -98.794 -43.379  0.00  0.00     0.023 A 
ATOM     15  C   UNL d   1     -58.321 -98.835 -42.925  0.00  0.00     0.022 A 
ATOM     16  C   UNL d   1     -58.382 -98.841 -42.104  0.00  0.00     0.099 A 
ATOM     17  N   UNL d   1     -59.122 -98.806 -41.739  0.00  0.00    -0.242 NA
ATOM     18  C   UNL d   1     -59.804 -98.764 -42.200  0.00  0.00     0.099 A 
ATOM     19  C   UNL d   1     -59.746 -98.758 -43.020  0.00  0.00     0.022 A 
ENDBRANCH   3  14
BRANCH   4  20
ATOM     20  C   UNL d   1     -59.008 -98.770 -46.654  0.00  0.00     0.083 A 
ATOM     21  C   UNL d   1     -59.782 -98.772 -46.919  0.00  0.00     0.019 A 
ATOM     22  C   UNL d   1     -59.940 -98.768 -47.725  0.00  0.00     0.002 A 
ATOM     23  C   UNL d   1     -59.319 -98.761 -48.271  0.00  0.00     0.000 A 
ATOM     24  C   UNL d   1     -58.535 -98.758 -48.001  0.00  0.00     0.002 A 
ATOM     25  C   UNL d   1     -58.378 -98.763 -47.189  0.00  0.00     0.019 A 
ENDBRANCH   4  20
TORSDOF 3
ENDMDL
