MODEL 1
REMARK VINA RESULT:      -5.2      0.000      0.000
REMARK  5 active torsions:
REMARK  status: ('A' for Active; 'I' for Inactive)
REMARK    1  A    between atoms: N_2  and  C_1 
REMARK    2  A    between atoms: C_8  and  C_5 
REMARK    3  A    between atoms: C_6  and  C_9 
REMARK       I    between atoms: N_12  and  C_6 
REMARK    4  A    between atoms: C_9  and  C_8 
REMARK    5  A    between atoms: C_13  and  N_12 
ROOT
ATOM      1  C   UNL d   1     -41.568-123.095 -52.069  0.00  0.00     0.279 C 
ATOM      2  N   UNL d   1     -41.368-122.487 -52.581  0.00  0.00    -0.208 NA
ATOM      3  O   UNL d   1     -41.883-123.817 -52.365  0.00  0.00    -0.265 OA
ENDROOT
BRANCH   1   4
ATOM      4  C   UNL d   1     -41.461-123.005 -51.256  0.00  0.00     0.063 C 
BRANCH   4   5
ATOM      5  C   UNL d   1     -41.720-123.616 -50.747  0.00  0.00     0.011 C 
BRANCH   5   6
ATOM      6  C   UNL d   1     -41.771-123.460 -49.927  0.00  0.00     0.031 A 
ATOM      7  S   UNL d   1     -42.361-123.126 -49.463  0.00  0.00    -0.064 SA
ATOM      8  C   UNL d   1     -42.087-123.122 -48.705  0.00  0.00     0.156 A 
ATOM      9  C   UNL d   1     -41.330-123.450 -48.685  0.00  0.00     0.031 A 
ATOM     10  C   UNL d   1     -41.123-123.662 -49.432  0.00  0.00     0.009 A 
BRANCH   8  11
ATOM     11  N   UNL d   1     -42.503-122.832 -48.038  0.00  0.00    -0.107 N 
ATOM     12  O   UNL d   1     -43.157-122.358 -48.141  0.00  0.00    -0.531 OA
ATOM     13  O   UNL d   1     -42.243-123.031 -47.273  0.00  0.00    -0.531 OA
ENDBRANCH   8  11
ENDBRANCH   5   6
ENDBRANCH   4   5
ENDBRANCH   1   4
BRANCH   2  14
ATOM     14  C   UNL d   1     -41.474-122.577 -53.387  0.00  0.00     0.085 A 
ATOM     15  C   UNL d   1     -41.930-122.039 -53.812  0.00  0.00     0.019 A 
ATOM     16  C   UNL d   1     -42.035-122.128 -54.615  0.00  0.00     0.002 A 
ATOM     17  C   UNL d   1     -42.505-121.569 -55.037  0.00  0.00     0.000 C 
ATOM     18  C   UNL d   1     -41.687-122.758 -55.012  0.00  0.00     0.000 A 
ATOM     19  C   UNL d   1     -41.230-123.299 -54.590  0.00  0.00     0.002 A 
ATOM     20  C   UNL d   1     -41.125-123.209 -53.788  0.00  0.00     0.019 A 
ENDBRANCH   2  14
TORSDOF 5
ENDMDL
MODEL 2
REMARK VINA RESULT:      -2.9      1.691      5.256
REMARK  5 active torsions:
REMARK  status: ('A' for Active; 'I' for Inactive)
REMARK    1  A    between atoms: N_2  and  C_1 
REMARK    2  A    between atoms: C_8  and  C_5 
REMARK    3  A    between atoms: C_6  and  C_9 
REMARK       I    between atoms: N_12  and  C_6 
REMARK    4  A    between atoms: C_9  and  C_8 
REMARK    5  A    between atoms: C_13  and  N_12 
ROOT
ATOM      1  C   UNL d   1     -41.745-122.702 -50.411  0.00  0.00     0.279 C 
ATOM      2  N   UNL d   1     -41.540-123.352 -49.954  0.00  0.00    -0.208 NA
ATOM      3  O   UNL d   1     -42.249-122.104 -50.100  0.00  0.00    -0.265 OA
ENDROOT
BRANCH   1   4
ATOM      4  C   UNL d   1     -41.459-122.630 -51.181  0.00  0.00     0.063 C 
BRANCH   4   5
ATOM      5  C   UNL d   1     -41.828-123.069 -51.789  0.00  0.00     0.011 C 
BRANCH   5   6
ATOM      6  C   UNL d   1     -41.636-122.893 -52.584  0.00  0.00     0.031 A 
ATOM      7  S   UNL d   1     -41.766-123.299 -53.287  0.00  0.00    -0.064 SA
ATOM      8  C   UNL d   1     -41.453-122.848 -53.876  0.00  0.00     0.156 A 
ATOM      9  C   UNL d   1     -41.126-122.162 -53.554  0.00  0.00     0.031 A 
ATOM     10  C   UNL d   1     -41.233-122.177 -52.757  0.00  0.00     0.009 A 
BRANCH   8  11
ATOM     11  N   UNL d   1     -41.455-123.041 -54.692  0.00  0.00    -0.107 N 
ATOM     12  O   UNL d   1     -41.770-122.520 -55.232  0.00  0.00    -0.531 OA
ATOM     13  O   UNL d   1     -41.136-123.766 -54.944  0.00  0.00    -0.531 OA
ENDBRANCH   8  11
ENDBRANCH   5   6
ENDBRANCH   4   5
ENDBRANCH   1   4
BRANCH   2  14
ATOM     14  C   UNL d   1     -41.824-123.424 -49.191  0.00  0.00     0.085 A 
ATOM     15  C   UNL d   1     -41.344-123.245 -48.546  0.00  0.00     0.019 A 
ATOM     16  C   UNL d   1     -41.626-123.317 -47.786  0.00  0.00     0.002 A 
ATOM     17  C   UNL d   1     -41.123-123.130 -47.136  0.00  0.00     0.000 C 
ATOM     18  C   UNL d   1     -42.397-123.569 -47.651  0.00  0.00     0.000 A 
ATOM     19  C   UNL d   1     -42.881-123.750 -48.294  0.00  0.00     0.002 A 
ATOM     20  C   UNL d   1     -42.598-123.678 -49.054  0.00  0.00     0.019 A 
ENDBRANCH   2  14
TORSDOF 5
ENDMDL
