MODEL 1
REMARK VINA RESULT:      -9.3      0.000      0.000
REMARK  5 active torsions:
REMARK  status: ('A' for Active; 'I' for Inactive)
REMARK    1  A    between atoms: C_5  and  C_18 
REMARK       I    between atoms: N_9  and  C_5 
REMARK    2  A    between atoms: S_12  and  C_6 
REMARK    3  A    between atoms: C_15  and  C_7 
REMARK    4  A    between atoms: C_10  and  N_9 
REMARK    5  A    between atoms: C_18  and  S_12 
ROOT
ATOM      1  C   UNL d   1      49.872  34.926  53.140  0.00  0.00     0.099 C 
ENDROOT
BRANCH   1   2
ATOM      2  C   UNL d   1      49.112  35.144  52.874  0.00  0.00     0.286 C 
ATOM      3  N   UNL d   1      48.713  35.756  53.238  0.00  0.00    -0.207 NA
ATOM      4  O   UNL d   1      48.772  34.743  52.250  0.00  0.00    -0.265 OA
BRANCH   3   5
ATOM      5  C   UNL d   1      47.974  35.966  52.978  0.00  0.00     0.087 A 
ATOM      6  C   UNL d   1      47.322  35.878  53.476  0.00  0.00     0.046 A 
ATOM      7  C   UNL d   1      46.571  36.091  53.215  0.00  0.00     0.124 A 
ATOM      8  O   UNL d   1      45.915  36.008  53.701  0.00  0.00    -0.301 OA
ATOM      9  C   UNL d   1      46.476  36.396  52.442  0.00  0.00     0.123 A 
ATOM     10  C   UNL d   1      45.164  36.226  53.425  0.00  0.00     0.149 A 
ATOM     11  C   UNL d   1      45.074  36.528  52.658  0.00  0.00     0.149 A 
ATOM     12  O   UNL d   1      45.733  36.611  52.169  0.00  0.00    -0.301 OA
ATOM     13  C   UNL d   1      47.140  36.476  51.958  0.00  0.00     0.028 A 
ATOM     14  C   UNL d   1      47.873  36.265  52.224  0.00  0.00     0.021 A 
ENDBRANCH   3   5
ENDBRANCH   1   2
BRANCH   1  15
ATOM     15  S   UNL d   1      50.311  34.367  52.725  0.00  0.00    -0.061 SA
BRANCH  15  16
ATOM     16  C   UNL d   1      51.043  34.134  53.002  0.00  0.00     0.133 A 
ATOM     17  N   UNL d   1      51.121  33.428  53.419  0.00  0.00    -0.141 NA
ATOM     18  N   UNL d   1      51.858  33.190  53.700  0.00  0.00    -0.148 NA
ATOM     19  C   UNL d   1      52.522  33.662  53.561  0.00  0.00     0.103 A 
ATOM     20  C   UNL d   1      52.452  34.366  53.147  0.00  0.00     0.023 A 
ATOM     21  C   UNL d   1      51.719  34.607  52.865  0.00  0.00     0.029 A 
BRANCH  19  22
ATOM     22  C   UNL d   1      53.260  33.423  53.842  0.00  0.00     0.019 A 
ATOM     23  C   UNL d   1      53.523  33.676  54.589  0.00  0.00     0.002 A 
ATOM     24  C   UNL d   1      54.265  33.436  54.870  0.00  0.00     0.000 A 
ATOM     25  C   UNL d   1      54.746  32.942  54.408  0.00  0.00     0.000 A 
ATOM     26  C   UNL d   1      54.487  32.694  53.675  0.00  0.00     0.000 A 
ATOM     27  C   UNL d   1      53.748  32.928  53.383  0.00  0.00     0.002 A 
ENDBRANCH  19  22
ENDBRANCH  15  16
ENDBRANCH   1  15
TORSDOF 5
ENDMDL
MODEL 2
REMARK VINA RESULT:      -8.3      1.895      6.729
REMARK  5 active torsions:
REMARK  status: ('A' for Active; 'I' for Inactive)
REMARK    1  A    between atoms: C_5  and  C_18 
REMARK       I    between atoms: N_9  and  C_5 
REMARK    2  A    between atoms: S_12  and  C_6 
REMARK    3  A    between atoms: C_15  and  C_7 
REMARK    4  A    between atoms: C_10  and  N_9 
REMARK    5  A    between atoms: C_18  and  S_12 
ROOT
ATOM      1  C   UNL d   1      50.209  34.217  52.792  0.00  0.00     0.099 C 
ENDROOT
BRANCH   1   2
ATOM      2  C   UNL d   1      51.016  34.025  52.883  0.00  0.00     0.286 C 
ATOM      3  N   UNL d   1      51.240  33.445  53.412  0.00  0.00    -0.207 NA
ATOM      4  O   UNL d   1      51.577  34.419  52.441  0.00  0.00    -0.265 OA
BRANCH   3   5
ATOM      5  C   UNL d   1      52.025  33.260  53.499  0.00  0.00     0.087 A 
ATOM      6  C   UNL d   1      52.469  33.621  54.094  0.00  0.00     0.046 A 
ATOM      7  C   UNL d   1      53.266  33.436  54.185  0.00  0.00     0.124 A 
ATOM      8  O   UNL d   1      53.717  33.788  54.772  0.00  0.00    -0.301 OA
ATOM      9  C   UNL d   1      53.619  32.880  53.669  0.00  0.00     0.123 A 
ATOM     10  C   UNL d   1      54.519  33.592  54.853  0.00  0.00     0.149 A 
ATOM     11  C   UNL d   1      54.866  33.041  54.340  0.00  0.00     0.149 A 
ATOM     12  O   UNL d   1      54.412  32.687  53.748  0.00  0.00    -0.301 OA
ATOM     13  C   UNL d   1      53.159  32.530  53.080  0.00  0.00     0.028 A 
ATOM     14  C   UNL d   1      52.378  32.718  52.999  0.00  0.00     0.021 A 
ENDBRANCH   3   5
ENDBRANCH   1   2
BRANCH   1  15
ATOM     15  S   UNL d   1      49.953  34.624  52.123  0.00  0.00    -0.061 SA
BRANCH  15  16
ATOM     16  C   UNL d   1      49.193  34.920  52.091  0.00  0.00     0.133 A 
ATOM     17  N   UNL d   1      48.887  35.343  52.727  0.00  0.00    -0.141 NA
ATOM     18  N   UNL d   1      48.121  35.644  52.698  0.00  0.00    -0.148 NA
ATOM     19  C   UNL d   1      47.657  35.519  52.025  0.00  0.00     0.103 A 
ATOM     20  C   UNL d   1      47.955  35.099  51.387  0.00  0.00     0.023 A 
ATOM     21  C   UNL d   1      48.718  34.798  51.413  0.00  0.00     0.029 A 
BRANCH  19  22
ATOM     22  C   UNL d   1      46.890  35.820  51.995  0.00  0.00     0.019 A 
ATOM     23  C   UNL d   1      46.350  35.531  51.433  0.00  0.00     0.002 A 
ATOM     24  C   UNL d   1      45.579  35.834  51.404  0.00  0.00     0.000 A 
ATOM     25  C   UNL d   1      45.343  36.426  51.936  0.00  0.00     0.000 A 
ATOM     26  C   UNL d   1      45.874  36.710  52.488  0.00  0.00     0.000 A 
ATOM     27  C   UNL d   1      46.647  36.414  52.527  0.00  0.00     0.002 A 
ENDBRANCH  19  22
ENDBRANCH  15  16
ENDBRANCH   1  15
TORSDOF 5
ENDMDL
