MODEL 1
REMARK VINA RESULT:     447.6      0.000      0.000
REMARK  6 active torsions:
REMARK  status: ('A' for Active; 'I' for Inactive)
REMARK    1  A    between atoms: N_3  and  S_1 
REMARK    2  A    between atoms: C_5  and  S_1 
REMARK    3  A    between atoms: S_2  and  N_4 
REMARK    4  A    between atoms: C_6  and  S_2 
REMARK    5  A    between atoms: O_25  and  C_15 
REMARK    6  A    between atoms: O_26  and  C_16 
ROOT
ATOM      1  N   UNL d   1     -58.240-101.363 -41.011  0.00  0.00    -0.228 N 
ATOM      2  N   UNL d   1     -58.226-100.869 -39.436  0.00  0.00    -0.226 N 
ATOM      3  C   UNL d   1     -58.097-100.568 -40.823  0.00  0.00     0.093 A 
ATOM      4  C   UNL d   1     -58.090-100.321 -40.043  0.00  0.00     0.110 A 
ATOM      5  C   UNL d   1     -58.376-101.908 -40.409  0.00  0.00     0.111 A 
ATOM      6  C   UNL d   1     -58.369-101.661 -39.616  0.00  0.00     0.111 A 
ATOM      7  C   UNL d   1     -57.961-100.019 -41.430  0.00  0.00     0.021 C 
ENDROOT
BRANCH   1   8
ATOM      8  S   UNL d   1     -58.246-101.601 -41.794  0.00  0.00     0.273 S 
ATOM      9  O   UNL d   1     -58.056-101.073 -42.391  0.00  0.00    -0.200 OA
ATOM     10  O   UNL d   1     -58.446-102.383 -41.985  0.00  0.00    -0.200 OA
BRANCH   8  11
ATOM     11  C   UNL d   1     -58.259-101.865 -42.574  0.00  0.00     0.126 A 
ATOM     12  C   UNL d   1     -57.679-102.392 -42.835  0.00  0.00     0.106 A 
ATOM     13  C   UNL d   1     -57.681-102.661 -43.607  0.00  0.00     0.025 A 
ATOM     14  C   UNL d   1     -58.274-102.404 -44.144  0.00  0.00     0.002 A 
ATOM     15  C   UNL d   1     -58.854-101.876 -43.879  0.00  0.00     0.001 A 
ATOM     16  C   UNL d   1     -58.845-101.609 -43.099  0.00  0.00     0.015 A 
ATOM     17  C   UNL d   1     -59.437-101.619 -44.394  0.00  0.00     0.000 C 
BRANCH  12  18
ATOM     18  O   UNL d   1     -57.096-102.649 -42.320  0.00  0.00    -0.327 OA
ATOM     19  C   UNL d   1     -57.203-102.558 -41.507  0.00  0.00     0.181 C 
ENDBRANCH  12  18
ENDBRANCH   8  11
ENDBRANCH   1   8
BRANCH   2  20
ATOM     20  S   UNL d   1     -58.218-100.620 -38.649  0.00  0.00     0.273 S 
ATOM     21  O   UNL d   1     -58.919-100.377 -38.286  0.00  0.00    -0.200 OA
ATOM     22  O   UNL d   1     -57.513-100.613 -38.224  0.00  0.00    -0.200 OA
BRANCH  20  23
ATOM     23  C   UNL d   1     -58.239-100.366 -37.864  0.00  0.00     0.126 A 
ATOM     24  C   UNL d   1     -57.796-100.765 -37.295  0.00  0.00     0.106 A 
ATOM     25  C   UNL d   1     -57.819-100.511 -36.519  0.00  0.00     0.025 A 
ATOM     26  C   UNL d   1     -58.280 -99.863 -36.306  0.00  0.00     0.002 A 
ATOM     27  C   UNL d   1     -58.721 -99.468 -36.879  0.00  0.00     0.001 A 
ATOM     28  C   UNL d   1     -58.698 -99.725 -37.663  0.00  0.00     0.015 A 
ATOM     29  C   UNL d   1     -59.188 -98.815 -36.673  0.00  0.00     0.000 C 
BRANCH  24  30
ATOM     30  O   UNL d   1     -57.337-101.409 -37.503  0.00  0.00    -0.327 OA
ATOM     31  C   UNL d   1     -56.746-101.676 -37.001  0.00  0.00     0.181 C 
ENDBRANCH  24  30
ENDBRANCH  20  23
ENDBRANCH   2  20
TORSDOF 6
ENDMDL
