MODEL 1
REMARK VINA RESULT:     121.1      0.000      0.000
REMARK  3 active torsions:
REMARK  status: ('A' for Active; 'I' for Inactive)
REMARK    1  A    between atoms: N_2  and  S_1 
REMARK    2  A    between atoms: C_5  and  S_1 
REMARK    3  A    between atoms: C_4  and  C_3 
REMARK       I    between atoms: N_8  and  C_4 
ROOT
ATOM      1  N   UNL d   1     -55.994-100.909 -42.924  0.00  0.00    -0.226 N 
ATOM      2  C   UNL d   1     -55.298-101.221 -43.219  0.00  0.00     0.131 A 
ATOM      3  C   UNL d   1     -56.273-101.169 -42.189  0.00  0.00     0.092 A 
ATOM      4  C   UNL d   1     -54.881-101.786 -42.792  0.00  0.00     0.023 A 
ATOM      5  C   UNL d   1     -55.860-101.727 -41.767  0.00  0.00     0.018 A 
ATOM      6  C   UNL d   1     -55.157-102.040 -42.070  0.00  0.00     0.003 A 
ATOM      7  C   UNL d   1     -56.132-101.991 -41.035  0.00  0.00     0.002 A 
ATOM      8  C   UNL d   1     -54.729-102.605 -41.656  0.00  0.00     0.000 A 
ATOM      9  C   UNL d   1     -55.005-102.866 -40.922  0.00  0.00     0.000 A 
ATOM     10  C   UNL d   1     -55.710-102.558 -40.610  0.00  0.00     0.000 A 
ENDROOT
BRANCH   2  11
ATOM     11  C   UNL d   1     -55.019-100.961 -43.954  0.00  0.00     0.282 C 
ATOM     12  N   UNL d   1     -55.050-101.466 -44.608  0.00  0.00    -0.271 N 
ATOM     13  C   UNL d   1     -55.365-102.208 -44.468  0.00  0.00     0.083 A 
ATOM     14  C   UNL d   1     -54.756-101.150 -45.316  0.00  0.00     0.083 A 
ATOM     15  C   UNL d   1     -55.472-102.835 -44.998  0.00  0.00     0.019 A 
ATOM     16  C   UNL d   1     -55.289-102.866 -45.794  0.00  0.00     0.002 A 
ATOM     17  C   UNL d   1     -54.950-102.282 -46.272  0.00  0.00     0.002 A 
ATOM     18  C   UNL d   1     -54.713-101.514 -46.055  0.00  0.00     0.019 A 
ATOM     19  O   UNL d   1     -54.712-100.205 -44.041  0.00  0.00    -0.265 OA
ENDBRANCH   2  11
BRANCH   1  20
ATOM     20  S   UNL d   1     -56.416-100.342 -43.349  0.00  0.00     0.277 S 
ATOM     21  O   UNL d   1     -56.636-100.944 -43.865  0.00  0.00    -0.199 OA
ATOM     22  O   UNL d   1     -56.190 -99.743 -42.826  0.00  0.00    -0.199 OA
BRANCH  20  23
ATOM     23  C   UNL d   1     -56.843 -99.785 -43.785  0.00  0.00     0.133 A 
ATOM     24  S   UNL d   1     -56.553 -99.341 -44.412  0.00  0.00    -0.074 SA
ATOM     25  C   UNL d   1     -57.158 -98.857 -44.688  0.00  0.00     0.036 A 
ATOM     26  C   UNL d   1     -57.833 -99.002 -44.226  0.00  0.00     0.008 A 
ATOM     27  C   UNL d   1     -57.633 -99.577 -43.668  0.00  0.00     0.020 A 
ENDBRANCH  20  23
ENDBRANCH   1  20
TORSDOF 3
ENDMDL
