MODEL 1
REMARK VINA RESULT:      52.1      0.000      0.000
REMARK  4 active torsions:
REMARK  status: ('A' for Active; 'I' for Inactive)
REMARK    1  A    between atoms: C_2  and  S_1 
REMARK    2  A    between atoms: N_3  and  S_1 
REMARK    3  A    between atoms: C_6  and  N_3 
REMARK    4  A    between atoms: C_4  and  C_6 
REMARK       I    between atoms: N_5  and  C_4 
ROOT
ATOM      1  S   UNL d   1     -51.303  25.421  33.380  0.00  0.00     0.287 S 
ATOM      2  O   UNL d   1     -50.640  24.914  33.307  0.00  0.00    -0.198 OA
ATOM      3  O   UNL d   1     -51.977  25.922  33.455  0.00  0.00    -0.198 OA
ENDROOT
BRANCH   1   4
ATOM      4  C   UNL d   1     -51.811  24.741  33.455  0.00  0.00     0.126 A 
ATOM      5  C   UNL d   1     -52.635  24.833  33.419  0.00  0.00     0.071 A 
ATOM      6 CL   UNL d   1     -52.985  25.596  33.309  0.00  0.00    -0.082 Cl
ATOM      7  C   UNL d   1     -53.130  24.167  33.493  0.00  0.00     0.012 A 
ATOM      8  C   UNL d   1     -52.788  23.425  33.601  0.00  0.00     0.002 A 
ATOM      9  C   UNL d   1     -51.962  23.340  33.636  0.00  0.00     0.012 A 
ATOM     10  C   UNL d   1     -51.474  23.995  33.563  0.00  0.00     0.071 A 
ATOM     11 CL   UNL d   1     -50.652  23.913  33.598  0.00  0.00    -0.082 Cl
ENDBRANCH   1   4
BRANCH   1  12
ATOM     12  N   UNL d   1     -50.804  26.092  33.306  0.00  0.00    -0.152 NA
BRANCH  12  13
ATOM     13  C   UNL d   1     -50.446  26.419  33.989  0.00  0.00     0.173 C 
BRANCH  13  14
ATOM     14  C   UNL d   1     -49.932  27.071  33.909  0.00  0.00     0.285 C 
ATOM     15  N   UNL d   1     -49.596  27.432  34.572  0.00  0.00    -0.271 N 
ATOM     16  C   UNL d   1     -49.802  27.108  35.300  0.00  0.00     0.083 A 
ATOM     17  C   UNL d   1     -49.103  28.063  34.417  0.00  0.00     0.083 A 
ATOM     18  C   UNL d   1     -49.559  27.345  36.048  0.00  0.00     0.019 A 
ATOM     19  C   UNL d   1     -49.054  27.960  36.253  0.00  0.00     0.002 A 
ATOM     20  C   UNL d   1     -48.671  28.483  35.776  0.00  0.00     0.002 A 
ATOM     21  C   UNL d   1     -48.689  28.534  34.954  0.00  0.00     0.019 A 
ATOM     22  O   UNL d   1     -49.806  27.282  33.306  0.00  0.00    -0.265 OA
ENDBRANCH  13  14
ENDBRANCH  12  13
ENDBRANCH   1  12
TORSDOF 4
ENDMDL
