MODEL 1
REMARK VINA RESULT:      51.8      0.000      0.000
REMARK  6 active torsions:
REMARK  status: ('A' for Active; 'I' for Inactive)
REMARK    1  A    between atoms: C_2  and  N_10 
REMARK    2  A    between atoms: N_8  and  C_2 
REMARK    3  A    between atoms: C_4  and  N_8 
REMARK    4  A    between atoms: N_10  and  C_16 
REMARK    5  A    between atoms: C_22  and  C_13 
REMARK    6  A    between atoms: C_16  and  C_15 
ROOT
ATOM      1  C   UNL d   1     -50.024  27.260  33.619  0.00  0.00     0.221 C 
ATOM      2  S   UNL d   1     -50.752  27.648  33.648  0.00  0.00    -0.037 SA
ENDROOT
BRANCH   1   3
ATOM      3  N   UNL d   1     -49.339  27.652  33.865  0.00  0.00    -0.216 NA
BRANCH   3   4
ATOM      4  C   UNL d   1     -49.210  27.806  34.669  0.00  0.00     0.101 C 
BRANCH   4   5
ATOM      5  C   UNL d   1     -48.637  28.359  34.895  0.00  0.00     0.019 A 
ATOM      6  C   UNL d   1     -47.992  28.130  35.356  0.00  0.00     0.003 A 
ATOM      7  C   UNL d   1     -47.424  28.688  35.577  0.00  0.00     0.019 A 
ATOM      8  C   UNL d   1     -47.503  29.469  35.337  0.00  0.00     0.081 A 
ATOM      9  C   UNL d   1     -48.149  29.698  34.876  0.00  0.00     0.019 A 
ATOM     10  N   UNL d   1     -47.035  30.137  35.469  0.00  0.00    -0.246 NA
ATOM     11  C   UNL d   1     -48.714  29.146  34.655  0.00  0.00     0.003 A 
ATOM     12  C   UNL d   1     -48.074  30.506  34.726  0.00  0.00     0.021 A 
ATOM     13  C   UNL d   1     -47.398  30.774  35.085  0.00  0.00     0.082 A 
ATOM     14  C   UNL d   1     -47.125  31.554  35.067  0.00  0.00     0.021 C 
ENDBRANCH   4   5
ENDBRANCH   3   4
ENDBRANCH   1   3
BRANCH   1  15
ATOM     15  N   UNL d   1     -49.982  26.485  33.345  0.00  0.00    -0.217 NA
BRANCH  15  16
ATOM     16  C   UNL d   1     -50.658  26.016  33.333  0.00  0.00     0.084 A 
ATOM     17  C   UNL d   1     -51.404  26.368  33.325  0.00  0.00     0.018 A 
ATOM     18  C   UNL d   1     -52.081  25.899  33.313  0.00  0.00     0.002 A 
ATOM     19  C   UNL d   1     -51.476  27.193  33.329  0.00  0.00     0.002 C 
ATOM     20  C   UNL d   1     -52.015  25.071  33.308  0.00  0.00     0.000 A 
ATOM     21  C   UNL d   1     -51.269  24.719  33.316  0.00  0.00     0.002 A 
ATOM     22  C   UNL d   1     -50.589  25.196  33.328  0.00  0.00     0.018 A 
BRANCH  22  23
ATOM     23  C   UNL d   1     -49.842  24.844  33.336  0.00  0.00     0.002 C 
ATOM     24  C   UNL d   1     -49.769  24.031  33.352  0.00  0.00     0.000 C 
ENDBRANCH  22  23
ENDBRANCH  15  16
ENDBRANCH   1  15
TORSDOF 6
ENDMDL
MODEL 2
REMARK VINA RESULT:      52.9      0.782      1.578
REMARK  6 active torsions:
REMARK  status: ('A' for Active; 'I' for Inactive)
REMARK    1  A    between atoms: C_2  and  N_10 
REMARK    2  A    between atoms: N_8  and  C_2 
REMARK    3  A    between atoms: C_4  and  N_8 
REMARK    4  A    between atoms: N_10  and  C_16 
REMARK    5  A    between atoms: C_22  and  C_13 
REMARK    6  A    between atoms: C_16  and  C_15 
ROOT
ATOM      1  C   UNL d   1     -49.268  27.088  34.245  0.00  0.00     0.221 C 
ATOM      2  S   UNL d   1     -49.250  26.526  34.849  0.00  0.00    -0.037 SA
ENDROOT
BRANCH   1   3
ATOM      3  N   UNL d   1     -48.991  27.854  34.386  0.00  0.00    -0.216 NA
BRANCH   3   4
ATOM      4  C   UNL d   1     -48.625  28.041  35.107  0.00  0.00     0.101 C 
BRANCH   4   5
ATOM      5  C   UNL d   1     -48.276  28.784  35.209  0.00  0.00     0.019 A 
ATOM      6  C   UNL d   1     -47.809  28.940  35.872  0.00  0.00     0.003 A 
ATOM      7  C   UNL d   1     -47.463  29.684  35.967  0.00  0.00     0.019 A 
ATOM      8  C   UNL d   1     -47.585  30.267  35.402  0.00  0.00     0.081 A 
ATOM      9  C   UNL d   1     -48.052  30.110  34.739  0.00  0.00     0.019 A 
ATOM     10  N   UNL d   1     -47.318  31.047  35.347  0.00  0.00    -0.246 NA
ATOM     11  C   UNL d   1     -48.396  29.373  34.642  0.00  0.00     0.003 A 
ATOM     12  C   UNL d   1     -48.070  30.796  34.279  0.00  0.00     0.021 A 
ATOM     13  C   UNL d   1     -47.624  31.366  34.647  0.00  0.00     0.082 A 
ATOM     14  C   UNL d   1     -47.502  32.132  34.364  0.00  0.00     0.021 C 
ENDBRANCH   4   5
ENDBRANCH   3   4
ENDBRANCH   1   3
BRANCH   1  15
ATOM     15  N   UNL d   1     -49.562  26.885  33.503  0.00  0.00    -0.217 NA
BRANCH  15  16
ATOM     16  C   UNL d   1     -50.217  26.392  33.441  0.00  0.00     0.084 A 
ATOM     17  C   UNL d   1     -50.115  25.576  33.369  0.00  0.00     0.018 A 
ATOM     18  C   UNL d   1     -50.771  25.082  33.308  0.00  0.00     0.002 A 
ATOM     19  C   UNL d   1     -49.353  25.251  33.358  0.00  0.00     0.002 C 
ATOM     20  C   UNL d   1     -51.538  25.403  33.318  0.00  0.00     0.000 A 
ATOM     21  C   UNL d   1     -51.640  26.218  33.391  0.00  0.00     0.002 A 
ATOM     22  C   UNL d   1     -50.976  26.713  33.452  0.00  0.00     0.018 A 
BRANCH  22  23
ATOM     23  C   UNL d   1     -51.078  27.528  33.524  0.00  0.00     0.002 C 
ATOM     24  C   UNL d   1     -51.783  27.877  33.306  0.00  0.00     0.000 C 
ENDBRANCH  22  23
ENDBRANCH  15  16
ENDBRANCH   1  15
TORSDOF 6
ENDMDL
