MODEL 1
REMARK VINA RESULT:      68.2      0.000      0.000
REMARK  3 active torsions:
REMARK  status: ('A' for Active; 'I' for Inactive)
REMARK    1  A    between atoms: C_15  and  N_4 
REMARK    2  A    between atoms: C_11  and  N_10 
REMARK    3  A    between atoms: C_19  and  C_15 
ROOT
ATOM      1  C   UNL d   1     -52.089  25.749  33.460  0.00  0.00     0.191 A 
ATOM      2  C   UNL d   1     -51.550  25.119  33.418  0.00  0.00     0.173 A 
ATOM      3  C   UNL d   1     -50.847  26.266  33.503  0.00  0.00     0.722 A 
ATOM      4  N   UNL d   1     -52.627  24.174  33.347  0.00  0.00    -0.224 N 
ATOM      5  N   UNL d   1     -51.668  26.461  33.513  0.00  0.00    -0.042 NA
ATOM      6  N   UNL d   1     -50.777  25.449  33.445  0.00  0.00    -0.131 N 
ATOM      7  N   UNL d   1     -52.920  25.596  33.446  0.00  0.00    -0.240 N 
ATOM      8  C   UNL d   1     -53.187  24.786  33.387  0.00  0.00     0.343 A 
ATOM      9  C   UNL d   1     -51.795  24.357  33.363  0.00  0.00     0.288 A 
ATOM     10  N   UNL d   1     -50.092  26.586  33.529  0.00  0.00    -0.139 N 
ATOM     11  C   UNL d   1     -49.973  25.262  33.436  0.00  0.00     0.118 A 
ATOM     12  C   UNL d   1     -49.555  25.971  33.488  0.00  0.00     0.117 A 
ATOM     13  O   UNL d   1     -54.012  24.594  33.370  0.00  0.00    -0.245 OA
ATOM     14  O   UNL d   1     -51.245  23.715  33.320  0.00  0.00    -0.265 OA
ATOM     15  C   UNL d   1     -53.473  26.224  33.488  0.00  0.00     0.105 C 
ENDROOT
BRANCH  10  16
ATOM     16  C   UNL d   1     -49.907  27.390  33.586  0.00  0.00     0.082 A 
ATOM     17  C   UNL d   1     -49.195  27.613  33.923  0.00  0.00     0.027 A 
ATOM     18  C   UNL d   1     -49.011  28.406  33.980  0.00  0.00     0.059 A 
ATOM     19  C   UNL d   1     -48.661  27.044  34.204  0.00  0.00     0.002 C 
ATOM     20 CL   UNL d   1     -48.278  28.557  34.329  0.00  0.00    -0.082 Cl
ATOM     21  C   UNL d   1     -49.539  28.981  33.701  0.00  0.00     0.011 A 
ATOM     22  C   UNL d   1     -50.256  28.752  33.362  0.00  0.00     0.002 A 
ATOM     23  C   UNL d   1     -50.438  27.950  33.306  0.00  0.00     0.018 A 
ENDBRANCH  10  16
BRANCH   4  24
ATOM     24  C   UNL d   1     -53.247  23.631  33.306  0.00  0.00     0.087 C 
BRANCH  24  25
ATOM     25  C   UNL d   1     -53.763  23.558  33.938  0.00  0.00     0.018 C 
ATOM     26  C   UNL d   1     -53.548  23.860  34.675  0.00  0.00     0.002 C 
ATOM     27  C   UNL d   1     -54.488  23.192  33.851  0.00  0.00     0.002 C 
ENDBRANCH  24  25
ENDBRANCH   4  24
TORSDOF 3
ENDMDL
