MODEL 1
REMARK VINA RESULT:      28.8      0.000      0.000
REMARK  4 active torsions:
REMARK  status: ('A' for Active; 'I' for Inactive)
REMARK    1  A    between atoms: N_2  and  S_1 
REMARK    2  A    between atoms: C_7  and  S_1 
REMARK    3  A    between atoms: C_11  and  C_4 
REMARK    4  A    between atoms: C_18  and  C_11 
ROOT
ATOM      1  N   UNL d   1      45.025 -15.086  44.396  0.00  0.00    -0.202 N 
ATOM      2  C   UNL d   1      44.296 -15.187  44.762  0.00  0.00     0.218 A 
ATOM      3  C   UNL d   1      45.395 -15.831  44.349  0.00  0.00     0.135 A 
ATOM      4  N   UNL d   1      44.213 -15.989  44.942  0.00  0.00    -0.178 NA
ATOM      5  C   UNL d   1      44.892 -16.376  44.684  0.00  0.00     0.298 A 
ATOM      6  S   UNL d   1      43.735 -14.594  44.928  0.00  0.00    -0.037 SA
ATOM      7  O   UNL d   1      45.048 -17.193  44.752  0.00  0.00    -0.264 OA
ENDROOT
BRANCH   1   8
ATOM      8  S   UNL d   1      45.262 -14.336  44.152  0.00  0.00     0.273 S 
ATOM      9  O   UNL d   1      44.642 -14.319  43.598  0.00  0.00    -0.200 OA
ATOM     10  O   UNL d   1      45.877 -14.352  44.700  0.00  0.00    -0.200 OA
BRANCH   8  11
ATOM     11  C   UNL d   1      45.500 -13.585  43.907  0.00  0.00     0.104 A 
ATOM     12  C   UNL d   1      46.119 -13.203  44.292  0.00  0.00     0.012 A 
ATOM     13  C   UNL d   1      46.358 -12.450  44.047  0.00  0.00     0.001 A 
ATOM     14  C   UNL d   1      46.500 -13.582  44.931  0.00  0.00     0.001 C 
ATOM     15  C   UNL d   1      45.977 -12.082  43.417  0.00  0.00     0.000 A 
ATOM     16  C   UNL d   1      45.357 -12.464  43.029  0.00  0.00     0.001 A 
ATOM     17  C   UNL d   1      45.118 -13.218  43.275  0.00  0.00     0.013 A 
ATOM     18  C   UNL d   1      44.973 -12.089  42.392  0.00  0.00     0.000 C 
ENDBRANCH   8  11
ENDBRANCH   1   8
BRANCH   3  19
ATOM     19  C   UNL d   1      46.134 -16.005  44.025  0.00  0.00     0.023 C 
BRANCH  19  20
ATOM     20  C   UNL d   1      46.321 -16.778  43.813  0.00  0.00     0.002 C 
ATOM     21  C   UNL d   1      46.332 -16.992  43.020  0.00  0.00     0.000 C 
ATOM     22  C   UNL d   1      46.494 -17.331  44.388  0.00  0.00     0.000 C 
ENDBRANCH  19  20
ENDBRANCH   3  19
TORSDOF 4
ENDMDL
MODEL 2
REMARK VINA RESULT:      29.7      2.233      3.408
REMARK  4 active torsions:
REMARK  status: ('A' for Active; 'I' for Inactive)
REMARK    1  A    between atoms: N_2  and  S_1 
REMARK    2  A    between atoms: C_7  and  S_1 
REMARK    3  A    between atoms: C_11  and  C_4 
REMARK    4  A    between atoms: C_18  and  C_11 
ROOT
ATOM      1  N   UNL d   1      46.237 -18.004  43.595  0.00  0.00    -0.202 N 
ATOM      2  C   UNL d   1      46.459 -18.591  44.124  0.00  0.00     0.218 A 
ATOM      3  C   UNL d   1      46.281 -18.321  42.825  0.00  0.00     0.135 A 
ATOM      4  N   UNL d   1      46.640 -19.270  43.688  0.00  0.00    -0.178 NA
ATOM      5  C   UNL d   1      46.528 -19.094  42.892  0.00  0.00     0.298 A 
ATOM      6  S   UNL d   1      46.498 -18.526  44.954  0.00  0.00    -0.037 SA
ATOM      7  O   UNL d   1      46.645 -19.617  42.253  0.00  0.00    -0.264 OA
ENDROOT
BRANCH   1   8
ATOM      8  S   UNL d   1      46.024 -17.258  43.872  0.00  0.00     0.273 S 
ATOM      9  O   UNL d   1      45.400 -17.232  43.321  0.00  0.00    -0.200 OA
ATOM     10  O   UNL d   1      46.641 -17.284  44.417  0.00  0.00    -0.200 OA
BRANCH   8  11
ATOM     11  C   UNL d   1      45.810 -16.512  44.149  0.00  0.00     0.104 A 
ATOM     12  C   UNL d   1      45.181 -16.432  44.673  0.00  0.00     0.012 A 
ATOM     13  C   UNL d   1      44.967 -15.682  44.951  0.00  0.00     0.001 A 
ATOM     14  C   UNL d   1      44.764 -17.111  44.920  0.00  0.00     0.001 C 
ATOM     15  C   UNL d   1      45.382 -15.016  44.704  0.00  0.00     0.000 A 
ATOM     16  C   UNL d   1      46.013 -15.095  44.178  0.00  0.00     0.001 A 
ATOM     17  C   UNL d   1      46.228 -15.845  43.900  0.00  0.00     0.013 A 
ATOM     18  C   UNL d   1      46.432 -14.419  43.929  0.00  0.00     0.000 C 
ENDBRANCH   8  11
ENDBRANCH   1   8
BRANCH   3  19
ATOM     19  C   UNL d   1      46.111 -17.940  42.114  0.00  0.00     0.023 C 
BRANCH  19  20
ATOM     20  C   UNL d   1      46.044 -18.373  41.417  0.00  0.00     0.002 C 
ATOM     21  C   UNL d   1      46.646 -18.344  40.859  0.00  0.00     0.000 C 
ATOM     22  C   UNL d   1      45.382 -18.832  41.280  0.00  0.00     0.000 C 
ENDBRANCH  19  20
ENDBRANCH   3  19
TORSDOF 4
ENDMDL
