MODEL 1
REMARK VINA RESULT:      -4.1      0.000      0.000
REMARK  5 active torsions:
REMARK  status: ('A' for Active; 'I' for Inactive)
REMARK    1  A    between atoms: N_2  and  S_1 
REMARK    2  A    between atoms: C_5  and  S_1 
REMARK    3  A    between atoms: S_8  and  C_3 
REMARK    4  A    between atoms: C_18  and  S_8 
REMARK    5  A    between atoms: C_17  and  C_18 
ROOT
ATOM      1  N   UNL d   1     -41.381-122.184 -50.990  0.00  0.00    -0.208 N 
ATOM      2  C   UNL d   1     -41.411-121.733 -51.690  0.00  0.00     0.189 A 
ATOM      3  N   UNL d   1     -41.252-120.942 -51.495  0.00  0.00    -0.219 NA
ATOM      4  C   UNL d   1     -41.203-121.666 -50.360  0.00  0.00     0.114 A 
ATOM      5  C   UNL d   1     -41.125-120.906 -50.675  0.00  0.00     0.121 A 
ENDROOT
BRANCH   1   6
ATOM      6  S   UNL d   1     -41.507-123.003 -50.934  0.00  0.00     0.273 S 
ATOM      7  O   UNL d   1     -41.512-123.816 -51.102  0.00  0.00    -0.200 OA
ATOM      8  O   UNL d   1     -41.127-123.075 -51.658  0.00  0.00    -0.200 OA
BRANCH   6   9
ATOM      9  C   UNL d   1     -41.894-122.951 -50.203  0.00  0.00     0.104 A 
ATOM     10  C   UNL d   1     -42.706-122.806 -50.187  0.00  0.00     0.014 A 
ATOM     11  C   UNL d   1     -43.083-122.756 -49.454  0.00  0.00     0.012 A 
ATOM     12  C   UNL d   1     -42.656-122.847 -48.754  0.00  0.00     0.058 A 
ATOM     13  C   UNL d   1     -41.845-122.991 -48.776  0.00  0.00     0.012 A 
ATOM     14 CL   UNL d   1     -43.042-122.795 -48.024  0.00  0.00    -0.082 Cl
ATOM     15  C   UNL d   1     -41.467-123.042 -49.515  0.00  0.00     0.014 A 
ENDBRANCH   6   9
ENDBRANCH   1   6
BRANCH   2  16
ATOM     16  S   UNL d   1     -41.572-122.026 -52.454  0.00  0.00    -0.049 SA
BRANCH  16  17
ATOM     17  C   UNL d   1     -41.554-121.514 -53.103  0.00  0.00     0.038 C 
BRANCH  17  18
ATOM     18  C   UNL d   1     -41.830-121.771 -53.832  0.00  0.00     0.007 A 
ATOM     19  C   UNL d   1     -41.412-122.337 -54.268  0.00  0.00     0.013 A 
ATOM     20  C   UNL d   1     -41.690-122.592 -54.997  0.00  0.00     0.068 A 
ATOM     21 CL   UNL d   1     -41.260-123.154 -55.413  0.00  0.00    -0.082 Cl
ATOM     22  C   UNL d   1     -42.392-122.279 -55.296  0.00  0.00     0.068 A 
ATOM     23  C   UNL d   1     -42.816-121.722 -54.879  0.00  0.00     0.012 A 
ATOM     24 CL   UNL d   1     -42.665-122.541 -56.029  0.00  0.00    -0.082 Cl
ATOM     25  C   UNL d   1     -42.534-121.462 -54.138  0.00  0.00     0.001 A 
ENDBRANCH  17  18
ENDBRANCH  16  17
ENDBRANCH   2  16
TORSDOF 5
ENDMDL
