MODEL 1
REMARK VINA RESULT:      95.6      0.000      0.000
REMARK  4 active torsions:
REMARK  status: ('A' for Active; 'I' for Inactive)
REMARK    1  A    between atoms: S_6  and  C_1 
REMARK    2  A    between atoms: N_9  and  N_2 
REMARK    3  A    between atoms: C_12  and  S_6 
REMARK       I    between atoms: C_10  and  N_9 
REMARK    4  A    between atoms: C_11  and  C_10 
ROOT
ATOM      1  C   UNL d   1     -57.848 -98.969 -43.461  0.00  0.00     0.146 A 
ATOM      2  N   UNL d   1     -56.804 -98.918 -44.302  0.00  0.00    -0.188 N 
ATOM      3  C   UNL d   1     -57.024 -98.963 -43.508  0.00  0.00     0.199 A 
ATOM      4  C   UNL d   1     -57.497 -98.895 -44.756  0.00  0.00     0.184 A 
ATOM      5  C   UNL d   1     -58.141 -98.927 -44.239  0.00  0.00     0.131 A 
ATOM      6  N   UNL d   1     -57.628 -98.850 -45.568  0.00  0.00    -0.224 NA
ATOM      7  N   UNL d   1     -58.907 -98.913 -44.534  0.00  0.00    -0.240 NA
ATOM      8  C   UNL d   1     -58.398 -98.836 -45.863  0.00  0.00     0.101 A 
ATOM      9  C   UNL d   1     -59.036 -98.868 -45.335  0.00  0.00     0.099 A 
ATOM     10  N   UNL d   1     -56.505 -98.997 -42.870  0.00  0.00    -0.126 N 
ATOM     11  C   UNL d   1     -58.529 -98.791 -46.674  0.00  0.00     0.021 A 
ATOM     12  C   UNL d   1     -59.811 -98.855 -45.629  0.00  0.00     0.021 A 
ATOM     13  C   UNL d   1     -59.938 -98.809 -46.443  0.00  0.00     0.002 A 
ATOM     14  C   UNL d   1     -59.300 -98.777 -46.970  0.00  0.00     0.002 A 
ENDROOT
BRANCH   1  15
ATOM     15  S   UNL d   1     -58.296 -99.009 -42.783  0.00  0.00     0.214 S 
ATOM     16  O   UNL d   1     -57.789 -98.763 -42.174  0.00  0.00    -0.217 OA
ATOM     17  O   UNL d   1     -58.800 -99.254 -43.385  0.00  0.00    -0.217 OA
BRANCH  15  18
ATOM     18  C   UNL d   1     -58.761 -99.054 -42.101  0.00  0.00     0.088 A 
ATOM     19  C   UNL d   1     -59.569 -98.896 -42.049  0.00  0.00     0.011 A 
ATOM     20  C   UNL d   1     -59.956 -98.965 -41.326  0.00  0.00     0.001 A 
ATOM     21  C   UNL d   1     -59.537 -99.191 -40.654  0.00  0.00     0.000 A 
ATOM     22  C   UNL d   1     -58.732 -99.348 -40.705  0.00  0.00     0.001 A 
ATOM     23  C   UNL d   1     -59.923 -99.260 -39.932  0.00  0.00     0.000 C 
ATOM     24  C   UNL d   1     -58.335 -99.280 -41.434  0.00  0.00     0.011 A 
ENDBRANCH  15  18
ENDBRANCH   1  15
BRANCH   2  25
ATOM     25  N   UNL d   1     -56.039 -98.898 -44.602  0.00  0.00    -0.120 NA
ATOM     26  C   UNL d   1     -55.620 -99.601 -44.717  0.00  0.00     0.295 C 
ATOM     27  O   UNL d   1     -54.858 -99.576 -45.015  0.00  0.00    -0.264 OA
BRANCH  26  28
ATOM     28  C   UNL d   1     -55.970-100.326 -44.532  0.00  0.00     0.059 A 
ATOM     29  C   UNL d   1     -56.499-100.934 -44.719  0.00  0.00     0.005 A 
ATOM     30  C   UNL d   1     -56.050-100.975 -44.029  0.00  0.00     0.005 A 
ENDBRANCH  26  28
ENDBRANCH   2  25
TORSDOF 4
ENDMDL
