MODEL 1
REMARK VINA RESULT:      -1.1      0.000      0.000
REMARK  7 active torsions:
REMARK  status: ('A' for Active; 'I' for Inactive)
REMARK    1  A    between atoms: C_4  and  C_1 
REMARK    2  A    between atoms: N_5  and  C_3 
REMARK    3  A    between atoms: C_9  and  C_4 
REMARK       I    between atoms: C_7  and  N_5 
REMARK    4  A    between atoms: C_10  and  C_7 
REMARK       I    between atoms: N_14  and  C_9 
REMARK    5  A    between atoms: C_20  and  N_14 
REMARK    6  A    between atoms: C_21  and  C_20 
REMARK    7  A    between atoms: O_29  and  C_22 
ROOT
ATOM      1  C   UNL d   1      32.901  17.464 -23.436  0.00  0.00     0.144 C 
ATOM      2  C   UNL d   1      33.065  17.191 -24.196  0.00  0.00     0.107 C 
ATOM      3  N   UNL d   1      33.229  16.927 -24.953  0.00  0.00    -0.191 NA
ENDROOT
BRANCH   1   4
ATOM      4  C   UNL d   1      32.999  18.270 -23.245  0.00  0.00     0.097 A 
ATOM      5  N   UNL d   1      33.058  18.637 -22.508  0.00  0.00    -0.226 NA
ATOM      6  C   UNL d   1      33.150  19.449 -22.631  0.00  0.00     0.166 A 
ATOM      7  C   UNL d   1      33.148  19.586 -23.445  0.00  0.00     0.037 A 
ATOM      8  C   UNL d   1      33.055  18.860 -23.832  0.00  0.00     0.021 A 
ATOM      9  C   UNL d   1      33.218  20.277 -23.888  0.00  0.00     0.003 A 
ATOM     10  C   UNL d   1      33.033  18.827 -24.652  0.00  0.00     0.002 A 
ATOM     11  C   UNL d   1      33.103  19.518 -25.097  0.00  0.00     0.000 A 
ATOM     12  C   UNL d   1      33.196  20.245 -24.709  0.00  0.00     0.000 A 
BRANCH   6  13
ATOM     13  N   UNL d   1      33.231  20.044 -22.079  0.00  0.00    -0.189 NA
ATOM     14  C   UNL d   1      32.706  20.269 -21.470  0.00  0.00     0.286 C 
ATOM     15  O   UNL d   1      31.999  19.852 -21.389  0.00  0.00    -0.265 OA
BRANCH  14  16
ATOM     16  C   UNL d   1      32.876  20.890 -20.956  0.00  0.00     0.087 A 
ATOM     17  S   UNL d   1      33.110  20.732 -20.180  0.00  0.00    -0.082 SA
ATOM     18  C   UNL d   1      33.241  21.459 -19.806  0.00  0.00     0.036 A 
ATOM     19  C   UNL d   1      33.087  22.062 -20.352  0.00  0.00     0.008 A 
ATOM     20  C   UNL d   1      32.862  21.710 -21.061  0.00  0.00     0.012 A 
ENDBRANCH  14  16
ENDBRANCH   6  13
ENDBRANCH   1   4
BRANCH   1  21
ATOM     21  C   UNL d   1      32.637  16.935 -22.856  0.00  0.00     0.290 C 
ATOM     22  N   UNL d   1      31.867  16.652 -22.877  0.00  0.00    -0.206 NA
ATOM     23  O   UNL d   1      33.146  16.692 -22.256  0.00  0.00    -0.264 OA
BRANCH  22  24
ATOM     24  C   UNL d   1      31.354  16.898 -23.483  0.00  0.00     0.102 C 
BRANCH  24  25
ATOM     25  C   UNL d   1      30.571  16.724 -23.693  0.00  0.00     0.019 A 
ATOM     26  C   UNL d   1      30.175  16.116 -23.306  0.00  0.00     0.004 A 
ATOM     27  C   UNL d   1      29.400  15.939 -23.509  0.00  0.00     0.024 A 
ATOM     28  C   UNL d   1      29.015  16.374 -24.104  0.00  0.00     0.094 A 
ATOM     29  C   UNL d   1      29.412  16.982 -24.490  0.00  0.00     0.024 A 
ATOM     30  C   UNL d   1      30.195  17.155 -24.280  0.00  0.00     0.004 A 
BRANCH  28  31
ATOM     31  O   UNL d   1      28.238  16.198 -24.308  0.00  0.00    -0.328 OA
ATOM     32  C   UNL d   1      27.609  16.540 -23.896  0.00  0.00     0.181 C 
ENDBRANCH  28  31
ENDBRANCH  24  25
ENDBRANCH  22  24
ENDBRANCH   1  21
TORSDOF 7
ENDMDL
