MODEL 1
REMARK VINA RESULT:      23.9      0.000      0.000
REMARK  4 active torsions:
REMARK  status: ('A' for Active; 'I' for Inactive)
REMARK    1  A    between atoms: C_7  and  N_1 
REMARK    2  A    between atoms: C_6  and  C_2 
REMARK    3  A    between atoms: C_17  and  C_6 
REMARK    4  A    between atoms: C_8  and  C_7 
ROOT
ATOM      1  N   UNL d   1     -57.039 -98.766 -44.340  0.00  0.00    -0.303 N 
ATOM      2  C   UNL d   1     -58.387 -98.764 -44.320  0.00  0.00     0.057 A 
ATOM      3  C   UNL d   1     -57.735 -98.768 -44.814  0.00  0.00     0.067 A 
ATOM      4  C   UNL d   1     -58.111 -98.759 -43.541  0.00  0.00     0.022 A 
ATOM      5  C   UNL d   1     -57.269 -98.760 -43.575  0.00  0.00     0.064 A 
ATOM      6  C   UNL d   1     -57.765 -98.773 -45.645  0.00  0.00     0.019 C 
ATOM      7  C   UNL d   1     -56.770 -98.757 -42.911  0.00  0.00     0.019 C 
ENDROOT
BRANCH   1   8
ATOM      8  C   UNL d   1     -56.267 -98.769 -44.613  0.00  0.00     0.105 C 
BRANCH   8   9
ATOM      9  C   UNL d   1     -55.813 -99.477 -44.600  0.00  0.00     0.118 A 
ATOM     10  O   UNL d   1     -55.916-100.208 -44.943  0.00  0.00    -0.304 OA
ATOM     11  C   UNL d   1     -55.270-100.657 -44.711  0.00  0.00     0.123 A 
ATOM     12  C   UNL d   1     -54.785-100.243 -44.250  0.00  0.00     0.029 A 
ATOM     13  C   UNL d   1     -55.116 -99.485 -44.168  0.00  0.00     0.028 A 
ENDBRANCH   8   9
ENDBRANCH   1   8
BRANCH   2  14
ATOM     14  C   UNL d   1     -59.150 -98.764 -44.550  0.00  0.00     0.208 C 
ATOM     15  O   UNL d   1     -59.745 -98.755 -43.993  0.00  0.00    -0.286 OA
BRANCH  14  16
ATOM     16  C   UNL d   1     -59.350 -98.773 -45.348  0.00  0.00     0.110 C 
ATOM     17 CL   UNL d   1     -59.908 -99.330 -45.648  0.00  0.00    -0.078 Cl
ENDBRANCH  14  16
ENDBRANCH   2  14
TORSDOF 4
ENDMDL
MODEL 2
REMARK VINA RESULT:      24.2      1.887      3.641
REMARK  4 active torsions:
REMARK  status: ('A' for Active; 'I' for Inactive)
REMARK    1  A    between atoms: C_7  and  N_1 
REMARK    2  A    between atoms: C_6  and  C_2 
REMARK    3  A    between atoms: C_17  and  C_6 
REMARK    4  A    between atoms: C_8  and  C_7 
ROOT
ATOM      1  N   UNL d   1     -55.688 -99.409 -44.394  0.00  0.00    -0.303 N 
ATOM      2  C   UNL d   1     -55.189-100.661 -44.396  0.00  0.00     0.057 A 
ATOM      3  C   UNL d   1     -55.788-100.191 -44.098  0.00  0.00     0.067 A 
ATOM      4  C   UNL d   1     -54.713-100.186 -44.876  0.00  0.00     0.022 A 
ATOM      5  C   UNL d   1     -55.041 -99.409 -44.861  0.00  0.00     0.064 A 
ATOM      6  C   UNL d   1     -56.392-100.452 -43.588  0.00  0.00     0.019 C 
ATOM      7  C   UNL d   1     -54.729 -98.757 -45.272  0.00  0.00     0.019 C 
ENDROOT
BRANCH   1   8
ATOM      8  C   UNL d   1     -56.168 -98.765 -44.232  0.00  0.00     0.105 C 
BRANCH   8   9
ATOM      9  C   UNL d   1     -56.993 -98.797 -44.392  0.00  0.00     0.118 A 
ATOM     10  O   UNL d   1     -57.426 -98.755 -45.080  0.00  0.00    -0.304 OA
ATOM     11  C   UNL d   1     -58.212 -98.823 -44.854  0.00  0.00     0.123 A 
ATOM     12  C   UNL d   1     -58.279 -98.903 -44.073  0.00  0.00     0.029 A 
ATOM     13  C   UNL d   1     -57.509 -98.888 -43.761  0.00  0.00     0.028 A 
ENDBRANCH   8   9
ENDBRANCH   1   8
BRANCH   2  14
ATOM     14  C   UNL d   1     -55.085-101.438 -44.250  0.00  0.00     0.208 C 
ATOM     15  O   UNL d   1     -55.129-101.719 -43.485  0.00  0.00    -0.286 OA
BRANCH  14  16
ATOM     16  C   UNL d   1     -54.933-101.966 -44.862  0.00  0.00     0.110 C 
ATOM     17 CL   UNL d   1     -54.791-102.782 -44.704  0.00  0.00    -0.078 Cl
ENDBRANCH  14  16
ENDBRANCH   2  14
TORSDOF 4
ENDMDL
MODEL 3
REMARK VINA RESULT:      26.0      0.864      1.514
REMARK  4 active torsions:
REMARK  status: ('A' for Active; 'I' for Inactive)
REMARK    1  A    between atoms: C_7  and  N_1 
REMARK    2  A    between atoms: C_6  and  C_2 
REMARK    3  A    between atoms: C_17  and  C_6 
REMARK    4  A    between atoms: C_8  and  C_7 
ROOT
ATOM      1  N   UNL d   1     -56.225 -99.212 -44.370  0.00  0.00    -0.303 N 
ATOM      2  C   UNL d   1     -57.543 -98.952 -44.468  0.00  0.00     0.057 A 
ATOM      3  C   UNL d   1     -56.962 -99.231 -43.965  0.00  0.00     0.067 A 
ATOM      4  C   UNL d   1     -57.182 -98.757 -45.185  0.00  0.00     0.022 A 
ATOM      5  C   UNL d   1     -56.361 -98.926 -45.103  0.00  0.00     0.064 A 
ATOM      6  C   UNL d   1     -57.089 -99.490 -43.184  0.00  0.00     0.019 C 
ATOM      7  C   UNL d   1     -55.793 -98.809 -45.700  0.00  0.00     0.019 C 
ENDROOT
BRANCH   1   8
ATOM      8  C   UNL d   1     -55.500 -99.444 -44.068  0.00  0.00     0.105 C 
BRANCH   8   9
ATOM      9  C   UNL d   1     -55.261-100.250 -44.105  0.00  0.00     0.118 A 
ATOM     10  O   UNL d   1     -55.323-100.872 -43.584  0.00  0.00    -0.304 OA
ATOM     11  C   UNL d   1     -54.978-101.514 -43.960  0.00  0.00     0.123 A 
ATOM     12  C   UNL d   1     -54.711-101.318 -44.674  0.00  0.00     0.029 A 
ATOM     13  C   UNL d   1     -54.884-100.513 -44.785  0.00  0.00     0.028 A 
ENDBRANCH   8   9
ENDBRANCH   1   8
BRANCH   2  14
ATOM     14  C   UNL d   1     -58.319 -98.882 -44.296  0.00  0.00     0.208 C 
ATOM     15  O   UNL d   1     -58.562 -98.825 -43.519  0.00  0.00    -0.286 OA
BRANCH  14  16
ATOM     16  C   UNL d   1     -58.884 -98.865 -44.894  0.00  0.00     0.110 C 
ATOM     17 CL   UNL d   1     -59.707 -98.888 -44.711  0.00  0.00    -0.078 Cl
ENDBRANCH  14  16
ENDBRANCH   2  14
TORSDOF 4
ENDMDL
