MODEL 1
REMARK VINA RESULT:      91.8      0.000      0.000
REMARK  5 active torsions:
REMARK  status: ('A' for Active; 'I' for Inactive)
REMARK    1  A    between atoms: C_9  and  N_1 
REMARK    2  A    between atoms: C_10  and  C_2 
REMARK    3  A    between atoms: C_3  and  C_11 
REMARK    4  A    between atoms: O_14  and  C_9 
REMARK    5  A    between atoms: C_11  and  O_14 
ROOT
ATOM      1  C   UNL d   1     -55.215-100.613 -40.725  0.00  0.00     0.305 C 
ATOM      2  O   UNL d   1     -55.196-101.441 -40.752  0.00  0.00    -0.259 OA
ENDROOT
BRANCH   1   3
ATOM      3  C   UNL d   1     -55.061-100.224 -40.018  0.00  0.00     0.108 A 
ATOM      4  C   UNL d   1     -55.102-100.550 -39.260  0.00  0.00     0.116 A 
ATOM      5  N   UNL d   1     -54.905 -99.968 -38.725  0.00  0.00    -0.126 NA
ATOM      6  O   UNL d   1     -54.740 -99.281 -39.137  0.00  0.00    -0.211 OA
ATOM      7  C   UNL d   1     -54.837 -99.441 -39.940  0.00  0.00     0.132 A 
ATOM      8  C   UNL d   1     -54.728 -98.905 -40.561  0.00  0.00     0.029 C 
BRANCH   4   9
ATOM      9  C   UNL d   1     -55.308-101.328 -39.080  0.00  0.00     0.031 A 
ATOM     10  C   UNL d   1     -55.143-101.629 -38.334  0.00  0.00     0.059 A 
ATOM     11 CL   UNL d   1     -54.781-101.168 -37.777  0.00  0.00    -0.082 Cl
ATOM     12  C   UNL d   1     -55.347-102.400 -38.159  0.00  0.00     0.011 A 
ATOM     13  C   UNL d   1     -55.719-102.878 -38.725  0.00  0.00     0.001 A 
ATOM     14  C   UNL d   1     -55.884-102.577 -39.470  0.00  0.00     0.000 A 
ATOM     15  C   UNL d   1     -55.678-101.798 -39.651  0.00  0.00     0.002 A 
ENDBRANCH   4   9
ENDBRANCH   1   3
BRANCH   1  16
ATOM     16  O   UNL d   1     -55.390-100.182 -41.409  0.00  0.00    -0.252 OA
BRANCH  16  17
ATOM     17  C   UNL d   1     -54.785 -99.987 -41.940  0.00  0.00     0.216 C 
BRANCH  17  18
ATOM     18  N   UNL d   1     -54.778-100.322 -42.696  0.00  0.00    -0.218 N 
ATOM     19  C   UNL d   1     -54.788 -99.910 -43.404  0.00  0.00     0.269 A 
ATOM     20  C   UNL d   1     -54.775-100.459 -44.024  0.00  0.00     0.061 A 
ATOM     21  O   UNL d   1     -54.807 -99.085 -43.491  0.00  0.00    -0.267 OA
ATOM     22  C   UNL d   1     -54.777-100.374 -44.844  0.00  0.00     0.005 A 
ATOM     23  C   UNL d   1     -54.757-101.214 -43.689  0.00  0.00     0.061 A 
ATOM     24  C   UNL d   1     -54.761-101.036 -45.326  0.00  0.00     0.000 A 
ATOM     25  C   UNL d   1     -54.743-101.791 -44.991  0.00  0.00     0.000 A 
ATOM     26  C   UNL d   1     -54.741-101.885 -44.173  0.00  0.00     0.005 A 
ATOM     27  C   UNL d   1     -54.758-101.135 -42.861  0.00  0.00     0.269 A 
ATOM     28  O   UNL d   1     -54.744-101.745 -42.312  0.00  0.00    -0.267 OA
ENDBRANCH  17  18
ENDBRANCH  16  17
ENDBRANCH   1  16
TORSDOF 5
ENDMDL
