MODEL 1
REMARK VINA RESULT:      -2.7      0.000      0.000
REMARK  1 active torsions:
REMARK  status: ('A' for Active; 'I' for Inactive)
REMARK    1  A    between atoms: N_4  and  C_1 
ROOT
ATOM      1  C   UNL d   1      30.943  16.872 -24.085  0.00  0.00     0.735 A 
ATOM      2  N   UNL d   1      30.177  17.128 -24.310  0.00  0.00    -0.059 NA
ATOM      3  N   UNL d   1      30.816  16.187 -23.610  0.00  0.00    -0.059 NA
ATOM      4  C   UNL d   1      29.627  16.630 -23.991  0.00  0.00     0.118 A 
ATOM      5  C   UNL d   1      30.022  16.048 -23.558  0.00  0.00     0.118 A 
ATOM      6  C   UNL d   1      28.790  16.634 -24.043  0.00  0.00     0.021 A 
ATOM      7  C   UNL d   1      29.585  15.464 -23.172  0.00  0.00     0.021 A 
ATOM      8  C   UNL d   1      28.371  16.034 -23.645  0.00  0.00     0.002 A 
ATOM      9  C   UNL d   1      28.766  15.453 -23.212  0.00  0.00     0.002 A 
ENDROOT
BRANCH   1  10
ATOM     10  N   UNL d   1      31.635  17.245 -24.307  0.00  0.00    -0.133 N 
ATOM     11  C   UNL d   1      32.022  17.339 -24.996  0.00  0.00     0.125 A 
ATOM     12  C   UNL d   1      32.728  17.756 -25.041  0.00  0.00     0.142 A 
ATOM     13  O   UNL d   1      33.061  18.093 -24.372  0.00  0.00    -0.300 OA
ATOM     14  C   UNL d   1      32.643  17.992 -23.623  0.00  0.00     0.142 A 
ATOM     15  C   UNL d   1      31.950  17.576 -23.610  0.00  0.00     0.125 A 
ENDBRANCH   1  10
TORSDOF 1
ENDMDL
MODEL 2
REMARK VINA RESULT:      -2.7      1.608      3.357
REMARK  1 active torsions:
REMARK  status: ('A' for Active; 'I' for Inactive)
REMARK    1  A    between atoms: N_4  and  C_1 
ROOT
ATOM      1  C   UNL d   1      30.599  16.462 -24.092  0.00  0.00     0.735 A 
ATOM      2  N   UNL d   1      30.830  17.225 -24.353  0.00  0.00    -0.059 NA
ATOM      3  N   UNL d   1      31.239  16.188 -23.615  0.00  0.00    -0.059 NA
ATOM      4  C   UNL d   1      31.561  17.397 -24.053  0.00  0.00     0.118 A 
ATOM      5  C   UNL d   1      31.813  16.756 -23.597  0.00  0.00     0.118 A 
ATOM      6  C   UNL d   1      32.041  18.078 -24.142  0.00  0.00     0.021 A 
ATOM      7  C   UNL d   1      32.548  16.790 -23.225  0.00  0.00     0.021 A 
ATOM      8  C   UNL d   1      32.779  18.088 -23.756  0.00  0.00     0.002 A 
ATOM      9  C   UNL d   1      33.032  17.448 -23.300  0.00  0.00     0.002 A 
ENDROOT
BRANCH   1  10
ATOM     10  N   UNL d   1      29.891  16.106 -24.287  0.00  0.00    -0.133 N 
ATOM     11  C   UNL d   1      29.596  15.773 -24.947  0.00  0.00     0.125 A 
ATOM     12  C   UNL d   1      28.841  15.453 -24.970  0.00  0.00     0.142 A 
ATOM     13  O   UNL d   1      28.359  15.465 -24.307  0.00  0.00    -0.300 OA
ATOM     14  C   UNL d   1      28.675  15.825 -23.589  0.00  0.00     0.142 A 
ATOM     15  C   UNL d   1      29.423  16.133 -23.597  0.00  0.00     0.125 A 
ENDBRANCH   1  10
TORSDOF 1
ENDMDL
MODEL 3
REMARK VINA RESULT:      -2.5      4.870      6.191
REMARK  1 active torsions:
REMARK  status: ('A' for Active; 'I' for Inactive)
REMARK    1  A    between atoms: N_4  and  C_1 
ROOT
ATOM      1  C   UNL d   1      32.734  21.683 -21.243  0.00  0.00     0.735 A 
ATOM      2  N   UNL d   1      32.852  21.637 -22.072  0.00  0.00    -0.059 NA
ATOM      3  N   UNL d   1      32.801  20.888 -20.967  0.00  0.00    -0.059 NA
ATOM      4  C   UNL d   1      32.982  20.867 -22.280  0.00  0.00     0.118 A 
ATOM      5  C   UNL d   1      32.950  20.404 -21.596  0.00  0.00     0.118 A 
ATOM      6  C   UNL d   1      33.128  20.521 -23.029  0.00  0.00     0.021 A 
ATOM      7  C   UNL d   1      33.065  19.589 -21.655  0.00  0.00     0.021 A 
ATOM      8  C   UNL d   1      33.241  19.696 -23.062  0.00  0.00     0.002 A 
ATOM      9  C   UNL d   1      33.210  19.233 -22.378  0.00  0.00     0.002 A 
ENDROOT
BRANCH   1  10
ATOM     10  N   UNL d   1      32.589  22.376 -20.837  0.00  0.00    -0.133 N 
ATOM     11  C   UNL d   1      32.129  23.013 -20.967  0.00  0.00     0.125 A 
ATOM     12  C   UNL d   1      32.102  23.640 -20.439  0.00  0.00     0.142 A 
ATOM     13  O   UNL d   1      32.551  23.633 -19.753  0.00  0.00    -0.300 OA
ATOM     14  C   UNL d   1      33.051  22.944 -19.609  0.00  0.00     0.142 A 
ATOM     15  C   UNL d   1      33.057  22.341 -20.148  0.00  0.00     0.125 A 
ENDBRANCH   1  10
TORSDOF 1
ENDMDL
MODEL 4
REMARK VINA RESULT:      -2.4      3.199      4.951
REMARK  1 active torsions:
REMARK  status: ('A' for Active; 'I' for Inactive)
REMARK    1  A    between atoms: N_4  and  C_1 
ROOT
ATOM      1  C   UNL d   1      33.071  19.547 -22.580  0.00  0.00     0.735 A 
ATOM      2  N   UNL d   1      32.870  19.702 -21.781  0.00  0.00    -0.059 NA
ATOM      3  N   UNL d   1      33.241  20.301 -22.916  0.00  0.00    -0.059 NA
ATOM      4  C   UNL d   1      32.917  20.498 -21.645  0.00  0.00     0.118 A 
ATOM      5  C   UNL d   1      33.146  20.868 -22.347  0.00  0.00     0.118 A 
ATOM      6  C   UNL d   1      32.775  20.943 -20.949  0.00  0.00     0.021 A 
ATOM      7  C   UNL d   1      33.236  21.688 -22.360  0.00  0.00     0.021 A 
ATOM      8  C   UNL d   1      32.872  21.769 -20.989  0.00  0.00     0.002 A 
ATOM      9  C   UNL d   1      33.101  22.140 -21.690  0.00  0.00     0.002 A 
ENDROOT
BRANCH   1  10
ATOM     10  N   UNL d   1      33.083  18.801 -22.913  0.00  0.00    -0.133 N 
ATOM     11  C   UNL d   1      33.238  18.070 -22.640  0.00  0.00     0.125 A 
ATOM     12  C   UNL d   1      33.203  17.411 -23.128  0.00  0.00     0.142 A 
ATOM     13  O   UNL d   1      33.005  17.483 -23.920  0.00  0.00    -0.300 OA
ATOM     14  C   UNL d   1      32.836  18.276 -24.219  0.00  0.00     0.142 A 
ATOM     15  C   UNL d   1      32.879  18.906 -23.715  0.00  0.00     0.125 A 
ENDBRANCH   1  10
TORSDOF 1
ENDMDL
MODEL 5
REMARK VINA RESULT:      -2.3      3.591      4.655
REMARK  1 active torsions:
REMARK  status: ('A' for Active; 'I' for Inactive)
REMARK    1  A    between atoms: N_4  and  C_1 
ROOT
ATOM      1  C   UNL d   1      33.101  20.100 -22.283  0.00  0.00     0.735 A 
ATOM      2  N   UNL d   1      32.939  19.975 -23.097  0.00  0.00    -0.059 NA
ATOM      3  N   UNL d   1      33.241  19.331 -21.966  0.00  0.00    -0.059 NA
ATOM      4  C   UNL d   1      32.979  19.184 -23.257  0.00  0.00     0.118 A 
ATOM      5  C   UNL d   1      33.165  18.786 -22.558  0.00  0.00     0.118 A 
ATOM      6  C   UNL d   1      32.865  18.765 -23.974  0.00  0.00     0.021 A 
ATOM      7  C   UNL d   1      33.240  17.964 -22.568  0.00  0.00     0.021 A 
ATOM      8  C   UNL d   1      32.945  17.936 -23.959  0.00  0.00     0.002 A 
ATOM      9  C   UNL d   1      33.132  17.538 -23.259  0.00  0.00     0.002 A 
ENDROOT
BRANCH   1  10
ATOM     10  N   UNL d   1      33.110  20.833 -21.925  0.00  0.00    -0.133 N 
ATOM     11  C   UNL d   1      33.236  21.577 -22.177  0.00  0.00     0.125 A 
ATOM     12  C   UNL d   1      33.205  22.218 -21.666  0.00  0.00     0.142 A 
ATOM     13  O   UNL d   1      33.042  22.113 -20.869  0.00  0.00    -0.300 OA
ATOM     14  C   UNL d   1      32.905  21.307 -20.592  0.00  0.00     0.142 A 
ATOM     15  C   UNL d   1      32.941  20.696 -21.120  0.00  0.00     0.125 A 
ENDBRANCH   1  10
TORSDOF 1
ENDMDL
MODEL 6
REMARK VINA RESULT:      -2.3      4.695      6.333
REMARK  1 active torsions:
REMARK  status: ('A' for Active; 'I' for Inactive)
REMARK    1  A    between atoms: N_4  and  C_1 
ROOT
ATOM      1  C   UNL d   1      32.970  21.121 -21.392  0.00  0.00     0.735 A 
ATOM      2  N   UNL d   1      33.216  21.136 -20.591  0.00  0.00    -0.059 NA
ATOM      3  N   UNL d   1      32.655  21.889 -21.540  0.00  0.00    -0.059 NA
ATOM      4  C   UNL d   1      33.059  21.864 -20.278  0.00  0.00     0.118 A 
ATOM      5  C   UNL d   1      32.712  22.330 -20.865  0.00  0.00     0.118 A 
ATOM      6  C   UNL d   1      33.192  22.170 -19.509  0.00  0.00     0.021 A 
ATOM      7  C   UNL d   1      32.495  23.106 -20.690  0.00  0.00     0.021 A 
ATOM      8  C   UNL d   1      32.965  22.956 -19.357  0.00  0.00     0.002 A 
ATOM      9  C   UNL d   1      32.617  23.422 -19.944  0.00  0.00     0.002 A 
ENDROOT
BRANCH   1  10
ATOM     10  N   UNL d   1      33.044  20.473 -21.883  0.00  0.00    -0.133 N 
ATOM     11  C   UNL d   1      33.037  19.685 -21.772  0.00  0.00     0.125 A 
ATOM     12  C   UNL d   1      33.128  19.160 -22.396  0.00  0.00     0.142 A 
ATOM     13  O   UNL d   1      33.229  19.431 -23.163  0.00  0.00    -0.300 OA
ATOM     14  C   UNL d   1      33.237  20.286 -23.287  0.00  0.00     0.142 A 
ATOM     15  C   UNL d   1      33.145  20.778 -22.652  0.00  0.00     0.125 A 
ENDBRANCH   1  10
TORSDOF 1
ENDMDL
MODEL 7
REMARK VINA RESULT:      -2.2      7.247      8.391
REMARK  1 active torsions:
REMARK  status: ('A' for Active; 'I' for Inactive)
REMARK    1  A    between atoms: N_4  and  C_1 
ROOT
ATOM      1  C   UNL d   1      32.693  22.988 -19.019  0.00  0.00     0.735 A 
ATOM      2  N   UNL d   1      32.162  23.378 -19.537  0.00  0.00    -0.059 NA
ATOM      3  N   UNL d   1      33.186  22.520 -19.520  0.00  0.00    -0.059 NA
ATOM      4  C   UNL d   1      32.324  23.160 -20.298  0.00  0.00     0.118 A 
ATOM      5  C   UNL d   1      32.957  22.629 -20.288  0.00  0.00     0.118 A 
ATOM      6  C   UNL d   1      31.963  23.386 -21.020  0.00  0.00     0.021 A 
ATOM      7  C   UNL d   1      33.236  22.319 -20.999  0.00  0.00     0.021 A 
ATOM      8  C   UNL d   1      32.263  23.058 -21.725  0.00  0.00     0.002 A 
ATOM      9  C   UNL d   1      32.896  22.527 -21.715  0.00  0.00     0.002 A 
ENDROOT
BRANCH   1  10
ATOM     10  N   UNL d   1      32.692  23.076 -18.208  0.00  0.00    -0.133 N 
ATOM     11  C   UNL d   1      32.384  23.611 -17.705  0.00  0.00     0.125 A 
ATOM     12  C   UNL d   1      32.481  23.546 -16.893  0.00  0.00     0.142 A 
ATOM     13  O   UNL d   1      32.902  22.922 -16.568  0.00  0.00    -0.300 OA
ATOM     14  C   UNL d   1      33.237  22.340 -17.111  0.00  0.00     0.142 A 
ATOM     15  C   UNL d   1      33.125  22.431 -17.906  0.00  0.00     0.125 A 
ENDBRANCH   1  10
TORSDOF 1
ENDMDL
MODEL 8
REMARK VINA RESULT:      -2.1      1.866      3.941
REMARK  1 active torsions:
REMARK  status: ('A' for Active; 'I' for Inactive)
REMARK    1  A    between atoms: N_4  and  C_1 
ROOT
ATOM      1  C   UNL d   1      32.537  17.897 -23.522  0.00  0.00     0.735 A 
ATOM      2  N   UNL d   1      32.687  18.183 -22.748  0.00  0.00    -0.059 NA
ATOM      3  N   UNL d   1      32.647  18.562 -24.029  0.00  0.00    -0.059 NA
ATOM      4  C   UNL d   1      32.875  18.969 -22.788  0.00  0.00     0.118 A 
ATOM      5  C   UNL d   1      32.850  19.203 -23.580  0.00  0.00     0.118 A 
ATOM      6  C   UNL d   1      33.072  19.515 -22.183  0.00  0.00     0.021 A 
ATOM      7  C   UNL d   1      33.022  19.986 -23.775  0.00  0.00     0.021 A 
ATOM      8  C   UNL d   1      33.241  20.299 -22.406  0.00  0.00     0.002 A 
ATOM      9  C   UNL d   1      33.216  20.534 -23.197  0.00  0.00     0.002 A 
ENDROOT
BRANCH   1  10
ATOM     10  N   UNL d   1      32.330  17.126 -23.694  0.00  0.00    -0.133 N 
ATOM     11  C   UNL d   1      32.697  16.423 -23.632  0.00  0.00     0.125 A 
ATOM     12  C   UNL d   1      32.331  15.724 -23.858  0.00  0.00     0.142 A 
ATOM     13  O   UNL d   1      31.568  15.725 -24.157  0.00  0.00    -0.300 OA
ATOM     14  C   UNL d   1      31.167  16.487 -24.225  0.00  0.00     0.142 A 
ATOM     15  C   UNL d   1      31.553  17.159 -23.994  0.00  0.00     0.125 A 
ENDBRANCH   1  10
TORSDOF 1
ENDMDL
MODEL 9
REMARK VINA RESULT:      -1.9      1.922      2.806
REMARK  1 active torsions:
REMARK  status: ('A' for Active; 'I' for Inactive)
REMARK    1  A    between atoms: N_4  and  C_1 
ROOT
ATOM      1  C   UNL d   1      32.711  18.151 -23.556  0.00  0.00     0.735 A 
ATOM      2  N   UNL d   1      31.942  17.818 -23.587  0.00  0.00    -0.059 NA
ATOM      3  N   UNL d   1      33.237  17.504 -23.683  0.00  0.00    -0.059 NA
ATOM      4  C   UNL d   1      32.003  17.023 -23.725  0.00  0.00     0.118 A 
ATOM      5  C   UNL d   1      32.803  16.829 -23.784  0.00  0.00     0.118 A 
ATOM      6  C   UNL d   1      31.410  16.436 -23.805  0.00  0.00     0.021 A 
ATOM      7  C   UNL d   1      33.020  16.046 -23.924  0.00  0.00     0.021 A 
ATOM      8  C   UNL d   1      31.654  15.652 -23.946  0.00  0.00     0.002 A 
ATOM      9  C   UNL d   1      32.455  15.458 -24.006  0.00  0.00     0.002 A 
ENDROOT
BRANCH   1  10
ATOM     10  N   UNL d   1      32.863  18.942 -23.426  0.00  0.00    -0.133 N 
ATOM     11  C   UNL d   1      32.875  19.411 -22.783  0.00  0.00     0.125 A 
ATOM     12  C   UNL d   1      33.054  20.210 -22.834  0.00  0.00     0.142 A 
ATOM     13  O   UNL d   1      33.228  20.557 -23.556  0.00  0.00    -0.300 OA
ATOM     14  C   UNL d   1      33.215  20.052 -24.256  0.00  0.00     0.142 A 
ATOM     15  C   UNL d   1      33.036  19.268 -24.174  0.00  0.00     0.125 A 
ENDBRANCH   1  10
TORSDOF 1
ENDMDL
