MODEL 1
REMARK VINA RESULT:      96.8      0.000      0.000
REMARK  9 active torsions:
REMARK  status: ('A' for Active; 'I' for Inactive)
REMARK    1  A    between atoms: N_9  and  C_3 
REMARK    2  A    between atoms: S_14  and  C_6 
REMARK       I    between atoms: C_11  and  N_9 
REMARK    3  A    between atoms: C_18  and  C_11 
REMARK    4  A    between atoms: C_12  and  C_15 
REMARK    5  A    between atoms: O_25  and  C_12 
REMARK    6  A    between atoms: C_13  and  C_23 
REMARK       I    between atoms: N_16  and  C_13 
REMARK    7  A    between atoms: C_23  and  S_14 
REMARK    8  A    between atoms: C_24  and  N_16 
REMARK    9  A    between atoms: C_32  and  O_25 
ROOT
ATOM      1  C   UNL d   1      59.824  49.516  51.818  0.00  0.00     0.079 A 
ATOM      2  C   UNL d   1      60.619  49.377  52.032  0.00  0.00     0.187 A 
ATOM      3  C   UNL d   1      59.624  49.570  51.029  0.00  0.00     0.171 A 
ATOM      4  N   UNL d   1      61.199  49.295  51.453  0.00  0.00    -0.197 NA
ATOM      5  N   UNL d   1      60.191  49.490  50.436  0.00  0.00    -0.202 NA
ATOM      6  C   UNL d   1      60.987  49.351  50.650  0.00  0.00     0.198 A 
ATOM      7  C   UNL d   1      59.385  49.571  52.514  0.00  0.00     0.029 A 
ATOM      8  O   UNL d   1      60.662  49.348  52.863  0.00  0.00    -0.289 OA
ATOM      9  C   UNL d   1      59.894  49.469  53.157  0.00  0.00     0.102 A 
ATOM     10  C   UNL d   1      58.570  49.706  52.562  0.00  0.00     0.002 C 
ATOM     11  C   UNL d   1      59.682  49.484  53.954  0.00  0.00     0.027 C 
ENDROOT
BRANCH   6  12
ATOM     12  S   UNL d   1      61.568  49.269  50.062  0.00  0.00    -0.043 SA
BRANCH  12  13
ATOM     13  C   UNL d   1      61.503  48.677  49.498  0.00  0.00     0.101 C 
BRANCH  13  14
ATOM     14  C   UNL d   1      61.572  47.885  49.720  0.00  0.00     0.286 C 
ATOM     15  N   UNL d   1      61.711  47.313  49.149  0.00  0.00    -0.208 NA
ATOM     16  O   UNL d   1      61.502  47.668  50.513  0.00  0.00    -0.265 OA
BRANCH  15  17
ATOM     17  C   UNL d   1      61.782  46.518  49.361  0.00  0.00     0.085 A 
ATOM     18  C   UNL d   1      61.475  46.253  50.072  0.00  0.00     0.019 A 
ATOM     19  C   UNL d   1      61.550  45.456  50.274  0.00  0.00     0.007 A 
ATOM     20  C   UNL d   1      61.933  44.933  49.764  0.00  0.00     0.064 A 
ATOM     21  C   UNL d   1      62.244  45.208  49.044  0.00  0.00     0.007 A 
ATOM     22  C   UNL d   1      62.169  45.998  48.842  0.00  0.00     0.019 A 
BRANCH  20  23
ATOM     23  C   UNL d   1      62.009  44.132  49.969  0.00  0.00     0.300 C 
ATOM     24  O   UNL d   1      62.321  43.593  49.428  0.00  0.00    -0.259 OA
BRANCH  23  25
ATOM     25  O   UNL d   1      61.771  43.875  50.717  0.00  0.00    -0.271 OA
BRANCH  25  26
ATOM     26  C   UNL d   1      62.035  43.154  51.013  0.00  0.00     0.126 C 
ATOM     27  C   UNL d   1      62.743  42.836  50.750  0.00  0.00     0.029 C 
ENDBRANCH  25  26
ENDBRANCH  23  25
ENDBRANCH  20  23
ENDBRANCH  15  17
ENDBRANCH  13  14
ENDBRANCH  12  13
ENDBRANCH   6  12
BRANCH   3  28
ATOM     28  N   UNL d   1      58.838  49.706  50.817  0.00  0.00    -0.189 NA
ATOM     29  C   UNL d   1      58.387  49.094  50.484  0.00  0.00     0.281 C 
ATOM     30  O   UNL d   1      58.724  48.351  50.364  0.00  0.00    -0.265 OA
BRANCH  29  31
ATOM     31  C   UNL d   1      57.602  49.236  50.274  0.00  0.00     0.058 A 
ATOM     32  C   UNL d   1      57.428  49.550  49.536  0.00  0.00     0.005 A 
ATOM     33  C   UNL d   1      56.649  49.692  49.323  0.00  0.00     0.000 A 
ATOM     34  C   UNL d   1      56.035  49.523  49.845  0.00  0.00     0.000 A 
ATOM     35  C   UNL d   1      56.213  49.206  50.590  0.00  0.00     0.000 A 
ATOM     36  C   UNL d   1      57.001  49.062  50.805  0.00  0.00     0.005 A 
ENDBRANCH  29  31
ENDBRANCH   3  28
TORSDOF 9
ENDMDL
