MODEL 1
REMARK VINA RESULT:      77.0      0.000      0.000
REMARK  3 active torsions:
REMARK  status: ('A' for Active; 'I' for Inactive)
REMARK    1  A    between atoms: N_2  and  S_1 
REMARK    2  A    between atoms: C_3  and  S_1 
REMARK    3  A    between atoms: O_16  and  C_9 
ROOT
ATOM      1  S   UNL d   1     -47.611  30.920  35.079  0.00  0.00     0.274 S 
ATOM      2  O   UNL d   1     -47.750  30.476  34.398  0.00  0.00    -0.199 OA
ATOM      3  O   UNL d   1     -47.471  31.358  35.768  0.00  0.00    -0.199 OA
ENDROOT
BRANCH   1   4
ATOM      4  N   UNL d   1     -47.568  30.221  35.526  0.00  0.00    -0.214 N 
ATOM      5  C   UNL d   1     -47.143  30.118  36.225  0.00  0.00     0.157 A 
ATOM      6  N   UNL d   1     -47.257  29.341  36.478  0.00  0.00    -0.226 NA
ATOM      7  C   UNL d   1     -46.683  30.686  36.607  0.00  0.00     0.041 C 
ATOM      8  C   UNL d   1     -47.753  28.964  35.935  0.00  0.00     0.100 A 
ATOM      9  C   UNL d   1     -47.944  29.505  35.352  0.00  0.00     0.094 A 
ATOM     10  C   UNL d   1     -48.052  28.196  35.906  0.00  0.00     0.021 A 
ATOM     11  C   UNL d   1     -48.439  29.282  34.727  0.00  0.00     0.020 A 
ATOM     12  C   UNL d   1     -48.742  28.519  34.689  0.00  0.00     0.002 A 
ATOM     13  C   UNL d   1     -48.547  27.973  35.281  0.00  0.00     0.002 A 
ENDBRANCH   1   4
BRANCH   1  14
ATOM     14  C   UNL d   1     -47.653  31.615  34.635  0.00  0.00     0.126 A 
ATOM     15  C   UNL d   1     -48.296  32.123  34.722  0.00  0.00     0.015 A 
ATOM     16  C   UNL d   1     -48.338  32.818  34.278  0.00  0.00     0.001 A 
ATOM     17  C   UNL d   1     -48.973  33.316  34.367  0.00  0.00     0.000 C 
ATOM     18  C   UNL d   1     -47.731  33.002  33.744  0.00  0.00     0.002 A 
ATOM     19  C   UNL d   1     -47.089  32.494  33.657  0.00  0.00     0.025 A 
ATOM     20  C   UNL d   1     -47.775  33.688  33.307  0.00  0.00     0.000 C 
ATOM     21  C   UNL d   1     -47.050  31.800  34.103  0.00  0.00     0.106 A 
BRANCH  21  22
ATOM     22  O   UNL d   1     -46.411  31.293  34.017  0.00  0.00    -0.327 OA
ATOM     23  C   UNL d   1     -45.821  31.470  33.484  0.00  0.00     0.181 C 
ENDBRANCH  21  22
ENDBRANCH   1  14
TORSDOF 3
ENDMDL
MODEL 2
REMARK VINA RESULT:      78.0      1.050      3.677
REMARK  3 active torsions:
REMARK  status: ('A' for Active; 'I' for Inactive)
REMARK    1  A    between atoms: N_2  and  S_1 
REMARK    2  A    between atoms: C_3  and  S_1 
REMARK    3  A    between atoms: O_16  and  C_9 
ROOT
ATOM      1  S   UNL d   1     -47.694  30.823  35.034  0.00  0.00     0.274 S 
ATOM      2  O   UNL d   1     -48.279  31.067  35.563  0.00  0.00    -0.199 OA
ATOM      3  O   UNL d   1     -47.105  30.587  34.501  0.00  0.00    -0.199 OA
ENDROOT
BRANCH   1   4
ATOM      4  N   UNL d   1     -47.483  31.616  34.902  0.00  0.00    -0.214 N 
ATOM      5  C   UNL d   1     -46.889  32.031  35.297  0.00  0.00     0.157 A 
ATOM      6  N   UNL d   1     -46.871  32.797  34.992  0.00  0.00    -0.226 NA
ATOM      7  C   UNL d   1     -46.398  31.738  35.891  0.00  0.00     0.041 C 
ATOM      8  C   UNL d   1     -47.454  32.855  34.408  0.00  0.00     0.100 A 
ATOM      9  C   UNL d   1     -47.828  32.130  34.355  0.00  0.00     0.094 A 
ATOM     10  C   UNL d   1     -47.685  33.481  33.924  0.00  0.00     0.021 A 
ATOM     11  C   UNL d   1     -48.443  32.021  33.811  0.00  0.00     0.020 A 
ATOM     12  C   UNL d   1     -48.680  32.639  33.323  0.00  0.00     0.002 A 
ATOM     13  C   UNL d   1     -48.299  33.373  33.380  0.00  0.00     0.002 A 
ENDBRANCH   1   4
BRANCH   1  14
ATOM     14  C   UNL d   1     -47.904  30.035  35.164  0.00  0.00     0.126 A 
ATOM     15  C   UNL d   1     -48.407  29.649  34.639  0.00  0.00     0.015 A 
ATOM     16  C   UNL d   1     -48.617  28.860  34.769  0.00  0.00     0.001 A 
ATOM     17  C   UNL d   1     -49.113  28.483  34.248  0.00  0.00     0.000 C 
ATOM     18  C   UNL d   1     -48.319  28.460  35.431  0.00  0.00     0.002 A 
ATOM     19  C   UNL d   1     -47.816  28.846  35.956  0.00  0.00     0.025 A 
ATOM     20  C   UNL d   1     -48.527  27.683  35.557  0.00  0.00     0.000 C 
ATOM     21  C   UNL d   1     -47.608  29.634  35.823  0.00  0.00     0.106 A 
BRANCH  21  22
ATOM     22  O   UNL d   1     -47.108  30.020  36.345  0.00  0.00    -0.327 OA
ATOM     23  C   UNL d   1     -47.108  29.817  37.133  0.00  0.00     0.181 C 
ENDBRANCH  21  22
ENDBRANCH   1  14
TORSDOF 3
ENDMDL
