MODEL 1
REMARK VINA RESULT:      -9.3      0.000      0.000
REMARK  5 active torsions:
REMARK  status: ('A' for Active; 'I' for Inactive)
REMARK    1  A    between atoms: C_2  and  S_1 
REMARK    2  A    between atoms: N_3  and  S_1 
REMARK    3  A    between atoms: C_5  and  N_3 
REMARK    4  A    between atoms: C_14  and  C_9 
REMARK    5  A    between atoms: O_18  and  C_10 
ROOT
ATOM      1  C   UNL d   1      53.136  33.021  53.518  0.00  0.00     0.128 A 
ATOM      2  C   UNL d   1      53.751  33.007  54.074  0.00  0.00     0.015 A 
ATOM      3  C   UNL d   1      53.967  33.701  54.465  0.00  0.00     0.001 A 
ATOM      4  C   UNL d   1      52.744  33.734  53.359  0.00  0.00     0.106 A 
ATOM      5  C   UNL d   1      53.578  34.402  54.305  0.00  0.00     0.002 A 
ATOM      6  C   UNL d   1      52.966  34.424  53.753  0.00  0.00     0.025 A 
ENDROOT
BRANCH   1   7
ATOM      7  S   UNL d   1      52.914  32.331  53.124  0.00  0.00     0.288 S 
ATOM      8  O   UNL d   1      52.267  32.251  53.630  0.00  0.00    -0.198 OA
ATOM      9  O   UNL d   1      53.562  32.418  52.623  0.00  0.00    -0.198 OA
BRANCH   7  10
ATOM     10  N   UNL d   1      52.698  31.643  52.726  0.00  0.00    -0.139 NA
BRANCH  10  11
ATOM     11  C   UNL d   1      52.834  30.910  53.079  0.00  0.00     0.175 A 
ATOM     12  N   UNL d   1      52.205  30.482  53.395  0.00  0.00    -0.224 NA
ATOM     13  C   UNL d   1      52.334  29.754  53.748  0.00  0.00     0.112 A 
ATOM     14  C   UNL d   1      53.098  29.442  53.788  0.00  0.00     0.077 A 
ATOM     15  C   UNL d   1      53.727  29.871  53.471  0.00  0.00     0.016 A 
ATOM     16 CL   UNL d   1      53.232  28.714  54.139  0.00  0.00    -0.081 Cl
ATOM     17  C   UNL d   1      53.601  30.601  53.118  0.00  0.00     0.041 A 
ENDBRANCH  10  11
ENDBRANCH   7  10
ENDBRANCH   1   7
BRANCH   4  18
ATOM     18  O   UNL d   1      52.136  33.748  52.809  0.00  0.00    -0.327 OA
ATOM     19  C   UNL d   1      51.733  34.451  52.657  0.00  0.00     0.181 C 
ENDBRANCH   4  18
BRANCH   3  20
ATOM     20  C   UNL d   1      54.583  33.681  55.020  0.00  0.00     0.000 C 
ATOM     21  C   UNL d   1      54.472  33.322  55.751  0.00  0.00     0.000 C 
ATOM     22  C   UNL d   1      55.311  34.023  54.836  0.00  0.00     0.000 C 
ENDBRANCH   3  20
TORSDOF 5
ENDMDL
MODEL 2
REMARK VINA RESULT:      -9.0      2.036      3.701
REMARK  5 active torsions:
REMARK  status: ('A' for Active; 'I' for Inactive)
REMARK    1  A    between atoms: C_2  and  S_1 
REMARK    2  A    between atoms: N_3  and  S_1 
REMARK    3  A    between atoms: C_5  and  N_3 
REMARK    4  A    between atoms: C_14  and  C_9 
REMARK    5  A    between atoms: O_18  and  C_10 
ROOT
ATOM      1  C   UNL d   1      53.250  32.971  53.768  0.00  0.00     0.128 A 
ATOM      2  C   UNL d   1      52.994  32.252  53.445  0.00  0.00     0.015 A 
ATOM      3  C   UNL d   1      53.396  31.555  53.626  0.00  0.00     0.001 A 
ATOM      4  C   UNL d   1      53.909  32.983  54.272  0.00  0.00     0.106 A 
ATOM      5  C   UNL d   1      54.045  31.569  54.123  0.00  0.00     0.002 A 
ATOM      6  C   UNL d   1      54.305  32.281  54.448  0.00  0.00     0.025 A 
ENDROOT
BRANCH   1   7
ATOM      7  S   UNL d   1      52.854  33.673  53.592  0.00  0.00     0.288 S 
ATOM      8  O   UNL d   1      52.378  33.570  54.258  0.00  0.00    -0.198 OA
ATOM      9  O   UNL d   1      53.333  33.768  52.928  0.00  0.00    -0.198 OA
BRANCH   7  10
ATOM     10  N   UNL d   1      52.462  34.374  53.410  0.00  0.00    -0.139 NA
BRANCH  10  11
ATOM     11  C   UNL d   1      51.750  34.345  52.995  0.00  0.00     0.175 A 
ATOM     12  N   UNL d   1      51.035  34.330  53.403  0.00  0.00    -0.224 NA
ATOM     13  C   UNL d   1      50.324  34.301  52.997  0.00  0.00     0.112 A 
ATOM     14  C   UNL d   1      50.320  34.287  52.171  0.00  0.00     0.077 A 
ATOM     15  C   UNL d   1      51.036  34.303  51.762  0.00  0.00     0.016 A 
ATOM     16 CL   UNL d   1      49.612  34.259  51.759  0.00  0.00    -0.081 Cl
ATOM     17  C   UNL d   1      51.750  34.332  52.167  0.00  0.00     0.041 A 
ENDBRANCH  10  11
ENDBRANCH   7  10
ENDBRANCH   1   7
BRANCH   4  18
ATOM     18  O   UNL d   1      54.162  33.693  54.592  0.00  0.00    -0.327 OA
ATOM     19  C   UNL d   1      54.819  33.712  55.090  0.00  0.00     0.181 C 
ENDBRANCH   4  18
BRANCH   3  20
ATOM     20  C   UNL d   1      53.135  30.838  53.299  0.00  0.00     0.000 C 
ATOM     21  C   UNL d   1      52.756  30.827  52.570  0.00  0.00     0.000 C 
ATOM     22  C   UNL d   1      53.259  30.133  53.709  0.00  0.00     0.000 C 
ENDBRANCH   3  20
TORSDOF 5
ENDMDL
MODEL 3
REMARK VINA RESULT:      -8.8      1.027      2.280
REMARK  5 active torsions:
REMARK  status: ('A' for Active; 'I' for Inactive)
REMARK    1  A    between atoms: C_2  and  S_1 
REMARK    2  A    between atoms: N_3  and  S_1 
REMARK    3  A    between atoms: C_5  and  N_3 
REMARK    4  A    between atoms: C_14  and  C_9 
REMARK    5  A    between atoms: O_18  and  C_10 
ROOT
ATOM      1  C   UNL d   1      53.064  33.414  53.632  0.00  0.00     0.128 A 
ATOM      2  C   UNL d   1      52.375  33.443  53.172  0.00  0.00     0.015 A 
ATOM      3  C   UNL d   1      51.932  34.138  53.141  0.00  0.00     0.001 A 
ATOM      4  C   UNL d   1      53.302  34.084  54.057  0.00  0.00     0.106 A 
ATOM      5  C   UNL d   1      52.169  34.798  53.562  0.00  0.00     0.002 A 
ATOM      6  C   UNL d   1      52.853  34.776  54.021  0.00  0.00     0.025 A 
ENDROOT
BRANCH   1   7
ATOM      7  S   UNL d   1      53.513  32.722  53.667  0.00  0.00     0.288 S 
ATOM      8  O   UNL d   1      53.155  32.528  54.385  0.00  0.00    -0.198 OA
ATOM      9  O   UNL d   1      53.865  32.923  52.950  0.00  0.00    -0.198 OA
BRANCH   7  10
ATOM     10  N   UNL d   1      53.964  32.033  53.697  0.00  0.00    -0.139 NA
BRANCH  10  11
ATOM     11  C   UNL d   1      53.601  31.305  53.565  0.00  0.00     0.175 A 
ATOM     12  N   UNL d   1      53.295  31.126  52.821  0.00  0.00    -0.224 NA
ATOM     13  C   UNL d   1      52.933  30.404  52.682  0.00  0.00     0.112 A 
ATOM     14  C   UNL d   1      52.872  29.849  53.290  0.00  0.00     0.077 A 
ATOM     15  C   UNL d   1      53.179  30.028  54.035  0.00  0.00     0.016 A 
ATOM     16 CL   UNL d   1      52.511  29.124  53.157  0.00  0.00    -0.081 Cl
ATOM     17  C   UNL d   1      53.542  30.750  54.176  0.00  0.00     0.041 A 
ENDBRANCH  10  11
ENDBRANCH   7  10
ENDBRANCH   1   7
BRANCH   4  18
ATOM     18  O   UNL d   1      53.983  34.056  54.512  0.00  0.00    -0.327 OA
ATOM     19  C   UNL d   1      54.182  34.690  55.001  0.00  0.00     0.181 C 
ENDBRANCH   4  18
BRANCH   3  20
ATOM     20  C   UNL d   1      51.242  34.162  52.679  0.00  0.00     0.000 C 
ATOM     21  C   UNL d   1      51.290  34.286  51.868  0.00  0.00     0.000 C 
ATOM     22  C   UNL d   1      50.506  34.060  53.038  0.00  0.00     0.000 C 
ENDBRANCH   3  20
TORSDOF 5
ENDMDL
MODEL 4
REMARK VINA RESULT:      -8.4      1.917      3.234
REMARK  5 active torsions:
REMARK  status: ('A' for Active; 'I' for Inactive)
REMARK    1  A    between atoms: C_2  and  S_1 
REMARK    2  A    between atoms: N_3  and  S_1 
REMARK    3  A    between atoms: C_5  and  N_3 
REMARK    4  A    between atoms: C_14  and  C_9 
REMARK    5  A    between atoms: O_18  and  C_10 
ROOT
ATOM      1  C   UNL d   1      53.126  32.495  53.538  0.00  0.00     0.128 A 
ATOM      2  C   UNL d   1      53.408  33.145  53.969  0.00  0.00     0.015 A 
ATOM      3  C   UNL d   1      54.024  33.045  54.508  0.00  0.00     0.001 A 
ATOM      4  C   UNL d   1      53.468  31.749  53.653  0.00  0.00     0.106 A 
ATOM      5  C   UNL d   1      54.359  32.307  54.619  0.00  0.00     0.002 A 
ATOM      6  C   UNL d   1      54.084  31.656  54.194  0.00  0.00     0.025 A 
ENDROOT
BRANCH   1   7
ATOM      7  S   UNL d   1      52.510  32.588  52.998  0.00  0.00     0.288 S 
ATOM      8  O   UNL d   1      51.983  32.263  53.544  0.00  0.00    -0.198 OA
ATOM      9  O   UNL d   1      53.042  32.911  52.458  0.00  0.00    -0.198 OA
BRANCH   7  10
ATOM     10  N   UNL d   1      51.898  32.683  52.454  0.00  0.00    -0.139 NA
BRANCH  10  11
ATOM     11  C   UNL d   1      51.344  33.282  52.567  0.00  0.00     0.175 A 
ATOM     12  N   UNL d   1      50.734  33.181  53.113  0.00  0.00    -0.224 NA
ATOM     13  C   UNL d   1      50.180  33.772  53.231  0.00  0.00     0.112 A 
ATOM     14  C   UNL d   1      50.228  34.477  52.802  0.00  0.00     0.077 A 
ATOM     15  C   UNL d   1      50.838  34.577  52.256  0.00  0.00     0.016 A 
ATOM     16 CL   UNL d   1      49.675  35.072  52.917  0.00  0.00    -0.081 Cl
ATOM     17  C   UNL d   1      51.395  33.987  52.136  0.00  0.00     0.041 A 
ENDBRANCH  10  11
ENDBRANCH   7  10
ENDBRANCH   1   7
BRANCH   4  18
ATOM     18  O   UNL d   1      53.190  31.106  53.228  0.00  0.00    -0.327 OA
ATOM     19  C   UNL d   1      53.493  30.352  53.371  0.00  0.00     0.181 C 
ENDBRANCH   4  18
BRANCH   3  20
ATOM     20  C   UNL d   1      54.302  33.699  54.936  0.00  0.00     0.000 C 
ATOM     21  C   UNL d   1      53.786  34.298  55.160  0.00  0.00     0.000 C 
ATOM     22  C   UNL d   1      55.101  33.747  55.137  0.00  0.00     0.000 C 
ENDBRANCH   3  20
TORSDOF 5
ENDMDL
MODEL 5
REMARK VINA RESULT:      -6.4      1.901      3.560
REMARK  5 active torsions:
REMARK  status: ('A' for Active; 'I' for Inactive)
REMARK    1  A    between atoms: C_2  and  S_1 
REMARK    2  A    between atoms: N_3  and  S_1 
REMARK    3  A    between atoms: C_5  and  N_3 
REMARK    4  A    between atoms: C_14  and  C_9 
REMARK    5  A    between atoms: O_18  and  C_10 
ROOT
ATOM      1  C   UNL d   1      52.787  32.229  53.323  0.00  0.00     0.128 A 
ATOM      2  C   UNL d   1      52.419  32.969  53.259  0.00  0.00     0.015 A 
ATOM      3  C   UNL d   1      51.650  33.021  52.963  0.00  0.00     0.001 A 
ATOM      4  C   UNL d   1      52.379  31.547  53.089  0.00  0.00     0.106 A 
ATOM      5  C   UNL d   1      51.251  32.346  52.733  0.00  0.00     0.002 A 
ATOM      6  C   UNL d   1      51.611  31.606  52.794  0.00  0.00     0.025 A 
ENDROOT
BRANCH   1   7
ATOM      7  S   UNL d   1      53.556  32.170  53.618  0.00  0.00     0.288 S 
ATOM      8  O   UNL d   1      53.255  31.947  54.353  0.00  0.00    -0.198 OA
ATOM      9  O   UNL d   1      53.847  32.392  52.880  0.00  0.00    -0.198 OA
BRANCH   7  10
ATOM     10  N   UNL d   1      54.326  32.112  53.906  0.00  0.00    -0.139 NA
BRANCH  10  11
ATOM     11  C   UNL d   1      54.640  32.732  54.349  0.00  0.00     0.175 A 
ATOM     12  N   UNL d   1      54.441  32.812  55.144  0.00  0.00    -0.224 NA
ATOM     13  C   UNL d   1      54.750  33.426  55.591  0.00  0.00     0.112 A 
ATOM     14  C   UNL d   1      55.266  33.970  55.244  0.00  0.00     0.077 A 
ATOM     15  C   UNL d   1      55.465  33.889  54.448  0.00  0.00     0.016 A 
ATOM     16 CL   UNL d   1      55.578  34.586  55.686  0.00  0.00    -0.081 Cl
ATOM     17  C   UNL d   1      55.157  33.276  53.999  0.00  0.00     0.041 A 
ENDBRANCH  10  11
ENDBRANCH   7  10
ENDBRANCH   1   7
BRANCH   4  18
ATOM     18  O   UNL d   1      52.743  30.815  53.152  0.00  0.00    -0.327 OA
ATOM     19  C   UNL d   1      52.324  30.127  52.973  0.00  0.00     0.181 C 
ENDBRANCH   4  18
BRANCH   3  20
ATOM     20  C   UNL d   1      51.287  33.764  52.902  0.00  0.00     0.000 C 
ATOM     21  C   UNL d   1      51.548  34.310  52.346  0.00  0.00     0.000 C 
ATOM     22  C   UNL d   1      50.659  33.955  53.402  0.00  0.00     0.000 C 
ENDBRANCH   3  20
TORSDOF 5
ENDMDL
