MODEL 1
REMARK VINA RESULT:      60.6      0.000      0.000
REMARK  4 active torsions:
REMARK  status: ('A' for Active; 'I' for Inactive)
REMARK    1  A    between atoms: C_10  and  N_2 
REMARK    2  A    between atoms: C_7  and  N_4 
REMARK    3  A    between atoms: C_11  and  C_7 
REMARK    4  A    between atoms: O_22  and  C_18 
ROOT
ATOM      1  S   UNL d   1     -54.715-102.112 -42.861  0.00  0.00     0.276 S 
ATOM      2  N   UNL d   1     -54.714-101.533 -42.270  0.00  0.00    -0.184 N 
ATOM      3  C   UNL d   1     -54.714-100.729 -42.482  0.00  0.00     0.348 A 
ATOM      4  N   UNL d   1     -54.714-100.516 -43.281  0.00  0.00    -0.258 N 
ATOM      5  C   UNL d   1     -54.715-101.899 -43.658  0.00  0.00     0.120 A 
ATOM      6  C   UNL d   1     -54.714-101.094 -43.869  0.00  0.00     0.081 A 
ATOM      7  O   UNL d   1     -54.715-102.872 -43.213  0.00  0.00    -0.199 OA
ATOM      8  O   UNL d   1     -54.714-102.466 -42.109  0.00  0.00    -0.199 OA
ATOM      9  O   UNL d   1     -54.713-100.136 -41.889  0.00  0.00    -0.245 OA
ATOM     10  C   UNL d   1     -54.715-102.475 -44.241  0.00  0.00     0.014 A 
ATOM     11  C   UNL d   1     -54.715-100.872 -44.663  0.00  0.00     0.018 A 
ATOM     12  C   UNL d   1     -54.716-102.263 -45.042  0.00  0.00     0.001 A 
ATOM     13  C   UNL d   1     -54.715-101.458 -45.253  0.00  0.00     0.002 A 
ENDROOT
BRANCH   2  14
ATOM     14  C   UNL d   1     -54.714-101.748 -41.477  0.00  0.00     0.079 A 
ATOM     15  C   UNL d   1     -54.712-102.545 -41.258  0.00  0.00     0.020 A 
ATOM     16  C   UNL d   1     -54.712-102.762 -40.463  0.00  0.00     0.026 A 
ATOM     17  C   UNL d   1     -54.713-102.175 -39.875  0.00  0.00     0.094 A 
ATOM     18  C   UNL d   1     -54.714-101.376 -40.088  0.00  0.00     0.026 A 
ATOM     19  C   UNL d   1     -54.714-101.160 -40.890  0.00  0.00     0.020 A 
BRANCH  17  20
ATOM     20  O   UNL d   1     -54.713-102.388 -39.065  0.00  0.00    -0.328 OA
ATOM     21  C   UNL d   1     -55.412-102.608 -38.699  0.00  0.00     0.181 C 
ENDBRANCH  17  20
ENDBRANCH   2  14
BRANCH   4  22
ATOM     22  C   UNL d   1     -54.713 -99.713 -43.493  0.00  0.00     0.087 C 
BRANCH  22  23
ATOM     23  C   UNL d   1     -55.347 -99.398 -43.909  0.00  0.00     0.045 A 
ATOM     24  C   UNL d   1     -55.975 -99.074 -43.494  0.00  0.00     0.141 A 
ATOM     25  F   UNL d   1     -55.975 -99.061 -42.676  0.00  0.00    -0.204 F 
ATOM     26  C   UNL d   1     -56.609 -98.759 -43.914  0.00  0.00     0.030 A 
ATOM     27  C   UNL d   1     -56.611 -98.770 -44.735  0.00  0.00     0.002 A 
ATOM     28  C   UNL d   1     -55.978 -99.097 -45.139  0.00  0.00     0.000 A 
ATOM     29  C   UNL d   1     -55.345 -99.411 -44.726  0.00  0.00     0.004 A 
ENDBRANCH  22  23
ENDBRANCH   4  22
TORSDOF 4
ENDMDL
