MODEL 1
REMARK VINA RESULT:      -9.1      0.000      0.000
REMARK  2 active torsions:
REMARK  status: ('A' for Active; 'I' for Inactive)
REMARK    1  A    between atoms: C_6  and  C_1 
REMARK    2  A    between atoms: O_12  and  C_9 
ROOT
ATOM      1  C   UNL d   1      53.035  31.652  53.254  0.00  0.00     0.123 A 
ATOM      2  C   UNL d   1      52.585  32.289  52.984  0.00  0.00     0.305 A 
ATOM      3  O   UNL d   1      52.700  33.026  53.295  0.00  0.00    -0.271 OA
ATOM      4  C   UNL d   1      53.589  31.770  53.828  0.00  0.00     0.012 A 
ATOM      5  C   UNL d   1      53.276  33.164  53.896  0.00  0.00     0.125 A 
ATOM      6  C   UNL d   1      53.726  32.527  54.166  0.00  0.00     0.025 A 
ATOM      7  O   UNL d   1      52.030  32.176  52.410  0.00  0.00    -0.259 OA
ATOM      8  C   UNL d   1      53.402  33.914  54.221  0.00  0.00     0.117 A 
ATOM      9  C   UNL d   1      54.290  32.658  54.753  0.00  0.00     0.002 A 
ATOM     10  C   UNL d   1      54.420  33.407  55.082  0.00  0.00     0.002 A 
ATOM     11  C   UNL d   1      53.970  34.043  54.813  0.00  0.00     0.026 A 
ENDROOT
BRANCH   1  12
ATOM     12  C   UNL d   1      52.935  30.896  52.952  0.00  0.00     0.302 C 
ATOM     13  O   UNL d   1      53.255  30.681  52.198  0.00  0.00    -0.263 OA
ATOM     14  N   UNL d   1      52.511  30.351  53.408  0.00  0.00    -0.102 N 
ENDBRANCH   1  12
BRANCH   8  15
ATOM     15  O   UNL d   1      52.956  34.544  53.954  0.00  0.00    -0.326 OA
ATOM     16  C   UNL d   1      53.043  35.275  54.289  0.00  0.00     0.181 C 
ENDBRANCH   8  15
TORSDOF 2
ENDMDL
MODEL 2
REMARK VINA RESULT:      -8.8      1.738      2.515
REMARK  2 active torsions:
REMARK  status: ('A' for Active; 'I' for Inactive)
REMARK    1  A    between atoms: C_6  and  C_1 
REMARK    2  A    between atoms: O_12  and  C_9 
ROOT
ATOM      1  C   UNL d   1      51.882  33.908  52.964  0.00  0.00     0.123 A 
ATOM      2  C   UNL d   1      52.260  34.460  53.447  0.00  0.00     0.305 A 
ATOM      3  O   UNL d   1      52.916  34.247  53.867  0.00  0.00    -0.271 OA
ATOM      4  C   UNL d   1      52.171  33.157  52.915  0.00  0.00     0.012 A 
ATOM      5  C   UNL d   1      53.230  33.466  53.825  0.00  0.00     0.125 A 
ATOM      6  C   UNL d   1      52.852  32.913  53.342  0.00  0.00     0.025 A 
ATOM      7  O   UNL d   1      51.974  35.213  53.500  0.00  0.00    -0.259 OA
ATOM      8  C   UNL d   1      53.901  33.237  54.251  0.00  0.00     0.117 A 
ATOM      9  C   UNL d   1      53.156  32.148  53.299  0.00  0.00     0.002 A 
ATOM     10  C   UNL d   1      53.828  31.913  53.723  0.00  0.00     0.002 A 
ATOM     11  C   UNL d   1      54.206  32.466  54.205  0.00  0.00     0.026 A 
ENDROOT
BRANCH   1  12
ATOM     12  C   UNL d   1      51.214  34.103  52.529  0.00  0.00     0.302 C 
ATOM     13  O   UNL d   1      51.274  34.324  51.714  0.00  0.00    -0.263 OA
ATOM     14  N   UNL d   1      50.481  34.075  52.913  0.00  0.00    -0.102 N 
ENDBRANCH   1  12
BRANCH   8  15
ATOM     15  O   UNL d   1      54.275  33.784  54.728  0.00  0.00    -0.326 OA
ATOM     16  C   UNL d   1      54.933  33.574  55.151  0.00  0.00     0.181 C 
ENDBRANCH   8  15
TORSDOF 2
ENDMDL
MODEL 3
REMARK VINA RESULT:      -8.6      1.710      2.925
REMARK  2 active torsions:
REMARK  status: ('A' for Active; 'I' for Inactive)
REMARK    1  A    between atoms: C_6  and  C_1 
REMARK    2  A    between atoms: O_12  and  C_9 
ROOT
ATOM      1  C   UNL d   1      54.201  33.602  54.781  0.00  0.00     0.123 A 
ATOM      2  C   UNL d   1      53.593  34.160  54.791  0.00  0.00     0.305 A 
ATOM      3  O   UNL d   1      52.931  34.045  54.342  0.00  0.00    -0.271 OA
ATOM      4  C   UNL d   1      54.130  32.944  54.322  0.00  0.00     0.012 A 
ATOM      5  C   UNL d   1      52.843  33.361  53.857  0.00  0.00     0.125 A 
ATOM      6  C   UNL d   1      53.450  32.803  53.847  0.00  0.00     0.025 A 
ATOM      7  O   UNL d   1      53.660  34.821  55.250  0.00  0.00    -0.259 OA
ATOM      8  C   UNL d   1      52.169  33.233  53.394  0.00  0.00     0.117 A 
ATOM      9  C   UNL d   1      53.368  32.132  53.374  0.00  0.00     0.002 A 
ATOM     10  C   UNL d   1      52.696  31.999  52.908  0.00  0.00     0.002 A 
ATOM     11  C   UNL d   1      52.089  32.557  52.918  0.00  0.00     0.026 A 
ENDROOT
BRANCH   1  12
ATOM     12  C   UNL d   1      54.881  33.699  55.229  0.00  0.00     0.302 C 
ATOM     13  O   UNL d   1      55.546  34.128  54.925  0.00  0.00    -0.263 OA
ATOM     14  N   UNL d   1      54.897  33.365  55.986  0.00  0.00    -0.102 N 
ENDBRANCH   1  12
BRANCH   8  15
ATOM     15  O   UNL d   1      51.568  33.785  53.405  0.00  0.00    -0.326 OA
ATOM     16  C   UNL d   1      50.890  33.657  52.982  0.00  0.00     0.181 C 
ENDBRANCH   8  15
TORSDOF 2
ENDMDL
MODEL 4
REMARK VINA RESULT:      -8.4      1.685      3.410
REMARK  2 active torsions:
REMARK  status: ('A' for Active; 'I' for Inactive)
REMARK    1  A    between atoms: C_6  and  C_1 
REMARK    2  A    between atoms: O_12  and  C_9 
ROOT
ATOM      1  C   UNL d   1      53.726  33.406  54.574  0.00  0.00     0.123 A 
ATOM      2  C   UNL d   1      54.029  32.742  54.960  0.00  0.00     0.305 A 
ATOM      3  O   UNL d   1      53.889  32.004  54.663  0.00  0.00    -0.271 OA
ATOM      4  C   UNL d   1      53.292  33.313  53.902  0.00  0.00     0.012 A 
ATOM      5  C   UNL d   1      53.437  31.891  53.961  0.00  0.00     0.125 A 
ATOM      6  C   UNL d   1      53.134  32.555  53.575  0.00  0.00     0.025 A 
ATOM      7  O   UNL d   1      54.464  32.831  55.634  0.00  0.00    -0.259 OA
ATOM      8  C   UNL d   1      53.288  31.140  53.648  0.00  0.00     0.117 A 
ATOM      9  C   UNL d   1      52.691  32.449  52.887  0.00  0.00     0.002 A 
ATOM     10  C   UNL d   1      52.539  31.699  52.570  0.00  0.00     0.002 A 
ATOM     11  C   UNL d   1      52.841  31.036  52.956  0.00  0.00     0.026 A 
ENDROOT
BRANCH   1  12
ATOM     12  C   UNL d   1      53.856  34.165  54.858  0.00  0.00     0.302 C 
ATOM     13  O   UNL d   1      54.629  34.511  54.841  0.00  0.00    -0.263 OA
ATOM     14  N   UNL d   1      53.207  34.581  55.161  0.00  0.00    -0.102 N 
ENDBRANCH   1  12
BRANCH   8  15
ATOM     15  O   UNL d   1      53.587  30.483  54.030  0.00  0.00    -0.326 OA
ATOM     16  C   UNL d   1      53.364  29.740  53.799  0.00  0.00     0.181 C 
ENDBRANCH   8  15
TORSDOF 2
ENDMDL
MODEL 5
REMARK VINA RESULT:      -8.2      1.573      3.104
REMARK  2 active torsions:
REMARK  status: ('A' for Active; 'I' for Inactive)
REMARK    1  A    between atoms: C_6  and  C_1 
REMARK    2  A    between atoms: O_12  and  C_9 
ROOT
ATOM      1  C   UNL d   1      53.109  34.660  54.128  0.00  0.00     0.123 A 
ATOM      2  C   UNL d   1      52.727  34.402  53.444  0.00  0.00     0.305 A 
ATOM      3  O   UNL d   1      52.769  33.625  53.227  0.00  0.00    -0.271 OA
ATOM      4  C   UNL d   1      53.522  34.134  54.578  0.00  0.00     0.012 A 
ATOM      5  C   UNL d   1      53.197  33.063  53.687  0.00  0.00     0.125 A 
ATOM      6  C   UNL d   1      53.579  33.321  54.372  0.00  0.00     0.025 A 
ATOM      7  O   UNL d   1      52.312  34.925  52.991  0.00  0.00    -0.259 OA
ATOM      8  C   UNL d   1      53.246  32.265  53.474  0.00  0.00     0.117 A 
ATOM      9  C   UNL d   1      54.000  32.775  54.824  0.00  0.00     0.002 A 
ATOM     10  C   UNL d   1      54.052  31.975  54.616  0.00  0.00     0.002 A 
ATOM     11  C   UNL d   1      53.670  31.716  53.932  0.00  0.00     0.026 A 
ENDROOT
BRANCH   1  12
ATOM     12  C   UNL d   1      53.079  35.445  54.367  0.00  0.00     0.302 C 
ATOM     13  O   UNL d   1      53.696  35.987  54.159  0.00  0.00    -0.263 OA
ATOM     14  N   UNL d   1      52.428  35.689  54.816  0.00  0.00    -0.102 N 
ENDBRANCH   1  12
BRANCH   8  15
ATOM     15  O   UNL d   1      52.869  32.009  52.798  0.00  0.00    -0.326 OA
ATOM     16  C   UNL d   1      52.745  31.219  52.673  0.00  0.00     0.181 C 
ENDBRANCH   8  15
TORSDOF 2
ENDMDL
