MODEL 1
REMARK VINA RESULT:      -8.1      0.000      0.000
REMARK  4 active torsions:
REMARK  status: ('A' for Active; 'I' for Inactive)
REMARK    1  A    between atoms: C_11  and  C_9 
REMARK       I    between atoms: N_17  and  C_11 
REMARK    2  A    between atoms: C_19  and  N_17 
REMARK    3  A    between atoms: C_20  and  C_19 
REMARK    4  A    between atoms: C_21  and  C_20 
ROOT
ATOM      1  C   UNL d   1     -48.088  13.451  22.211  0.00  0.00     0.081 A 
ATOM      2  C   UNL d   1     -47.936  14.059  22.747  0.00  0.00     0.117 A 
ATOM      3  N   UNL d   1     -48.539  14.591  22.943  0.00  0.00    -0.221 NA
ATOM      4  N   UNL d   1     -49.431  13.904  22.071  0.00  0.00    -0.258 N 
ATOM      5  C   UNL d   1     -49.287  14.514  22.606  0.00  0.00     0.151 A 
ATOM      6  C   UNL d   1     -48.837  13.366  21.866  0.00  0.00     0.268 A 
ATOM      7  C   UNL d   1     -47.392  13.011  22.122  0.00  0.00     0.018 A 
ATOM      8  S   UNL d   1     -47.155  13.994  22.985  0.00  0.00    -0.063 SA
ATOM      9  C   UNL d   1     -46.818  13.349  22.601  0.00  0.00     0.089 A 
ATOM     10  C   UNL d   1     -49.876  15.039  22.801  0.00  0.00     0.035 A 
ATOM     11  C   UNL d   1     -50.180  13.822  21.728  0.00  0.00     0.084 A 
ATOM     12  O   UNL d   1     -48.983  12.762  21.335  0.00  0.00    -0.267 OA
ATOM     13  C   UNL d   1     -50.769  14.359  21.934  0.00  0.00     0.019 A 
ATOM     14  C   UNL d   1     -50.618  14.967  22.469  0.00  0.00     0.004 A 
ATOM     15  C   UNL d   1     -49.721  15.645  23.338  0.00  0.00     0.003 C 
ENDROOT
BRANCH   9  16
ATOM     16  C   UNL d   1     -46.040  13.084  22.681  0.00  0.00     0.285 C 
ATOM     17  O   UNL d   1     -45.805  12.696  23.367  0.00  0.00    -0.265 OA
ATOM     18  N   UNL d   1     -45.498  13.209  22.073  0.00  0.00    -0.206 NA
BRANCH  18  19
ATOM     19  C   UNL d   1     -44.720  12.945  22.153  0.00  0.00     0.102 C 
BRANCH  19  20
ATOM     20  C   UNL d   1     -44.194  13.021  21.539  0.00  0.00     0.021 C 
BRANCH  20  21
ATOM     21  C   UNL d   1     -43.452  12.644  21.569  0.00  0.00     0.002 C 
ATOM     22  C   UNL d   1     -42.799  12.980  21.209  0.00  0.00     0.000 C 
ENDBRANCH  20  21
ENDBRANCH  19  20
ENDBRANCH  18  19
ENDBRANCH   9  16
TORSDOF 4
ENDMDL
MODEL 2
REMARK VINA RESULT:      -7.5      1.203      1.391
REMARK  4 active torsions:
REMARK  status: ('A' for Active; 'I' for Inactive)
REMARK    1  A    between atoms: C_11  and  C_9 
REMARK       I    between atoms: N_17  and  C_11 
REMARK    2  A    between atoms: C_19  and  N_17 
REMARK    3  A    between atoms: C_20  and  C_19 
REMARK    4  A    between atoms: C_21  and  C_20 
ROOT
ATOM      1  C   UNL d   1     -48.179  13.251  22.264  0.00  0.00     0.081 A 
ATOM      2  C   UNL d   1     -47.988  13.872  22.773  0.00  0.00     0.117 A 
ATOM      3  N   UNL d   1     -48.559  14.446  22.948  0.00  0.00    -0.221 NA
ATOM      4  N   UNL d   1     -49.495  13.775  22.110  0.00  0.00    -0.258 N 
ATOM      5  C   UNL d   1     -49.312  14.399  22.617  0.00  0.00     0.151 A 
ATOM      6  C   UNL d   1     -48.934  13.195  21.926  0.00  0.00     0.268 A 
ATOM      7  C   UNL d   1     -47.510  12.768  22.192  0.00  0.00     0.018 A 
ATOM      8  S   UNL d   1     -47.211  13.772  23.010  0.00  0.00    -0.063 SA
ATOM      9  C   UNL d   1     -46.914  13.093  22.654  0.00  0.00     0.089 A 
ATOM     10  C   UNL d   1     -49.868  14.964  22.791  0.00  0.00     0.035 A 
ATOM     11  C   UNL d   1     -50.249  13.722  21.774  0.00  0.00     0.084 A 
ATOM     12  O   UNL d   1     -49.118  12.578  21.423  0.00  0.00    -0.267 OA
ATOM     13  C   UNL d   1     -50.805  14.301  21.958  0.00  0.00     0.019 A 
ATOM     14  C   UNL d   1     -50.615  14.921  22.466  0.00  0.00     0.004 A 
ATOM     15  C   UNL d   1     -49.675  15.584  23.300  0.00  0.00     0.003 C 
ENDROOT
BRANCH   9  16
ATOM     16  C   UNL d   1     -46.153  12.787  22.742  0.00  0.00     0.285 C 
ATOM     17  O   UNL d   1     -45.498  13.256  22.573  0.00  0.00    -0.265 OA
ATOM     18  N   UNL d   1     -46.046  12.012  22.999  0.00  0.00    -0.206 NA
BRANCH  18  19
ATOM     19  C   UNL d   1     -45.285  11.707  23.088  0.00  0.00     0.102 C 
BRANCH  19  20
ATOM     20  C   UNL d   1     -45.167  10.992  23.456  0.00  0.00     0.021 C 
BRANCH  20  21
ATOM     21  C   UNL d   1     -44.437  10.598  23.389  0.00  0.00     0.002 C 
ATOM     22  C   UNL d   1     -44.340   9.845  23.695  0.00  0.00     0.000 C 
ENDBRANCH  20  21
ENDBRANCH  19  20
ENDBRANCH  18  19
ENDBRANCH   9  16
TORSDOF 4
ENDMDL
MODEL 3
REMARK VINA RESULT:      -5.8      1.712      5.004
REMARK  4 active torsions:
REMARK  status: ('A' for Active; 'I' for Inactive)
REMARK    1  A    between atoms: C_11  and  C_9 
REMARK       I    between atoms: N_17  and  C_11 
REMARK    2  A    between atoms: C_19  and  N_17 
REMARK    3  A    between atoms: C_20  and  C_19 
REMARK    4  A    between atoms: C_21  and  C_20 
ROOT
ATOM      1  C   UNL d   1     -46.601  12.288  23.200  0.00  0.00     0.081 A 
ATOM      2  C   UNL d   1     -45.952  12.721  22.932  0.00  0.00     0.117 A 
ATOM      3  N   UNL d   1     -45.207  12.361  22.896  0.00  0.00    -0.221 NA
ATOM      4  N   UNL d   1     -45.766  11.149  23.392  0.00  0.00    -0.258 N 
ATOM      5  C   UNL d   1     -45.113  11.576  23.126  0.00  0.00     0.151 A 
ATOM      6  C   UNL d   1     -46.516  11.497  23.433  0.00  0.00     0.268 A 
ATOM      7  C   UNL d   1     -47.264  12.783  23.176  0.00  0.00     0.018 A 
ATOM      8  S   UNL d   1     -46.214  13.475  22.746  0.00  0.00    -0.063 SA
ATOM      9  C   UNL d   1     -47.022  13.515  22.896  0.00  0.00     0.089 A 
ATOM     10  C   UNL d   1     -44.381  11.227  23.089  0.00  0.00     0.035 A 
ATOM     11  C   UNL d   1     -45.678  10.360  23.624  0.00  0.00     0.084 A 
ATOM     12  O   UNL d   1     -47.161  11.071  23.698  0.00  0.00    -0.267 OA
ATOM     13  C   UNL d   1     -44.931  10.017  23.582  0.00  0.00     0.019 A 
ATOM     14  C   UNL d   1     -44.283  10.449  23.315  0.00  0.00     0.004 A 
ATOM     15  C   UNL d   1     -43.734  11.663  22.820  0.00  0.00     0.003 C 
ENDROOT
BRANCH   9  16
ATOM     16  C   UNL d   1     -47.507  14.173  22.785  0.00  0.00     0.285 C 
ATOM     17  O   UNL d   1     -47.175  14.923  22.707  0.00  0.00    -0.265 OA
ATOM     18  N   UNL d   1     -48.325  14.082  22.752  0.00  0.00    -0.206 NA
BRANCH  18  19
ATOM     19  C   UNL d   1     -48.810  14.740  22.641  0.00  0.00     0.102 C 
BRANCH  19  20
ATOM     20  C   UNL d   1     -49.613  14.684  22.752  0.00  0.00     0.021 C 
BRANCH  20  21
ATOM     21  C   UNL d   1     -50.088  15.368  22.753  0.00  0.00     0.002 C 
ATOM     22  C   UNL d   1     -50.822  15.364  23.115  0.00  0.00     0.000 C 
ENDBRANCH  20  21
ENDBRANCH  19  20
ENDBRANCH  18  19
ENDBRANCH   9  16
TORSDOF 4
ENDMDL
MODEL 4
REMARK VINA RESULT:      -5.5      1.180      1.475
REMARK  4 active torsions:
REMARK  status: ('A' for Active; 'I' for Inactive)
REMARK    1  A    between atoms: C_11  and  C_9 
REMARK       I    between atoms: N_17  and  C_11 
REMARK    2  A    between atoms: C_19  and  N_17 
REMARK    3  A    between atoms: C_20  and  C_19 
REMARK    4  A    between atoms: C_21  and  C_20 
ROOT
ATOM      1  C   UNL d   1     -47.273  12.492  23.012  0.00  0.00     0.081 A 
ATOM      2  C   UNL d   1     -47.114  13.182  22.588  0.00  0.00     0.117 A 
ATOM      3  N   UNL d   1     -47.729  13.712  22.425  0.00  0.00    -0.221 NA
ATOM      4  N   UNL d   1     -48.646  12.863  23.108  0.00  0.00    -0.258 N 
ATOM      5  C   UNL d   1     -48.495  13.554  22.684  0.00  0.00     0.151 A 
ATOM      6  C   UNL d   1     -48.041  12.324  23.278  0.00  0.00     0.268 A 
ATOM      7  C   UNL d   1     -46.564  12.073  23.092  0.00  0.00     0.018 A 
ATOM      8  S   UNL d   1     -46.315  13.186  22.408  0.00  0.00    -0.063 SA
ATOM      9  C   UNL d   1     -45.974  12.504  22.718  0.00  0.00     0.089 A 
ATOM     10  C   UNL d   1     -49.094  14.077  22.521  0.00  0.00     0.035 A 
ATOM     11  C   UNL d   1     -49.413  12.699  23.371  0.00  0.00     0.084 A 
ATOM     12  O   UNL d   1     -48.195  11.641  23.698  0.00  0.00    -0.267 OA
ATOM     13  C   UNL d   1     -50.013  13.236  23.200  0.00  0.00     0.019 A 
ATOM     14  C   UNL d   1     -49.854  13.925  22.776  0.00  0.00     0.004 A 
ATOM     15  C   UNL d   1     -48.931  14.765  22.097  0.00  0.00     0.003 C 
ENDROOT
BRANCH   9  16
ATOM     16  C   UNL d   1     -45.180  12.287  22.664  0.00  0.00     0.285 C 
ATOM     17  O   UNL d   1     -44.891  11.663  23.116  0.00  0.00    -0.265 OA
ATOM     18  N   UNL d   1     -44.674  12.695  22.157  0.00  0.00    -0.206 NA
BRANCH  18  19
ATOM     19  C   UNL d   1     -43.880  12.479  22.104  0.00  0.00     0.102 C 
BRANCH  19  20
ATOM     20  C   UNL d   1     -43.476  12.565  21.404  0.00  0.00     0.021 C 
BRANCH  20  21
ATOM     21  C   UNL d   1     -42.644  12.618  21.401  0.00  0.00     0.002 C 
ATOM     22  C   UNL d   1     -42.272  13.328  21.238  0.00  0.00     0.000 C 
ENDBRANCH  20  21
ENDBRANCH  19  20
ENDBRANCH  18  19
ENDBRANCH   9  16
TORSDOF 4
ENDMDL
