MODEL 1
REMARK VINA RESULT:      34.1      0.000      0.000
REMARK  5 active torsions:
REMARK  status: ('A' for Active; 'I' for Inactive)
REMARK    1  A    between atoms: N_2  and  S_1 
REMARK    2  A    between atoms: C_3  and  S_1 
REMARK    3  A    between atoms: C_4  and  N_2 
REMARK    4  A    between atoms: C_5  and  C_4 
REMARK       I    between atoms: C_8  and  N_9 
REMARK    5  A    between atoms: N_9  and  C_14 
ROOT
ATOM      1  C   UNL d   1     -54.834-102.168 -41.282  0.00  0.00     0.105 A 
ATOM      2  C   UNL d   1     -54.712-101.471 -40.842  0.00  0.00     0.015 A 
ATOM      3  C   UNL d   1     -55.034-102.868 -40.899  0.00  0.00     0.015 A 
ATOM      4  C   UNL d   1     -54.991-102.183 -39.639  0.00  0.00     0.085 A 
ATOM      5  C   UNL d   1     -55.112-102.873 -40.075  0.00  0.00     0.020 A 
ATOM      6  C   UNL d   1     -54.791-101.482 -40.022  0.00  0.00     0.020 A 
ENDROOT
BRANCH   1   7
ATOM      7  S   UNL d   1     -54.755-102.156 -42.102  0.00  0.00     0.285 S 
ATOM      8  O   UNL d   1     -54.714-102.864 -42.523  0.00  0.00    -0.198 OA
ATOM      9  O   UNL d   1     -54.776-101.359 -41.885  0.00  0.00    -0.198 OA
BRANCH   7  10
ATOM     10  N   UNL d   1     -54.716-101.436 -42.510  0.00  0.00    -0.150 NA
BRANCH  10  11
ATOM     11  C   UNL d   1     -55.382-101.132 -42.884  0.00  0.00     0.182 C 
BRANCH  11  12
ATOM     12  C   UNL d   1     -55.309-100.681 -43.568  0.00  0.00     0.232 C 
ATOM     13  O   UNL d   1     -54.983 -99.925 -43.522  0.00  0.00    -0.643 OA
ATOM     14  O   UNL d   1     -55.557-100.980 -44.294  0.00  0.00    -0.643 OA
ENDBRANCH  11  12
ENDBRANCH  10  11
ENDBRANCH   7  10
ENDBRANCH   1   7
BRANCH   4  15
ATOM     15  N   UNL d   1     -55.071-102.196 -38.816  0.00  0.00    -0.208 NA
ATOM     16  C   UNL d   1     -55.738-102.535 -38.473  0.00  0.00     0.279 C 
ATOM     17  O   UNL d   1     -56.327-102.862 -38.949  0.00  0.00    -0.265 OA
ATOM     18  C   UNL d   1     -55.820-102.549 -37.646  0.00  0.00     0.068 C 
ENDBRANCH   4  15
TORSDOF 5
ENDMDL
