MODEL 1
REMARK VINA RESULT:      -3.0      0.000      0.000
REMARK  2 active torsions:
REMARK  status: ('A' for Active; 'I' for Inactive)
REMARK    1  A    between atoms: C_12  and  C_4 
REMARK    2  A    between atoms: O_14  and  C_10 
ROOT
ATOM      1  C   UNL d   1      33.020  19.487 -23.479  0.00  0.00     0.101 A 
ATOM      2  C   UNL d   1      32.948  19.135 -24.225  0.00  0.00     0.203 A 
ATOM      3  C   UNL d   1      32.802  18.324 -24.279  0.00  0.00     0.067 A 
ATOM      4  C   UNL d   1      32.728  17.873 -23.602  0.00  0.00     0.103 A 
ATOM      5  C   UNL d   1      32.946  19.036 -22.802  0.00  0.00     0.108 A 
ATOM      6  O   UNL d   1      32.799  18.224 -22.858  0.00  0.00    -0.307 OA
ATOM      7  C   UNL d   1      33.165  20.295 -23.428  0.00  0.00     0.203 A 
ATOM      8  C   UNL d   1      33.016  19.384 -22.061  0.00  0.00     0.049 A 
ATOM      9  C   UNL d   1      33.239  20.660 -22.673  0.00  0.00     0.066 A 
ATOM     10  C   UNL d   1      33.165  20.209 -21.996  0.00  0.00     0.099 A 
ATOM     11  O   UNL d   1      33.024  19.600 -24.921  0.00  0.00    -0.286 OA
ATOM     12  O   UNL d   1      33.241  20.760 -24.124  0.00  0.00    -0.286 OA
ENDROOT
BRANCH   4  13
ATOM     13  C   UNL d   1      32.584  17.070 -23.651  0.00  0.00     0.023 A 
ATOM     14  C   UNL d   1      31.806  16.797 -23.603  0.00  0.00     0.002 A 
ATOM     15  C   UNL d   1      31.658  15.990 -23.652  0.00  0.00     0.000 A 
ATOM     16  C   UNL d   1      32.282  15.456 -23.749  0.00  0.00     0.000 A 
ATOM     17  C   UNL d   1      33.059  15.723 -23.798  0.00  0.00     0.000 A 
ATOM     18  C   UNL d   1      33.207  16.535 -23.748  0.00  0.00     0.002 A 
ENDBRANCH   4  13
BRANCH  10  19
ATOM     19  O   UNL d   1      33.236  20.559 -21.226  0.00  0.00    -0.328 OA
ATOM     20  C   UNL d   1      32.633  21.023 -20.926  0.00  0.00     0.181 C 
ENDBRANCH  10  19
TORSDOF 2
ENDMDL
MODEL 2
REMARK VINA RESULT:      -2.7      2.565      5.968
REMARK  2 active torsions:
REMARK  status: ('A' for Active; 'I' for Inactive)
REMARK    1  A    between atoms: C_12  and  C_4 
REMARK    2  A    between atoms: O_14  and  C_10 
ROOT
ATOM      1  C   UNL d   1      32.679  22.256 -20.957  0.00  0.00     0.101 A 
ATOM      2  C   UNL d   1      32.495  23.030 -20.725  0.00  0.00     0.203 A 
ATOM      3  C   UNL d   1      32.518  23.230 -19.924  0.00  0.00     0.067 A 
ATOM      4  C   UNL d   1      32.721  22.670 -19.365  0.00  0.00     0.103 A 
ATOM      5  C   UNL d   1      32.881  21.697 -20.397  0.00  0.00     0.108 A 
ATOM      6  O   UNL d   1      32.904  21.899 -19.595  0.00  0.00    -0.307 OA
ATOM      7  C   UNL d   1      32.655  22.059 -21.755  0.00  0.00     0.203 A 
ATOM      8  C   UNL d   1      33.064  20.928 -20.625  0.00  0.00     0.049 A 
ATOM      9  C   UNL d   1      32.840  21.274 -21.997  0.00  0.00     0.066 A 
ATOM     10  C   UNL d   1      33.043  20.715 -21.438  0.00  0.00     0.099 A 
ATOM     11  O   UNL d   1      32.286  23.605 -21.301  0.00  0.00    -0.286 OA
ATOM     12  O   UNL d   1      32.446  22.634 -22.330  0.00  0.00    -0.286 OA
ENDROOT
BRANCH   4  13
ATOM     13  C   UNL d   1      32.745  22.865 -18.571  0.00  0.00     0.023 A 
ATOM     14  C   UNL d   1      32.292  23.499 -18.299  0.00  0.00     0.002 A 
ATOM     15  C   UNL d   1      32.314  23.697 -17.501  0.00  0.00     0.000 A 
ATOM     16  C   UNL d   1      32.787  23.266 -16.976  0.00  0.00     0.000 A 
ATOM     17  C   UNL d   1      33.241  22.634 -17.244  0.00  0.00     0.000 A 
ATOM     18  C   UNL d   1      33.218  22.435 -18.046  0.00  0.00     0.002 A 
ENDBRANCH   4  13
BRANCH  10  19
ATOM     19  O   UNL d   1      33.234  19.918 -21.663  0.00  0.00    -0.328 OA
ATOM     20  C   UNL d   1      32.907  19.590 -22.337  0.00  0.00     0.181 C 
ENDBRANCH  10  19
TORSDOF 2
ENDMDL
MODEL 3
REMARK VINA RESULT:      -2.4      0.796      3.761
REMARK  2 active torsions:
REMARK  status: ('A' for Active; 'I' for Inactive)
REMARK    1  A    between atoms: C_12  and  C_4 
REMARK    2  A    between atoms: O_14  and  C_10 
ROOT
ATOM      1  C   UNL d   1      33.028  18.777 -23.670  0.00  0.00     0.101 A 
ATOM      2  C   UNL d   1      33.112  19.595 -23.764  0.00  0.00     0.203 A 
ATOM      3  C   UNL d   1      33.069  20.087 -23.102  0.00  0.00     0.067 A 
ATOM      4  C   UNL d   1      32.944  19.769 -22.360  0.00  0.00     0.103 A 
ATOM      5  C   UNL d   1      32.903  18.459 -22.927  0.00  0.00     0.108 A 
ATOM      6  O   UNL d   1      32.860  18.953 -22.265  0.00  0.00    -0.307 OA
ATOM      7  C   UNL d   1      33.072  18.289 -24.330  0.00  0.00     0.203 A 
ATOM      8  C   UNL d   1      32.820  17.647 -22.831  0.00  0.00     0.049 A 
ATOM      9  C   UNL d   1      32.987  17.456 -24.242  0.00  0.00     0.066 A 
ATOM     10  C   UNL d   1      32.862  17.138 -23.500  0.00  0.00     0.099 A 
ATOM     11  O   UNL d   1      33.241  19.922 -24.527  0.00  0.00    -0.286 OA
ATOM     12  O   UNL d   1      33.200  18.616 -25.093  0.00  0.00    -0.286 OA
ENDROOT
BRANCH   4  13
ATOM     13  C   UNL d   1      32.900  20.253 -21.702  0.00  0.00     0.023 A 
ATOM     14  C   UNL d   1      33.241  20.000 -20.994  0.00  0.00     0.002 A 
ATOM     15  C   UNL d   1      33.198  20.485 -20.331  0.00  0.00     0.000 A 
ATOM     16  C   UNL d   1      32.818  21.218 -20.373  0.00  0.00     0.000 A 
ATOM     17  C   UNL d   1      32.477  21.474 -21.077  0.00  0.00     0.000 A 
ATOM     18  C   UNL d   1      32.520  20.986 -21.744  0.00  0.00     0.002 A 
ENDBRANCH   4  13
BRANCH  10  19
ATOM     19  O   UNL d   1      32.775  16.301 -23.390  0.00  0.00    -0.328 OA
ATOM     20  C   UNL d   1      32.034  15.957 -23.418  0.00  0.00     0.181 C 
ENDBRANCH  10  19
TORSDOF 2
ENDMDL
MODEL 4
REMARK VINA RESULT:      -2.3      1.824      3.181
REMARK  2 active torsions:
REMARK  status: ('A' for Active; 'I' for Inactive)
REMARK    1  A    between atoms: C_12  and  C_4 
REMARK    2  A    between atoms: O_14  and  C_10 
ROOT
ATOM      1  C   UNL d   1      33.033  22.193 -21.717  0.00  0.00     0.101 A 
ATOM      2  C   UNL d   1      33.158  22.076 -22.527  0.00  0.00     0.203 A 
ATOM      3  C   UNL d   1      33.199  21.306 -22.824  0.00  0.00     0.067 A 
ATOM      4  C   UNL d   1      33.118  20.666 -22.323  0.00  0.00     0.103 A 
ATOM      5  C   UNL d   1      32.952  21.552 -21.216  0.00  0.00     0.108 A 
ATOM      6  O   UNL d   1      32.994  20.782 -21.516  0.00  0.00    -0.307 OA
ATOM      7  C   UNL d   1      32.993  22.960 -21.423  0.00  0.00     0.203 A 
ATOM      8  C   UNL d   1      32.829  21.667 -20.412  0.00  0.00     0.049 A 
ATOM      9  C   UNL d   1      32.866  23.087 -20.601  0.00  0.00     0.066 A 
ATOM     10  C   UNL d   1      32.785  22.447 -20.100  0.00  0.00     0.099 A 
ATOM     11  O   UNL d   1      33.241  22.734 -23.042  0.00  0.00    -0.286 OA
ATOM     12  O   UNL d   1      33.076  23.618 -21.938  0.00  0.00    -0.286 OA
ENDROOT
BRANCH   4  13
ATOM     13  C   UNL d   1      33.158  19.902 -22.614  0.00  0.00     0.023 A 
ATOM     14  C   UNL d   1      33.200  19.272 -22.083  0.00  0.00     0.002 A 
ATOM     15  C   UNL d   1      33.240  18.503 -22.373  0.00  0.00     0.000 A 
ATOM     16  C   UNL d   1      33.239  18.363 -23.188  0.00  0.00     0.000 A 
ATOM     17  C   UNL d   1      33.197  18.990 -23.721  0.00  0.00     0.000 A 
ATOM     18  C   UNL d   1      33.157  19.762 -23.429  0.00  0.00     0.002 A 
ENDBRANCH   4  13
BRANCH  10  19
ATOM     19  O   UNL d   1      32.657  22.554 -19.267  0.00  0.00    -0.328 OA
ATOM     20  C   UNL d   1      33.206  22.956 -18.814  0.00  0.00     0.181 C 
ENDBRANCH  10  19
TORSDOF 2
ENDMDL
MODEL 5
REMARK VINA RESULT:      -2.1      1.233      4.602
REMARK  2 active torsions:
REMARK  status: ('A' for Active; 'I' for Inactive)
REMARK    1  A    between atoms: C_12  and  C_4 
REMARK    2  A    between atoms: O_14  and  C_10 
ROOT
ATOM      1  C   UNL d   1      33.153  20.756 -22.725  0.00  0.00     0.101 A 
ATOM      2  C   UNL d   1      33.148  21.582 -22.768  0.00  0.00     0.203 A 
ATOM      3  C   UNL d   1      33.102  22.025 -22.072  0.00  0.00     0.067 A 
ATOM      4  C   UNL d   1      33.062  21.650 -21.347  0.00  0.00     0.103 A 
ATOM      5  C   UNL d   1      33.113  20.381 -22.000  0.00  0.00     0.108 A 
ATOM      6  O   UNL d   1      33.067  20.826 -21.304  0.00  0.00    -0.307 OA
ATOM      7  C   UNL d   1      33.199  20.317 -23.419  0.00  0.00     0.203 A 
ATOM      8  C   UNL d   1      33.117  19.560 -21.955  0.00  0.00     0.049 A 
ATOM      9  C   UNL d   1      33.204  19.476 -23.383  0.00  0.00     0.066 A 
ATOM     10  C   UNL d   1      33.164  19.101 -22.658  0.00  0.00     0.099 A 
ATOM     11  O   UNL d   1      33.190  21.967 -23.514  0.00  0.00    -0.286 OA
ATOM     12  O   UNL d   1      33.240  20.702 -24.165  0.00  0.00    -0.286 OA
ENDROOT
BRANCH   4  13
ATOM     13  C   UNL d   1      33.016  22.085 -20.657  0.00  0.00     0.023 A 
ATOM     14  C   UNL d   1      32.754  22.867 -20.690  0.00  0.00     0.002 A 
ATOM     15  C   UNL d   1      32.708  23.307 -19.997  0.00  0.00     0.000 A 
ATOM     16  C   UNL d   1      32.921  22.969 -19.273  0.00  0.00     0.000 A 
ATOM     17  C   UNL d   1      33.182  22.189 -19.234  0.00  0.00     0.000 A 
ATOM     18  C   UNL d   1      33.229  21.748 -19.932  0.00  0.00     0.002 A 
ENDBRANCH   4  13
BRANCH  10  19
ATOM     19  O   UNL d   1      33.168  18.254 -22.601  0.00  0.00    -0.328 OA
ATOM     20  C   UNL d   1      32.716  17.804 -23.112  0.00  0.00     0.181 C 
ENDBRANCH  10  19
TORSDOF 2
ENDMDL
MODEL 6
REMARK VINA RESULT:      -2.0      3.344      4.579
REMARK  2 active torsions:
REMARK  status: ('A' for Active; 'I' for Inactive)
REMARK    1  A    between atoms: C_12  and  C_4 
REMARK    2  A    between atoms: O_14  and  C_10 
ROOT
ATOM      1  C   UNL d   1      29.391  16.920 -24.189  0.00  0.00     0.101 A 
ATOM      2  C   UNL d   1      29.990  17.406 -24.488  0.00  0.00     0.203 A 
ATOM      3  C   UNL d   1      30.764  17.120 -24.526  0.00  0.00     0.067 A 
ATOM      4  C   UNL d   1      30.937  16.363 -24.271  0.00  0.00     0.103 A 
ATOM      5  C   UNL d   1      29.564  16.163 -23.934  0.00  0.00     0.108 A 
ATOM      6  O   UNL d   1      30.339  15.878 -23.973  0.00  0.00    -0.307 OA
ATOM      7  C   UNL d   1      28.621  17.207 -24.153  0.00  0.00     0.203 A 
ATOM      8  C   UNL d   1      28.970  15.678 -23.638  0.00  0.00     0.049 A 
ATOM      9  C   UNL d   1      28.006  16.718 -23.851  0.00  0.00     0.066 A 
ATOM     10  C   UNL d   1      28.179  15.961 -23.596  0.00  0.00     0.099 A 
ATOM     11  O   UNL d   1      29.813  18.184 -24.750  0.00  0.00    -0.286 OA
ATOM     12  O   UNL d   1      28.443  17.985 -24.415  0.00  0.00    -0.286 OA
ENDROOT
BRANCH   4  13
ATOM     13  C   UNL d   1      31.702  16.077 -24.306  0.00  0.00     0.023 A 
ATOM     14  C   UNL d   1      32.008  15.838 -25.035  0.00  0.00     0.002 A 
ATOM     15  C   UNL d   1      32.777  15.549 -25.073  0.00  0.00     0.000 A 
ATOM     16  C   UNL d   1      33.240  15.499 -24.390  0.00  0.00     0.000 A 
ATOM     17  C   UNL d   1      32.938  15.736 -23.661  0.00  0.00     0.000 A 
ATOM     18  C   UNL d   1      32.165  16.027 -23.623  0.00  0.00     0.002 A 
ENDBRANCH   4  13
BRANCH  10  19
ATOM     19  O   UNL d   1      27.572  15.453 -23.287  0.00  0.00    -0.328 OA
ATOM     20  C   UNL d   1      26.822  15.460 -23.613  0.00  0.00     0.181 C 
ENDBRANCH  10  19
TORSDOF 2
ENDMDL
