MODEL 1
REMARK VINA RESULT:      36.7      0.000      0.000
REMARK  5 active torsions:
REMARK  status: ('A' for Active; 'I' for Inactive)
REMARK    1  A    between atoms: C_2  and  C_3 
REMARK    2  A    between atoms: S_14  and  C_6 
REMARK    3  A    between atoms: C_7  and  N_12 
REMARK       I    between atoms: N_12  and  C_13 
REMARK    4  A    between atoms: C_13  and  C_20 
REMARK    5  A    between atoms: C_20  and  S_14 
ROOT
ATOM      1  N   UNL d   1      13.564  13.676  -3.388  0.00  0.00    -0.208 NA
ATOM      2  C   UNL d   1      13.520  14.486  -3.544  0.00  0.00     0.286 C 
ATOM      3  O   UNL d   1      13.221  14.740  -4.274  0.00  0.00    -0.265 OA
ENDROOT
BRANCH   2   4
ATOM      4  C   UNL d   1      13.769  15.023  -2.985  0.00  0.00     0.099 C 
BRANCH   4   5
ATOM      5  S   UNL d   1      14.454  14.887  -2.554  0.00  0.00    -0.061 SA
BRANCH   5   6
ATOM      6  C   UNL d   1      14.750  15.466  -2.044  0.00  0.00     0.133 A 
ATOM      7  C   UNL d   1      14.916  15.275  -1.257  0.00  0.00     0.143 A 
ATOM      8  C   UNL d   1      15.212  15.854  -0.748  0.00  0.00     0.185 A 
ATOM      9  N   UNL d   1      14.845  14.569  -0.833  0.00  0.00    -0.219 NA
ATOM     10  N   UNL d   1      15.321  15.500  -0.014  0.00  0.00    -0.203 NA
ATOM     11  N   UNL d   1      15.340  16.618  -1.021  0.00  0.00    -0.203 NA
ATOM     12  C   UNL d   1      15.095  14.712  -0.067  0.00  0.00     0.201 A 
ATOM     13  C   UNL d   1      15.176  16.810  -1.801  0.00  0.00     0.201 A 
ATOM     14  N   UNL d   1      14.880  16.239  -2.319  0.00  0.00    -0.216 NA
ENDBRANCH   5   6
ENDBRANCH   4   5
ENDBRANCH   2   4
BRANCH   1  15
ATOM     15  C   UNL d   1      13.312  13.123  -3.953  0.00  0.00     0.088 A 
ATOM     16  C   UNL d   1      13.299  12.323  -3.766  0.00  0.00     0.089 A 
ATOM     17  C   UNL d   1      13.049  11.779  -4.329  0.00  0.00     0.005 A 
ATOM     18  C   UNL d   1      12.812  12.032  -5.078  0.00  0.00     0.000 A 
ATOM     19  C   UNL d   1      12.826  12.837  -5.264  0.00  0.00     0.002 A 
ATOM     20  C   UNL d   1      13.078  13.385  -4.696  0.00  0.00     0.019 A 
BRANCH  16  21
ATOM     21  C   UNL d   1      13.536  12.065  -3.017  0.00  0.00     0.420 C 
ATOM     22  F   UNL d   1      13.746  11.829  -2.333  0.00  0.00    -0.166 F 
ATOM     23  F   UNL d   1      14.326  11.949  -2.704  0.00  0.00    -0.166 F 
ATOM     24  F   UNL d   1      13.047  11.842  -2.349  0.00  0.00    -0.166 F 
ENDBRANCH  16  21
ENDBRANCH   1  15
TORSDOF 5
ENDMDL
MODEL 2
REMARK VINA RESULT:      36.8      2.515      3.327
REMARK  5 active torsions:
REMARK  status: ('A' for Active; 'I' for Inactive)
REMARK    1  A    between atoms: C_2  and  C_3 
REMARK    2  A    between atoms: S_14  and  C_6 
REMARK    3  A    between atoms: C_7  and  N_12 
REMARK       I    between atoms: N_12  and  C_13 
REMARK    4  A    between atoms: C_13  and  C_20 
REMARK    5  A    between atoms: C_20  and  S_14 
ROOT
ATOM      1  N   UNL d   1      13.446  13.595  -3.657  0.00  0.00    -0.208 NA
ATOM      2  C   UNL d   1      13.293  12.783  -3.665  0.00  0.00     0.286 C 
ATOM      3  O   UNL d   1      13.227  12.393  -4.394  0.00  0.00    -0.265 OA
ENDROOT
BRANCH   2   4
ATOM      4  C   UNL d   1      13.209  12.376  -2.965  0.00  0.00     0.099 C 
BRANCH   4   5
ATOM      5  S   UNL d   1      13.740  11.784  -2.762  0.00  0.00    -0.061 SA
BRANCH   5   6
ATOM      6  C   UNL d   1      14.146  11.815  -2.044  0.00  0.00     0.133 A 
ATOM      7  C   UNL d   1      13.725  11.811  -1.332  0.00  0.00     0.143 A 
ATOM      8  C   UNL d   1      14.131  11.842  -0.614  0.00  0.00     0.185 A 
ATOM      9  N   UNL d   1      12.915  11.779  -1.169  0.00  0.00    -0.219 NA
ATOM     10  N   UNL d   1      13.569  11.829  -0.015  0.00  0.00    -0.203 NA
ATOM     11  N   UNL d   1      14.952  11.877  -0.605  0.00  0.00    -0.203 NA
ATOM     12  C   UNL d   1      12.823  11.791  -0.357  0.00  0.00     0.201 A 
ATOM     13  C   UNL d   1      15.372  11.882  -1.309  0.00  0.00     0.201 A 
ATOM     14  N   UNL d   1      14.976  11.851  -2.033  0.00  0.00    -0.216 NA
ENDBRANCH   5   6
ENDBRANCH   4   5
ENDBRANCH   2   4
BRANCH   1  15
ATOM     15  C   UNL d   1      13.533  14.016  -4.366  0.00  0.00     0.088 A 
ATOM     16  C   UNL d   1      13.749  14.808  -4.348  0.00  0.00     0.089 A 
ATOM     17  C   UNL d   1      13.833  15.221  -5.054  0.00  0.00     0.005 A 
ATOM     18  C   UNL d   1      13.703  14.844  -5.777  0.00  0.00     0.000 A 
ATOM     19  C   UNL d   1      13.486  14.048  -5.792  0.00  0.00     0.002 A 
ATOM     20  C   UNL d   1      13.401  13.631  -5.081  0.00  0.00     0.019 A 
BRANCH  16  21
ATOM     21  C   UNL d   1      13.880  15.190  -3.627  0.00  0.00     0.420 C 
ATOM     22  F   UNL d   1      14.005  15.538  -2.970  0.00  0.00    -0.166 F 
ATOM     23  F   UNL d   1      13.318  15.424  -3.023  0.00  0.00    -0.166 F 
ATOM     24  F   UNL d   1      14.622  15.456  -3.290  0.00  0.00    -0.166 F 
ENDBRANCH  16  21
ENDBRANCH   1  15
TORSDOF 5
ENDMDL
