MODEL 1
REMARK VINA RESULT:      -4.8      0.000      0.000
REMARK  3 active torsions:
REMARK  status: ('A' for Active; 'I' for Inactive)
REMARK    1  A    between atoms: S_10  and  C_6 
REMARK    2  A    between atoms: C_14  and  S_10 
REMARK    3  A    between atoms: C_15  and  C_14 
ROOT
ATOM      1  C   UNL d   1      57.448  -0.743  30.937  0.00  0.00     0.141 A 
ATOM      2  O   UNL d   1      57.055  -1.332  31.361  0.00  0.00    -0.303 OA
ATOM      3  C   UNL d   1      57.240  -0.013  31.259  0.00  0.00     0.110 A 
ATOM      4  C   UNL d   1      56.717  -0.150  31.883  0.00  0.00     0.043 A 
ATOM      5  C   UNL d   1      56.603  -0.965  31.946  0.00  0.00     0.102 A 
ATOM      6  C   UNL d   1      57.970  -0.779  30.298  0.00  0.00     0.137 A 
ATOM      7  N   UNL d   1      58.282  -0.084  29.982  0.00  0.00    -0.215 NA
ATOM      8  N   UNL d   1      57.552   0.681  30.943  0.00  0.00    -0.222 NA
ATOM      9  C   UNL d   1      58.073   0.646  30.304  0.00  0.00     0.200 A 
ATOM     10  C   UNL d   1      56.331   0.362  32.401  0.00  0.00     0.004 A 
ATOM     11  C   UNL d   1      56.103  -1.268  32.528  0.00  0.00     0.025 A 
ATOM     12  C   UNL d   1      55.830   0.059  32.983  0.00  0.00     0.000 A 
ATOM     13  C   UNL d   1      55.717  -0.755  33.046  0.00  0.00     0.002 A 
ENDROOT
BRANCH   6  14
ATOM     14  S   UNL d   1      58.178  -1.509  29.976  0.00  0.00    -0.062 SA
BRANCH  14  15
ATOM     15  C   UNL d   1      58.773  -1.553  29.405  0.00  0.00     0.082 C 
BRANCH  15  16
ATOM     16  C   UNL d   1      58.984  -2.285  29.086  0.00  0.00     0.241 C 
ATOM     17  O   UNL d   1      59.695  -2.365  28.677  0.00  0.00    -0.283 OA
ENDBRANCH  15  16
ENDBRANCH  14  15
ENDBRANCH   6  14
TORSDOF 3
ENDMDL
MODEL 2
REMARK VINA RESULT:      -3.5      1.094      3.606
REMARK  3 active torsions:
REMARK  status: ('A' for Active; 'I' for Inactive)
REMARK    1  A    between atoms: S_10  and  C_6 
REMARK    2  A    between atoms: C_14  and  S_10 
REMARK    3  A    between atoms: C_15  and  C_14 
ROOT
ATOM      1  C   UNL d   1      57.716  -0.933  30.687  0.00  0.00     0.141 A 
ATOM      2  O   UNL d   1      57.744  -1.711  30.413  0.00  0.00    -0.303 OA
ATOM      3  C   UNL d   1      58.217  -0.478  30.217  0.00  0.00     0.110 A 
ATOM      4  C   UNL d   1      58.557  -0.974  29.652  0.00  0.00     0.043 A 
ATOM      5  C   UNL d   1      58.264  -1.736  29.773  0.00  0.00     0.102 A 
ATOM      6  C   UNL d   1      57.297  -0.581  31.305  0.00  0.00     0.137 A 
ATOM      7  N   UNL d   1      57.381   0.226  31.452  0.00  0.00    -0.215 NA
ATOM      8  N   UNL d   1      58.301   0.329  30.364  0.00  0.00    -0.222 NA
ATOM      9  C   UNL d   1      57.882   0.682  30.982  0.00  0.00     0.200 A 
ATOM     10  C   UNL d   1      59.094  -0.831  29.043  0.00  0.00     0.004 A 
ATOM     11  C   UNL d   1      58.509  -2.355  29.285  0.00  0.00     0.025 A 
ATOM     12  C   UNL d   1      59.339  -1.449  28.554  0.00  0.00     0.000 A 
ATOM     13  C   UNL d   1      59.046  -2.210  28.675  0.00  0.00     0.002 A 
ENDROOT
BRANCH   6  14
ATOM     14  S   UNL d   1      56.795  -1.036  31.775  0.00  0.00    -0.062 SA
BRANCH  14  15
ATOM     15  C   UNL d   1      56.354  -0.678  32.375  0.00  0.00     0.082 C 
BRANCH  15  16
ATOM     16  C   UNL d   1      55.849  -1.134  32.843  0.00  0.00     0.241 C 
ATOM     17  O   UNL d   1      55.248  -0.771  33.273  0.00  0.00    -0.283 OA
ENDBRANCH  15  16
ENDBRANCH  14  15
ENDBRANCH   6  14
TORSDOF 3
ENDMDL
MODEL 3
REMARK VINA RESULT:      -2.9      1.999      3.896
REMARK  3 active torsions:
REMARK  status: ('A' for Active; 'I' for Inactive)
REMARK    1  A    between atoms: S_10  and  C_6 
REMARK    2  A    between atoms: C_14  and  S_10 
REMARK    3  A    between atoms: C_15  and  C_14 
ROOT
ATOM      1  C   UNL d   1      57.413   0.419  31.685  0.00  0.00     0.141 A 
ATOM      2  O   UNL d   1      57.099   0.305  30.930  0.00  0.00    -0.303 OA
ATOM      3  C   UNL d   1      58.223   0.550  31.606  0.00  0.00     0.110 A 
ATOM      4  C   UNL d   1      58.411   0.518  30.804  0.00  0.00     0.043 A 
ATOM      5  C   UNL d   1      57.715   0.367  30.385  0.00  0.00     0.102 A 
ATOM      6  C   UNL d   1      57.065   0.419  32.433  0.00  0.00     0.137 A 
ATOM      7  N   UNL d   1      57.529   0.550  33.103  0.00  0.00    -0.215 NA
ATOM      8  N   UNL d   1      58.687   0.682  32.276  0.00  0.00    -0.222 NA
ATOM      9  C   UNL d   1      58.339   0.682  33.024  0.00  0.00     0.200 A 
ATOM     10  C   UNL d   1      59.124   0.607  30.398  0.00  0.00     0.004 A 
ATOM     11  C   UNL d   1      57.733   0.305  29.563  0.00  0.00     0.025 A 
ATOM     12  C   UNL d   1      59.142   0.545  29.576  0.00  0.00     0.000 A 
ATOM     13  C   UNL d   1      58.447   0.394  29.159  0.00  0.00     0.002 A 
ENDROOT
BRANCH   6  14
ATOM     14  S   UNL d   1      56.255   0.287  32.512  0.00  0.00    -0.062 SA
BRANCH  14  15
ATOM     15  C   UNL d   1      55.883   0.422  33.236  0.00  0.00     0.082 C 
BRANCH  15  16
ATOM     16  C   UNL d   1      55.093   0.207  33.340  0.00  0.00     0.241 C 
ATOM     17  O   UNL d   1      54.661   0.521  33.967  0.00  0.00    -0.283 OA
ENDBRANCH  15  16
ENDBRANCH  14  15
ENDBRANCH   6  14
TORSDOF 3
ENDMDL
MODEL 4
REMARK VINA RESULT:      -2.6      2.180      4.299
REMARK  3 active torsions:
REMARK  status: ('A' for Active; 'I' for Inactive)
REMARK    1  A    between atoms: S_10  and  C_6 
REMARK    2  A    between atoms: C_14  and  S_10 
REMARK    3  A    between atoms: C_15  and  C_14 
ROOT
ATOM      1  C   UNL d   1      59.279  -1.418  29.178  0.00  0.00     0.141 A 
ATOM      2  O   UNL d   1      58.714  -2.000  29.022  0.00  0.00    -0.303 OA
ATOM      3  C   UNL d   1      60.025  -1.754  29.080  0.00  0.00     0.110 A 
ATOM      4  C   UNL d   1      59.923  -2.544  28.864  0.00  0.00     0.043 A 
ATOM      5  C   UNL d   1      59.112  -2.696  28.828  0.00  0.00     0.102 A 
ATOM      6  C   UNL d   1      59.208  -0.625  29.396  0.00  0.00     0.137 A 
ATOM      7  N   UNL d   1      59.885  -0.169  29.515  0.00  0.00    -0.215 NA
ATOM      8  N   UNL d   1      60.702  -1.299  29.199  0.00  0.00    -0.222 NA
ATOM      9  C   UNL d   1      60.632  -0.505  29.417  0.00  0.00     0.200 A 
ATOM     10  C   UNL d   1      60.462  -3.145  28.694  0.00  0.00     0.004 A 
ATOM     11  C   UNL d   1      58.842  -3.448  28.624  0.00  0.00     0.025 A 
ATOM     12  C   UNL d   1      60.192  -3.897  28.490  0.00  0.00     0.000 A 
ATOM     13  C   UNL d   1      59.382  -4.048  28.455  0.00  0.00     0.002 A 
ENDROOT
BRANCH   6  14
ATOM     14  S   UNL d   1      58.462  -0.289  29.494  0.00  0.00    -0.062 SA
BRANCH  14  15
ATOM     15  C   UNL d   1      58.331   0.256  30.100  0.00  0.00     0.082 C 
BRANCH  15  16
ATOM     16  C   UNL d   1      57.621   0.675  30.131  0.00  0.00     0.241 C 
ATOM     17  O   UNL d   1      57.139   0.620  30.797  0.00  0.00    -0.283 OA
ENDBRANCH  15  16
ENDBRANCH  14  15
ENDBRANCH   6  14
TORSDOF 3
ENDMDL
MODEL 5
REMARK VINA RESULT:      -2.2      1.938      4.048
REMARK  3 active torsions:
REMARK  status: ('A' for Active; 'I' for Inactive)
REMARK    1  A    between atoms: S_10  and  C_6 
REMARK    2  A    between atoms: C_14  and  S_10 
REMARK    3  A    between atoms: C_15  and  C_14 
ROOT
ATOM      1  C   UNL d   1      58.600   0.556  30.400  0.00  0.00     0.141 A 
ATOM      2  O   UNL d   1      59.360   0.503  30.718  0.00  0.00    -0.303 OA
ATOM      3  C   UNL d   1      58.670   0.620  29.581  0.00  0.00     0.110 A 
ATOM      4  C   UNL d   1      59.473   0.607  29.392  0.00  0.00     0.043 A 
ATOM      5  C   UNL d   1      59.900   0.535  30.095  0.00  0.00     0.102 A 
ATOM      6  C   UNL d   1      57.853   0.554  30.752  0.00  0.00     0.137 A 
ATOM      7  N   UNL d   1      57.177   0.616  30.283  0.00  0.00    -0.215 NA
ATOM      8  N   UNL d   1      57.994   0.682  29.113  0.00  0.00    -0.222 NA
ATOM      9  C   UNL d   1      57.247   0.680  29.464  0.00  0.00     0.200 A 
ATOM     10  C   UNL d   1      59.872   0.651  28.671  0.00  0.00     0.004 A 
ATOM     11  C   UNL d   1      60.724   0.507  30.077  0.00  0.00     0.025 A 
ATOM     12  C   UNL d   1      60.696   0.624  28.653  0.00  0.00     0.000 A 
ATOM     13  C   UNL d   1      61.122   0.551  29.355  0.00  0.00     0.002 A 
ENDROOT
BRANCH   6  14
ATOM     14  S   UNL d   1      57.783   0.489  31.571  0.00  0.00    -0.062 SA
BRANCH  14  15
ATOM     15  C   UNL d   1      57.055   0.298  31.909  0.00  0.00     0.082 C 
BRANCH  15  16
ATOM     16  C   UNL d   1      56.977   0.266  32.730  0.00  0.00     0.241 C 
ATOM     17  O   UNL d   1      56.502  -0.311  33.076  0.00  0.00    -0.283 OA
ENDBRANCH  15  16
ENDBRANCH  14  15
ENDBRANCH   6  14
TORSDOF 3
ENDMDL
