MODEL 1
REMARK VINA RESULT:      73.7      0.000      0.000
REMARK  7 active torsions:
REMARK  status: ('A' for Active; 'I' for Inactive)
REMARK    1  A    between atoms: C_7  and  C_1 
REMARK    2  A    between atoms: C_8  and  C_3 
REMARK    3  A    between atoms: O_17  and  C_7 
REMARK    4  A    between atoms: N_11  and  C_10 
REMARK    5  A    between atoms: C_19  and  N_11 
REMARK    6  A    between atoms: C_20  and  N_11 
REMARK    7  A    between atoms: C_21  and  O_17 
ROOT
ATOM      1  C   UNL d   1      60.090  48.823  51.428  0.00  0.00     0.099 A 
ATOM      2  C   UNL d   1      59.857  49.408  51.940  0.00  0.00     0.093 A 
ATOM      3  C   UNL d   1      60.871  48.521  51.454  0.00  0.00     0.093 A 
ATOM      4  C   UNL d   1      61.176  49.402  52.516  0.00  0.00     0.369 A 
ATOM      5  N   UNL d   1      60.396  49.704  52.490  0.00  0.00    -0.191 NA
ATOM      6  N   UNL d   1      61.406  48.808  51.992  0.00  0.00    -0.191 NA
ATOM      7  O   UNL d   1      61.718  49.707  53.077  0.00  0.00    -0.242 OA
ATOM      8  C   UNL d   1      59.087  49.706  51.914  0.00  0.00     0.021 C 
ENDROOT
BRANCH   3   9
ATOM      9  C   UNL d   1      61.100  47.927  50.929  0.00  0.00     0.018 A 
ATOM     10  C   UNL d   1      61.541  48.115  50.259  0.00  0.00     0.003 A 
ATOM     11  C   UNL d   1      61.770  47.521  49.735  0.00  0.00     0.018 A 
ATOM     12  C   UNL d   1      61.565  46.735  49.869  0.00  0.00     0.064 A 
ATOM     13  C   UNL d   1      61.124  46.547  50.540  0.00  0.00     0.018 A 
ATOM     14  C   UNL d   1      60.895  47.141  51.063  0.00  0.00     0.003 A 
BRANCH  12  15
ATOM     15  N   UNL d   1      61.805  46.135  49.327  0.00  0.00    -0.304 N 
BRANCH  15  16
ATOM     16  C   UNL d   1      61.303  45.513  49.147  0.00  0.00     0.080 C 
ATOM     17  C   UNL d   1      61.430  44.769  49.470  0.00  0.00     0.021 C 
ENDBRANCH  15  16
BRANCH  15  18
ATOM     18  C   UNL d   1      62.544  46.184  48.985  0.00  0.00     0.080 C 
ATOM     19  C   UNL d   1      62.958  45.501  48.828  0.00  0.00     0.021 C 
ENDBRANCH  15  18
ENDBRANCH  12  15
ENDBRANCH   3   9
BRANCH   1  20
ATOM     20  C   UNL d   1      59.534  48.523  50.866  0.00  0.00     0.303 C 
ATOM     21  O   UNL d   1      59.210  47.772  50.974  0.00  0.00    -0.259 OA
BRANCH  20  22
ATOM     22  O   UNL d   1      59.315  48.975  50.214  0.00  0.00    -0.271 OA
BRANCH  22  23
ATOM     23  C   UNL d   1      58.552  48.916  49.908  0.00  0.00     0.126 C 
ATOM     24  C   UNL d   1      57.900  49.082  50.388  0.00  0.00     0.029 C 
ENDBRANCH  22  23
ENDBRANCH  20  22
ENDBRANCH   1  20
TORSDOF 7
ENDMDL
MODEL 2
REMARK VINA RESULT:      73.8      1.548      4.206
REMARK  7 active torsions:
REMARK  status: ('A' for Active; 'I' for Inactive)
REMARK    1  A    between atoms: C_7  and  C_1 
REMARK    2  A    between atoms: C_8  and  C_3 
REMARK    3  A    between atoms: O_17  and  C_7 
REMARK    4  A    between atoms: N_11  and  C_10 
REMARK    5  A    between atoms: C_19  and  N_11 
REMARK    6  A    between atoms: C_20  and  N_11 
REMARK    7  A    between atoms: C_21  and  O_17 
ROOT
ATOM      1  C   UNL d   1      60.499  48.346  50.756  0.00  0.00     0.099 A 
ATOM      2  C   UNL d   1      61.247  48.030  50.788  0.00  0.00     0.093 A 
ATOM      3  C   UNL d   1      59.899  47.974  50.307  0.00  0.00     0.093 A 
ATOM      4  C   UNL d   1      60.812  46.965  49.924  0.00  0.00     0.369 A 
ATOM      5  N   UNL d   1      61.412  47.337  50.373  0.00  0.00    -0.191 NA
ATOM      6  N   UNL d   1      60.055  47.292  49.896  0.00  0.00    -0.191 NA
ATOM      7  O   UNL d   1      60.987  46.262  49.504  0.00  0.00    -0.242 OA
ATOM      8  C   UNL d   1      61.839  48.398  51.232  0.00  0.00     0.021 C 
ENDROOT
BRANCH   3   9
ATOM      9  C   UNL d   1      59.142  48.301  50.280  0.00  0.00     0.018 A 
ATOM     10  C   UNL d   1      58.567  48.055  50.817  0.00  0.00     0.003 A 
ATOM     11  C   UNL d   1      57.810  48.382  50.789  0.00  0.00     0.018 A 
ATOM     12  C   UNL d   1      57.616  48.955  50.231  0.00  0.00     0.064 A 
ATOM     13  C   UNL d   1      58.191  49.201  49.695  0.00  0.00     0.018 A 
ATOM     14  C   UNL d   1      58.948  48.874  49.722  0.00  0.00     0.003 A 
BRANCH  12  15
ATOM     15  N   UNL d   1      56.838  49.283  50.212  0.00  0.00    -0.304 N 
BRANCH  15  16
ATOM     16  C   UNL d   1      56.327  49.177  50.843  0.00  0.00     0.080 C 
ATOM     17  C   UNL d   1      56.555  49.388  51.603  0.00  0.00     0.021 C 
ENDBRANCH  15  16
BRANCH  15  18
ATOM     18  C   UNL d   1      56.606  49.708  49.556  0.00  0.00     0.080 C 
ATOM     19  C   UNL d   1      56.447  49.314  48.861  0.00  0.00     0.021 C 
ENDBRANCH  15  18
ENDBRANCH  12  15
ENDBRANCH   3   9
BRANCH   1  20
ATOM     20  C   UNL d   1      60.335  49.057  51.184  0.00  0.00     0.303 C 
ATOM     21  O   UNL d   1      60.019  49.707  50.787  0.00  0.00    -0.259 OA
BRANCH  20  22
ATOM     22  O   UNL d   1      60.489  49.102  51.991  0.00  0.00    -0.271 OA
BRANCH  22  23
ATOM     23  C   UNL d   1      60.963  49.708  52.287  0.00  0.00     0.126 C 
ATOM     24  C   UNL d   1      61.268  49.657  53.053  0.00  0.00     0.029 C 
ENDBRANCH  22  23
ENDBRANCH  20  22
ENDBRANCH   1  20
TORSDOF 7
ENDMDL
