MODEL 1
REMARK VINA RESULT:      43.6      0.000      0.000
REMARK  8 active torsions:
REMARK  status: ('A' for Active; 'I' for Inactive)
REMARK    1  A    between atoms: C_4  and  C_1 
REMARK    2  A    between atoms: C_11  and  N_3 
REMARK    3  A    between atoms: N_7  and  C_4 
REMARK    4  A    between atoms: C_9  and  C_4 
REMARK       I    between atoms: C_8  and  N_7 
REMARK    5  A    between atoms: C_12  and  C_9 
REMARK    6  A    between atoms: C_18  and  C_11 
REMARK    7  A    between atoms: C_20  and  C_18 
REMARK    8  A    between atoms: C_19  and  C_20 
ROOT
ATOM      1  C   UNL d   1      14.044  13.199  -2.607  0.00  0.00     0.166 A 
ATOM      2  N   UNL d   1      14.020  12.414  -2.343  0.00  0.00    -0.225 NA
ATOM      3  N   UNL d   1      14.357  13.662  -2.003  0.00  0.00    -0.288 N 
ATOM      4  C   UNL d   1      14.529  13.170  -1.361  0.00  0.00     0.083 A 
ATOM      5  C   UNL d   1      14.317  12.396  -1.579  0.00  0.00     0.099 A 
ATOM      6  C   UNL d   1      14.844  13.324  -0.621  0.00  0.00     0.019 A 
ATOM      7  C   UNL d   1      14.426  11.780  -1.045  0.00  0.00     0.021 A 
ATOM      8  C   UNL d   1      14.955  12.707  -0.084  0.00  0.00     0.002 A 
ATOM      9  C   UNL d   1      14.746  11.931  -0.294  0.00  0.00     0.002 A 
ENDROOT
BRANCH   1  10
ATOM     10  C   UNL d   1      13.797  13.471  -3.350  0.00  0.00     0.119 C 
BRANCH  10  11
ATOM     11  N   UNL d   1      13.922  13.009  -4.019  0.00  0.00    -0.205 NA
ATOM     12  C   UNL d   1      13.413  12.384  -4.195  0.00  0.00     0.280 C 
ATOM     13  O   UNL d   1      13.539  11.922  -4.864  0.00  0.00    -0.265 OA
ATOM     14  C   UNL d   1      12.769  12.218  -3.697  0.00  0.00     0.068 C 
ENDBRANCH  10  11
BRANCH  10  15
ATOM     15  C   UNL d   1      13.426  14.201  -3.419  0.00  0.00     0.022 C 
BRANCH  15  16
ATOM     16  C   UNL d   1      13.464  14.620  -4.124  0.00  0.00     0.002 A 
ATOM     17  C   UNL d   1      14.191  14.829  -4.449  0.00  0.00     0.000 A 
ATOM     18  C   UNL d   1      14.227  15.249  -5.157  0.00  0.00     0.000 A 
ATOM     19  C   UNL d   1      13.533  15.462  -5.543  0.00  0.00     0.000 A 
ATOM     20  C   UNL d   1      12.798  15.252  -5.217  0.00  0.00     0.000 A 
ATOM     21  C   UNL d   1      12.769  14.832  -4.510  0.00  0.00     0.000 A 
ENDBRANCH  15  16
ENDBRANCH  10  15
ENDBRANCH   1  10
BRANCH   3  22
ATOM     22  C   UNL d   1      14.479  14.481  -2.031  0.00  0.00     0.082 C 
BRANCH  22  23
ATOM     23  C   UNL d   1      15.069  14.826  -1.568  0.00  0.00     0.019 C 
BRANCH  23  24
ATOM     24  C   UNL d   1      14.938  15.547  -1.189  0.00  0.00     0.002 C 
BRANCH  24  25
ATOM     25  C   UNL d   1      15.316  16.229  -1.474  0.00  0.00     0.000 C 
ATOM     26  C   UNL d   1      15.087  16.979  -1.190  0.00  0.00     0.000 C 
ENDBRANCH  24  25
ENDBRANCH  23  24
ENDBRANCH  22  23
ENDBRANCH   3  22
TORSDOF 8
ENDMDL
MODEL 2
REMARK VINA RESULT:      45.1      1.279      2.949
REMARK  8 active torsions:
REMARK  status: ('A' for Active; 'I' for Inactive)
REMARK    1  A    between atoms: C_4  and  C_1 
REMARK    2  A    between atoms: C_11  and  N_3 
REMARK    3  A    between atoms: N_7  and  C_4 
REMARK    4  A    between atoms: C_9  and  C_4 
REMARK       I    between atoms: C_8  and  N_7 
REMARK    5  A    between atoms: C_12  and  C_9 
REMARK    6  A    between atoms: C_18  and  C_11 
REMARK    7  A    between atoms: C_20  and  C_18 
REMARK    8  A    between atoms: C_19  and  C_20 
ROOT
ATOM      1  C   UNL d   1      14.536  13.614  -1.495  0.00  0.00     0.166 A 
ATOM      2  N   UNL d   1      14.998  13.691  -0.813  0.00  0.00    -0.225 NA
ATOM      3  N   UNL d   1      14.462  14.357  -1.839  0.00  0.00    -0.288 N 
ATOM      4  C   UNL d   1      14.876  14.901  -1.374  0.00  0.00     0.083 A 
ATOM      5  C   UNL d   1      15.206  14.481  -0.739  0.00  0.00     0.099 A 
ATOM      6  C   UNL d   1      14.991  15.708  -1.448  0.00  0.00     0.019 A 
ATOM      7  C   UNL d   1      15.655  14.881  -0.177  0.00  0.00     0.021 A 
ATOM      8  C   UNL d   1      15.440  16.112  -0.885  0.00  0.00     0.002 A 
ATOM      9  C   UNL d   1      15.775  15.701  -0.246  0.00  0.00     0.002 A 
ENDROOT
BRANCH   1  10
ATOM     10  C   UNL d   1      14.206  12.909  -1.783  0.00  0.00     0.119 C 
BRANCH  10  11
ATOM     11  N   UNL d   1      13.543  12.588  -1.417  0.00  0.00    -0.205 NA
ATOM     12  C   UNL d   1      13.627  12.102  -0.755  0.00  0.00     0.280 C 
ATOM     13  O   UNL d   1      12.964  11.780  -0.390  0.00  0.00    -0.265 OA
ATOM     14  C   UNL d   1      14.383  11.934  -0.455  0.00  0.00     0.068 C 
ENDBRANCH  10  11
BRANCH  10  15
ATOM     15  C   UNL d   1      14.540  12.532  -2.432  0.00  0.00     0.022 C 
BRANCH  15  16
ATOM     16  C   UNL d   1      14.068  12.283  -3.055  0.00  0.00     0.002 A 
ATOM     17  C   UNL d   1      14.395  12.133  -3.795  0.00  0.00     0.000 A 
ATOM     18  C   UNL d   1      13.919  11.884  -4.420  0.00  0.00     0.000 A 
ATOM     19  C   UNL d   1      13.111  11.784  -4.305  0.00  0.00     0.000 A 
ATOM     20  C   UNL d   1      12.779  11.935  -3.558  0.00  0.00     0.000 A 
ATOM     21  C   UNL d   1      13.259  12.183  -2.939  0.00  0.00     0.000 A 
ENDBRANCH  15  16
ENDBRANCH  10  15
ENDBRANCH   1  10
BRANCH   3  22
ATOM     22  C   UNL d   1      14.043  14.532  -2.533  0.00  0.00     0.082 C 
BRANCH  22  23
ATOM     23  C   UNL d   1      14.235  15.206  -2.971  0.00  0.00     0.019 C 
BRANCH  23  24
ATOM     24  C   UNL d   1      13.682  15.547  -3.479  0.00  0.00     0.002 C 
BRANCH  24  25
ATOM     25  C   UNL d   1      13.604  15.248  -4.250  0.00  0.00     0.000 C 
ATOM     26  C   UNL d   1      14.125  15.504  -4.848  0.00  0.00     0.000 C 
ENDBRANCH  24  25
ENDBRANCH  23  24
ENDBRANCH  22  23
ENDBRANCH   3  22
TORSDOF 8
ENDMDL
MODEL 3
REMARK VINA RESULT:      46.2      1.378      3.603
REMARK  8 active torsions:
REMARK  status: ('A' for Active; 'I' for Inactive)
REMARK    1  A    between atoms: C_4  and  C_1 
REMARK    2  A    between atoms: C_11  and  N_3 
REMARK    3  A    between atoms: N_7  and  C_4 
REMARK    4  A    between atoms: C_9  and  C_4 
REMARK       I    between atoms: C_8  and  N_7 
REMARK    5  A    between atoms: C_12  and  C_9 
REMARK    6  A    between atoms: C_18  and  C_11 
REMARK    7  A    between atoms: C_20  and  C_18 
REMARK    8  A    between atoms: C_19  and  C_20 
ROOT
ATOM      1  C   UNL d   1      13.977  14.273  -3.313  0.00  0.00     0.166 A 
ATOM      2  N   UNL d   1      13.513  14.219  -3.997  0.00  0.00    -0.225 NA
ATOM      3  N   UNL d   1      14.081  13.513  -3.014  0.00  0.00    -0.288 N 
ATOM      4  C   UNL d   1      13.683  12.983  -3.508  0.00  0.00     0.083 A 
ATOM      5  C   UNL d   1      13.332  13.428  -4.116  0.00  0.00     0.099 A 
ATOM      6  C   UNL d   1      13.597  12.169  -3.482  0.00  0.00     0.019 A 
ATOM      7  C   UNL d   1      12.894  13.045  -4.698  0.00  0.00     0.021 A 
ATOM      8  C   UNL d   1      13.158  11.783  -4.065  0.00  0.00     0.002 A 
ATOM      9  C   UNL d   1      12.804  12.220  -4.677  0.00  0.00     0.002 A 
ENDROOT
BRANCH   1  10
ATOM     10  C   UNL d   1      14.284  14.970  -2.987  0.00  0.00     0.119 C 
BRANCH  10  11
ATOM     11  N   UNL d   1      14.922  15.346  -3.347  0.00  0.00    -0.205 NA
ATOM     12  C   UNL d   1      14.796  15.972  -3.869  0.00  0.00     0.280 C 
ATOM     13  O   UNL d   1      15.433  16.348  -4.229  0.00  0.00    -0.265 OA
ATOM     14  C   UNL d   1      14.023  16.227  -4.034  0.00  0.00     0.068 C 
ENDBRANCH  10  11
BRANCH  10  15
ATOM     15  C   UNL d   1      13.953  15.287  -2.304  0.00  0.00     0.022 C 
BRANCH  15  16
ATOM     16  C   UNL d   1      14.433  15.616  -1.725  0.00  0.00     0.002 A 
ATOM     17  C   UNL d   1      14.572  16.427  -1.707  0.00  0.00     0.000 A 
ATOM     18  C   UNL d   1      15.054  16.756  -1.125  0.00  0.00     0.000 A 
ATOM     19  C   UNL d   1      15.399  16.271  -0.557  0.00  0.00     0.000 A 
ATOM     20  C   UNL d   1      15.260  15.453  -0.574  0.00  0.00     0.000 A 
ATOM     21  C   UNL d   1      14.778  15.131  -1.158  0.00  0.00     0.000 A 
ENDBRANCH  15  16
ENDBRANCH  10  15
ENDBRANCH   1  10
BRANCH   3  22
ATOM     22  C   UNL d   1      14.510  13.312  -2.334  0.00  0.00     0.082 C 
BRANCH  22  23
ATOM     23  C   UNL d   1      14.525  12.529  -2.073  0.00  0.00     0.019 C 
BRANCH  23  24
ATOM     24  C   UNL d   1      14.292  12.339  -1.304  0.00  0.00     0.002 C 
BRANCH  24  25
ATOM     25  C   UNL d   1      14.744  11.796  -0.868  0.00  0.00     0.000 C 
ATOM     26  C   UNL d   1      14.801  11.876  -0.040  0.00  0.00     0.000 C 
ENDBRANCH  24  25
ENDBRANCH  23  24
ENDBRANCH  22  23
ENDBRANCH   3  22
TORSDOF 8
ENDMDL
