MODEL 1
REMARK VINA RESULT:      -8.2      0.000      0.000
REMARK  4 active torsions:
REMARK  status: ('A' for Active; 'I' for Inactive)
REMARK    1  A    between atoms: S_10  and  C_3 
REMARK    2  A    between atoms: C_11  and  C_7 
REMARK    3  A    between atoms: C_13  and  S_10 
REMARK    4  A    between atoms: C_14  and  C_13 
ROOT
ATOM      1  N   UNL d   1     -49.069  12.346  23.401  0.00  0.00    -0.186 N 
ATOM      2  N   UNL d   1     -49.354  13.094  23.236  0.00  0.00    -0.162 NA
ATOM      3  C   UNL d   1     -48.297  12.049  23.455  0.00  0.00     0.217 A 
ATOM      4  C   UNL d   1     -49.585  11.722  23.553  0.00  0.00     0.187 A 
ATOM      5  N   UNL d   1     -48.351  11.253  23.637  0.00  0.00    -0.120 NA
ATOM      6  N   UNL d   1     -49.147  11.049  23.698  0.00  0.00    -0.127 NA
ATOM      7  C   UNL d   1     -50.171  13.224  23.222  0.00  0.00     0.102 A 
ATOM      8  C   UNL d   1     -50.405  11.855  23.538  0.00  0.00     0.042 A 
ATOM      9  C   UNL d   1     -50.694  12.601  23.373  0.00  0.00     0.024 A 
ENDROOT
BRANCH   3  10
ATOM     10  S   UNL d   1     -47.591  12.462  23.348  0.00  0.00    -0.046 SA
BRANCH  10  11
ATOM     11  C   UNL d   1     -46.876  12.075  23.386  0.00  0.00     0.038 C 
BRANCH  11  12
ATOM     12  C   UNL d   1     -46.232  12.360  22.973  0.00  0.00     0.007 A 
ATOM     13  C   UNL d   1     -45.541  11.911  22.920  0.00  0.00     0.001 A 
ATOM     14  C   UNL d   1     -44.884  12.197  22.500  0.00  0.00     0.000 A 
ATOM     15  C   UNL d   1     -44.912  12.928  22.134  0.00  0.00     0.000 A 
ATOM     16  C   UNL d   1     -45.604  13.386  22.183  0.00  0.00     0.000 A 
ATOM     17  C   UNL d   1     -44.250  13.197  21.721  0.00  0.00     0.000 C 
ATOM     18  C   UNL d   1     -46.255  13.098  22.601  0.00  0.00     0.001 A 
ENDBRANCH  11  12
ENDBRANCH  10  11
ENDBRANCH   3  10
BRANCH   7  19
ATOM     19  C   UNL d   1     -50.465  13.976  23.056  0.00  0.00     0.022 A 
ATOM     20  C   UNL d   1     -50.770  14.145  22.309  0.00  0.00     0.022 A 
ATOM     21  C   UNL d   1     -51.064  14.893  22.139  0.00  0.00     0.099 A 
ATOM     22  N   UNL d   1     -51.054  15.473  22.715  0.00  0.00    -0.242 NA
ATOM     23  C   UNL d   1     -50.742  15.307  23.483  0.00  0.00     0.099 A 
ATOM     24  C   UNL d   1     -50.453  14.553  23.632  0.00  0.00     0.022 A 
ENDBRANCH   7  19
TORSDOF 4
ENDMDL
MODEL 2
REMARK VINA RESULT:      -7.2      1.249      4.305
REMARK  4 active torsions:
REMARK  status: ('A' for Active; 'I' for Inactive)
REMARK    1  A    between atoms: S_10  and  C_3 
REMARK    2  A    between atoms: C_11  and  C_7 
REMARK    3  A    between atoms: C_13  and  S_10 
REMARK    4  A    between atoms: C_14  and  C_13 
ROOT
ATOM      1  N   UNL d   1     -48.208  11.890  23.180  0.00  0.00    -0.186 N 
ATOM      2  N   UNL d   1     -47.725  12.511  22.959  0.00  0.00    -0.162 NA
ATOM      3  C   UNL d   1     -49.025  11.776  23.113  0.00  0.00     0.217 A 
ATOM      4  C   UNL d   1     -47.894  11.219  23.542  0.00  0.00     0.187 A 
ATOM      5  N   UNL d   1     -49.199  11.042  23.432  0.00  0.00    -0.120 NA
ATOM      6  N   UNL d   1     -48.501  10.697  23.698  0.00  0.00    -0.127 NA
ATOM      7  C   UNL d   1     -46.911  12.465  23.102  0.00  0.00     0.102 A 
ATOM      8  C   UNL d   1     -47.076  11.175  23.684  0.00  0.00     0.042 A 
ATOM      9  C   UNL d   1     -46.590  11.794  23.464  0.00  0.00     0.024 A 
ENDROOT
BRANCH   3  10
ATOM     10  S   UNL d   1     -49.580  12.293  22.788  0.00  0.00    -0.046 SA
BRANCH  10  11
ATOM     11  C   UNL d   1     -50.149  12.638  23.258  0.00  0.00     0.038 C 
BRANCH  11  12
ATOM     12  C   UNL d   1     -50.371  13.413  23.131  0.00  0.00     0.007 A 
ATOM     13  C   UNL d   1     -50.745  13.627  22.426  0.00  0.00     0.001 A 
ATOM     14  C   UNL d   1     -50.973  14.414  22.292  0.00  0.00     0.000 A 
ATOM     15  C   UNL d   1     -50.831  14.989  22.858  0.00  0.00     0.000 A 
ATOM     16  C   UNL d   1     -50.456  14.781  23.569  0.00  0.00     0.000 A 
ATOM     17  C   UNL d   1     -51.064  15.766  22.708  0.00  0.00     0.000 C 
ATOM     18  C   UNL d   1     -50.230  13.998  23.698  0.00  0.00     0.001 A 
ENDBRANCH  11  12
ENDBRANCH  10  11
ENDBRANCH   3  10
BRANCH   7  19
ATOM     19  C   UNL d   1     -46.419  13.088  22.881  0.00  0.00     0.022 A 
ATOM     20  C   UNL d   1     -45.760  12.946  22.407  0.00  0.00     0.022 A 
ATOM     21  C   UNL d   1     -45.266  13.564  22.184  0.00  0.00     0.099 A 
ATOM     22  N   UNL d   1     -45.430  14.324  22.436  0.00  0.00    -0.242 NA
ATOM     23  C   UNL d   1     -46.104  14.477  22.923  0.00  0.00     0.099 A 
ATOM     24  C   UNL d   1     -46.584  13.845  23.133  0.00  0.00     0.022 A 
ENDBRANCH   7  19
TORSDOF 4
ENDMDL
MODEL 3
REMARK VINA RESULT:      -5.6      1.859      5.476
REMARK  4 active torsions:
REMARK  status: ('A' for Active; 'I' for Inactive)
REMARK    1  A    between atoms: S_10  and  C_3 
REMARK    2  A    between atoms: C_11  and  C_7 
REMARK    3  A    between atoms: C_13  and  S_10 
REMARK    4  A    between atoms: C_14  and  C_13 
ROOT
ATOM      1  N   UNL d   1     -46.038  12.884  22.652  0.00  0.00    -0.186 N 
ATOM      2  N   UNL d   1     -45.778  12.161  22.931  0.00  0.00    -0.162 NA
ATOM      3  C   UNL d   1     -46.783  13.247  22.670  0.00  0.00     0.217 A 
ATOM      4  C   UNL d   1     -45.521  13.401  22.272  0.00  0.00     0.187 A 
ATOM      5  N   UNL d   1     -46.711  13.976  22.303  0.00  0.00    -0.120 NA
ATOM      6  N   UNL d   1     -45.931  14.073  22.057  0.00  0.00    -0.127 NA
ATOM      7  C   UNL d   1     -44.985  11.948  22.830  0.00  0.00     0.102 A 
ATOM      8  C   UNL d   1     -44.725  13.184  22.172  0.00  0.00     0.042 A 
ATOM      9  C   UNL d   1     -44.461  12.462  22.449  0.00  0.00     0.024 A 
ENDROOT
BRANCH   3  10
ATOM     10  S   UNL d   1     -47.481  12.947  22.992  0.00  0.00    -0.046 SA
BRANCH  10  11
ATOM     11  C   UNL d   1     -48.193  13.315  22.850  0.00  0.00     0.038 C 
BRANCH  11  12
ATOM     12  C   UNL d   1     -48.892  12.949  23.059  0.00  0.00     0.007 A 
ATOM     13  C   UNL d   1     -49.574  13.398  23.185  0.00  0.00     0.001 A 
ATOM     14  C   UNL d   1     -50.287  13.030  23.398  0.00  0.00     0.000 A 
ATOM     15  C   UNL d   1     -50.325  12.217  23.485  0.00  0.00     0.000 A 
ATOM     16  C   UNL d   1     -49.643  11.759  23.360  0.00  0.00     0.000 A 
ATOM     17  C   UNL d   1     -51.042  11.868  23.697  0.00  0.00     0.000 C 
ATOM     18  C   UNL d   1     -48.936  12.128  23.149  0.00  0.00     0.001 A 
ENDBRANCH  11  12
ENDBRANCH  10  11
ENDBRANCH   3  10
BRANCH   7  19
ATOM     19  C   UNL d   1     -44.717  11.220  23.109  0.00  0.00     0.022 A 
ATOM     20  C   UNL d   1     -45.251  10.672  23.413  0.00  0.00     0.022 A 
ATOM     21  C   UNL d   1     -44.989   9.945  23.693  0.00  0.00     0.099 A 
ATOM     22  N   UNL d   1     -44.192   9.765  23.668  0.00  0.00    -0.242 NA
ATOM     23  C   UNL d   1     -43.638  10.323  23.356  0.00  0.00     0.099 A 
ATOM     24  C   UNL d   1     -43.922  11.043  23.082  0.00  0.00     0.022 A 
ENDBRANCH   7  19
TORSDOF 4
ENDMDL
