MODEL 1
REMARK VINA RESULT:      -4.5      0.000      0.000
REMARK  5 active torsions:
REMARK  status: ('A' for Active; 'I' for Inactive)
REMARK    1  A    between atoms: C_11  and  N_2 
REMARK    2  A    between atoms: C_5  and  C_3 
REMARK    3  A    between atoms: C_7  and  C_5 
REMARK    4  A    between atoms: C_8  and  C_7 
REMARK    5  A    between atoms: C_10  and  C_8 
ROOT
ATOM      1  C   UNL d   1      57.020  -0.593  31.539  0.00  0.00     0.006 C 
ENDROOT
BRANCH   1   2
ATOM      2  C   UNL d   1      56.608  -0.189  32.125  0.00  0.00     0.039 A 
ATOM      3  C   UNL d   1      56.586   0.605  32.341  0.00  0.00     0.122 A 
ATOM      4  N   UNL d   1      56.069   0.682  32.975  0.00  0.00    -0.164 NA
ATOM      5  N   UNL d   1      55.771  -0.058  33.154  0.00  0.00    -0.228 N 
ATOM      6  C   UNL d   1      56.104  -0.603  32.627  0.00  0.00     0.085 A 
ATOM      7  C   UNL d   1      55.952  -1.420  32.614  0.00  0.00     0.021 C 
BRANCH   5   8
ATOM      8  C   UNL d   1      55.233  -0.226  33.754  0.00  0.00     0.101 C 
ATOM      9  C   UNL d   1      54.799   0.384  34.105  0.00  0.00     0.022 C 
ENDBRANCH   5   8
ENDBRANCH   1   2
BRANCH   1  10
ATOM     10  C   UNL d   1      57.534  -0.184  31.039  0.00  0.00     0.042 C 
BRANCH  10  11
ATOM     11  C   UNL d   1      57.907  -0.577  30.410  0.00  0.00     0.196 C 
ATOM     12  O   UNL d   1      57.784  -1.382  30.296  0.00  0.00    -0.287 OA
BRANCH  11  13
ATOM     13  C   UNL d   1      58.406  -0.156  29.895  0.00  0.00     0.039 A 
ATOM     14  C   UNL d   1      58.126   0.079  29.152  0.00  0.00     0.003 A 
ATOM     15  C   UNL d   1      58.616   0.495  28.638  0.00  0.00     0.000 A 
ATOM     16  C   UNL d   1      59.389   0.681  28.863  0.00  0.00     0.000 A 
ATOM     17  C   UNL d   1      59.666   0.446  29.604  0.00  0.00     0.000 A 
ATOM     18  C   UNL d   1      59.175   0.030  30.116  0.00  0.00     0.003 A 
ENDBRANCH  11  13
ENDBRANCH  10  11
ENDBRANCH   1  10
TORSDOF 5
ENDMDL
MODEL 2
REMARK VINA RESULT:      -4.1      2.097      4.630
REMARK  5 active torsions:
REMARK  status: ('A' for Active; 'I' for Inactive)
REMARK    1  A    between atoms: C_11  and  N_2 
REMARK    2  A    between atoms: C_5  and  C_3 
REMARK    3  A    between atoms: C_7  and  C_5 
REMARK    4  A    between atoms: C_8  and  C_7 
REMARK    5  A    between atoms: C_10  and  C_8 
ROOT
ATOM      1  C   UNL d   1      58.069   0.000  30.227  0.00  0.00     0.006 C 
ENDROOT
BRANCH   1   2
ATOM      2  C   UNL d   1      58.587  -0.468  29.791  0.00  0.00     0.039 A 
ATOM      3  C   UNL d   1      58.587  -1.269  29.604  0.00  0.00     0.122 A 
ATOM      4  N   UNL d   1      59.253  -1.424  29.148  0.00  0.00    -0.164 NA
ATOM      5  N   UNL d   1      59.665  -0.725  29.052  0.00  0.00    -0.228 N 
ATOM      6  C   UNL d   1      59.254  -0.127  29.451  0.00  0.00     0.085 A 
ATOM      7  C   UNL d   1      59.481   0.671  29.495  0.00  0.00     0.021 C 
BRANCH   5   8
ATOM      8  C   UNL d   1      60.367  -0.636  28.630  0.00  0.00     0.101 C 
ATOM      9  C   UNL d   1      60.860  -1.287  28.504  0.00  0.00     0.022 C 
ENDBRANCH   5   8
ENDBRANCH   1   2
BRANCH   1  10
ATOM     10  C   UNL d   1      57.685  -0.314  30.887  0.00  0.00     0.042 C 
BRANCH  10  11
ATOM     11  C   UNL d   1      57.029   0.075  31.213  0.00  0.00     0.196 C 
ATOM     12  O   UNL d   1      56.659   0.682  30.797  0.00  0.00    -0.287 OA
BRANCH  11  13
ATOM     13  C   UNL d   1      56.745  -0.147  31.963  0.00  0.00     0.039 A 
ATOM     14  C   UNL d   1      56.912   0.325  32.622  0.00  0.00     0.003 A 
ATOM     15  C   UNL d   1      56.632   0.109  33.366  0.00  0.00     0.000 A 
ATOM     16  C   UNL d   1      56.184  -0.579  33.456  0.00  0.00     0.000 A 
ATOM     17  C   UNL d   1      56.018  -1.048  32.797  0.00  0.00     0.000 A 
ATOM     18  C   UNL d   1      56.298  -0.830  32.055  0.00  0.00     0.003 A 
ENDBRANCH  11  13
ENDBRANCH  10  11
ENDBRANCH   1  10
TORSDOF 5
ENDMDL
