MODEL 1
REMARK VINA RESULT:      -7.7      0.000      0.000
REMARK  1 active torsions:
REMARK  status: ('A' for Active; 'I' for Inactive)
REMARK    1  A    between atoms: C_6  and  C_1 
ROOT
ATOM      1  C   UNL d   1     -48.014  13.390  23.156  0.00  0.00     0.162 A 
ATOM      2  N   UNL d   1     -47.888  14.113  22.855  0.00  0.00    -0.225 NA
ATOM      3  N   UNL d   1     -48.822  13.328  23.331  0.00  0.00    -0.225 NA
ATOM      4  C   UNL d   1     -48.592  14.530  22.827  0.00  0.00     0.101 A 
ATOM      5  C   UNL d   1     -49.181  14.035  23.127  0.00  0.00     0.101 A 
ATOM      6  C   UNL d   1     -48.751  15.269  22.573  0.00  0.00     0.021 A 
ATOM      7  C   UNL d   1     -49.920  14.287  23.168  0.00  0.00     0.021 A 
ATOM      8  C   UNL d   1     -49.541  15.534  22.620  0.00  0.00     0.002 A 
ATOM      9  C   UNL d   1     -50.131  15.038  22.920  0.00  0.00     0.002 A 
ENDROOT
BRANCH   1  10
ATOM     10  C   UNL d   1     -47.531  12.803  23.291  0.00  0.00     0.036 A 
ATOM     11  C   UNL d   1     -47.831  12.079  23.548  0.00  0.00     0.005 A 
ATOM     12  C   UNL d   1     -47.301  11.443  23.693  0.00  0.00     0.021 A 
ATOM     13  C   UNL d   1     -46.474  11.578  23.567  0.00  0.00     0.103 A 
ATOM     14  C   UNL d   1     -46.196  12.282  23.318  0.00  0.00     0.021 A 
ATOM     15  N   UNL d   1     -45.904  10.978  23.697  0.00  0.00    -0.148 N 
ATOM     16  C   UNL d   1     -46.726  12.918  23.173  0.00  0.00     0.005 A 
ENDBRANCH   1  10
TORSDOF 1
ENDMDL
MODEL 2
REMARK VINA RESULT:      -7.6      1.473      2.098
REMARK  1 active torsions:
REMARK  status: ('A' for Active; 'I' for Inactive)
REMARK    1  A    between atoms: C_6  and  C_1 
ROOT
ATOM      1  C   UNL d   1     -48.450  12.762  23.084  0.00  0.00     0.162 A 
ATOM      2  N   UNL d   1     -48.862  12.093  23.199  0.00  0.00    -0.225 NA
ATOM      3  N   UNL d   1     -48.971  13.398  23.189  0.00  0.00    -0.225 NA
ATOM      4  C   UNL d   1     -49.641  12.272  23.377  0.00  0.00     0.101 A 
ATOM      5  C   UNL d   1     -49.709  13.096  23.370  0.00  0.00     0.101 A 
ATOM      6  C   UNL d   1     -50.263  11.799  23.536  0.00  0.00     0.021 A 
ATOM      7  C   UNL d   1     -50.398  13.432  23.522  0.00  0.00     0.021 A 
ATOM      8  C   UNL d   1     -50.996  12.162  23.698  0.00  0.00     0.002 A 
ATOM      9  C   UNL d   1     -51.064  12.985  23.691  0.00  0.00     0.002 A 
ENDROOT
BRANCH   1  10
ATOM     10  C   UNL d   1     -47.708  12.878  22.907  0.00  0.00     0.036 A 
ATOM     11  C   UNL d   1     -47.120  12.615  23.422  0.00  0.00     0.005 A 
ATOM     12  C   UNL d   1     -46.314  12.744  23.225  0.00  0.00     0.021 A 
ATOM     13  C   UNL d   1     -46.141  13.143  22.497  0.00  0.00     0.103 A 
ATOM     14  C   UNL d   1     -46.718  13.393  22.008  0.00  0.00     0.021 A 
ATOM     15  N   UNL d   1     -45.354  13.297  22.254  0.00  0.00    -0.148 N 
ATOM     16  C   UNL d   1     -47.524  13.264  22.205  0.00  0.00     0.005 A 
ENDBRANCH   1  10
TORSDOF 1
ENDMDL
MODEL 3
REMARK VINA RESULT:      -7.6      1.543      3.106
REMARK  1 active torsions:
REMARK  status: ('A' for Active; 'I' for Inactive)
REMARK    1  A    between atoms: C_6  and  C_1 
ROOT
ATOM      1  C   UNL d   1     -48.088  12.857  22.979  0.00  0.00     0.162 A 
ATOM      2  N   UNL d   1     -47.458  12.487  22.668  0.00  0.00    -0.225 NA
ATOM      3  N   UNL d   1     -47.864  13.638  23.145  0.00  0.00    -0.225 NA
ATOM      4  C   UNL d   1     -46.825  13.004  22.626  0.00  0.00     0.101 A 
ATOM      5  C   UNL d   1     -47.081  13.730  22.926  0.00  0.00     0.101 A 
ATOM      6  C   UNL d   1     -46.080  12.897  22.359  0.00  0.00     0.021 A 
ATOM      7  C   UNL d   1     -46.589  14.337  22.955  0.00  0.00     0.021 A 
ATOM      8  C   UNL d   1     -45.559  13.548  22.392  0.00  0.00     0.002 A 
ATOM      9  C   UNL d   1     -45.816  14.274  22.692  0.00  0.00     0.002 A 
ENDROOT
BRANCH   1  10
ATOM     10  C   UNL d   1     -48.803  12.606  23.128  0.00  0.00     0.036 A 
ATOM     11  C   UNL d   1     -49.451  13.052  22.878  0.00  0.00     0.005 A 
ATOM     12  C   UNL d   1     -50.227  12.775  23.043  0.00  0.00     0.021 A 
ATOM     13  C   UNL d   1     -50.308  12.043  23.462  0.00  0.00     0.103 A 
ATOM     14  C   UNL d   1     -49.674  11.622  23.698  0.00  0.00     0.021 A 
ATOM     15  N   UNL d   1     -51.059  11.723  23.652  0.00  0.00    -0.148 N 
ATOM     16  C   UNL d   1     -48.898  11.898  23.533  0.00  0.00     0.005 A 
ENDBRANCH   1  10
TORSDOF 1
ENDMDL
MODEL 4
REMARK VINA RESULT:      -7.5      1.005      3.663
REMARK  1 active torsions:
REMARK  status: ('A' for Active; 'I' for Inactive)
REMARK    1  A    between atoms: C_6  and  C_1 
ROOT
ATOM      1  C   UNL d   1     -48.232  13.812  22.854  0.00  0.00     0.162 A 
ATOM      2  N   UNL d   1     -47.511  14.014  22.592  0.00  0.00    -0.225 NA
ATOM      3  N   UNL d   1     -48.165  13.076  23.231  0.00  0.00    -0.225 NA
ATOM      4  C   UNL d   1     -46.970  13.430  22.785  0.00  0.00     0.101 A 
ATOM      5  C   UNL d   1     -47.382  12.839  23.188  0.00  0.00     0.101 A 
ATOM      6  C   UNL d   1     -46.187  13.378  22.644  0.00  0.00     0.021 A 
ATOM      7  C   UNL d   1     -47.005  12.204  23.444  0.00  0.00     0.021 A 
ATOM      8  C   UNL d   1     -45.788  12.698  22.919  0.00  0.00     0.002 A 
ATOM      9  C   UNL d   1     -46.200  12.107  23.322  0.00  0.00     0.002 A 
ENDROOT
BRANCH   1  10
ATOM     10  C   UNL d   1     -48.912  14.175  22.808  0.00  0.00     0.036 A 
ATOM     11  C   UNL d   1     -49.465  13.934  22.246  0.00  0.00     0.005 A 
ATOM     12  C   UNL d   1     -50.203  14.332  22.198  0.00  0.00     0.021 A 
ATOM     13  C   UNL d   1     -50.345  14.971  22.737  0.00  0.00     0.103 A 
ATOM     14  C   UNL d   1     -49.802  15.195  23.276  0.00  0.00     0.021 A 
ATOM     15  N   UNL d   1     -51.064  15.401  22.732  0.00  0.00    -0.148 N 
ATOM     16  C   UNL d   1     -49.065  14.796  23.323  0.00  0.00     0.005 A 
ENDBRANCH   1  10
TORSDOF 1
ENDMDL
