MODEL 1
REMARK VINA RESULT:      41.6      0.000      0.000
REMARK  2 active torsions:
REMARK  status: ('A' for Active; 'I' for Inactive)
REMARK    1  A    between atoms: C_7  and  C_1 
REMARK    2  A    between atoms: S_13  and  C_5 
ROOT
ATOM      1  C   UNL d   1      59.161  49.687  50.954  0.00  0.00     0.025 A 
ATOM      2  C   UNL d   1      59.277  49.693  51.770  0.00  0.00     0.106 A 
ATOM      3  C   UNL d   1      59.814  49.681  50.448  0.00  0.00     0.092 A 
ATOM      4  N   UNL d   1      60.690  49.688  51.575  0.00  0.00    -0.218 NA
ATOM      5  C   UNL d   1      60.578  49.682  50.758  0.00  0.00     0.118 A 
ATOM      6  C   UNL d   1      60.041  49.693  52.080  0.00  0.00     0.194 A 
ATOM      7  C   UNL d   1      58.623  49.699  52.277  0.00  0.00     0.104 C 
ATOM      8  C   UNL d   1      59.696  49.675  49.636  0.00  0.00     0.103 C 
ATOM      9  N   UNL d   1      57.981  49.704  52.776  0.00  0.00    -0.191 NA
ATOM     10  N   UNL d   1      59.584  49.669  48.829  0.00  0.00    -0.191 NA
ATOM     11  N   UNL d   1      60.153  49.699  52.898  0.00  0.00    -0.126 N 
ENDROOT
BRANCH   1  12
ATOM     12  C   UNL d   1      58.403  49.687  50.646  0.00  0.00     0.012 A 
ATOM     13  C   UNL d   1      58.288  49.694  49.828  0.00  0.00     0.058 A 
ATOM     14 CL   UNL d   1      58.938  49.701  49.328  0.00  0.00    -0.082 Cl
ATOM     15  C   UNL d   1      57.513  49.694  49.513  0.00  0.00     0.011 A 
ATOM     16  C   UNL d   1      56.867  49.686  50.022  0.00  0.00     0.001 A 
ATOM     17  C   UNL d   1      56.976  49.679  50.835  0.00  0.00     0.000 A 
ATOM     18  C   UNL d   1      57.751  49.679  51.150  0.00  0.00     0.001 A 
ENDBRANCH   1  12
BRANCH   5  19
ATOM     19  S   UNL d   1      61.230  49.676  50.247  0.00  0.00    -0.093 SA
ATOM     20  C   UNL d   1      61.456  48.979  49.866  0.00  0.00     0.076 C 
ENDBRANCH   5  19
TORSDOF 2
ENDMDL
MODEL 2
REMARK VINA RESULT:      44.2      1.326      2.893
REMARK  2 active torsions:
REMARK  status: ('A' for Active; 'I' for Inactive)
REMARK    1  A    between atoms: C_7  and  C_1 
REMARK    2  A    between atoms: S_13  and  C_5 
ROOT
ATOM      1  C   UNL d   1      59.963  49.332  51.064  0.00  0.00     0.025 A 
ATOM      2  C   UNL d   1      60.065  49.426  51.877  0.00  0.00     0.106 A 
ATOM      3  C   UNL d   1      59.211  49.427  50.733  0.00  0.00     0.092 A 
ATOM      4  N   UNL d   1      58.675  49.707  52.027  0.00  0.00    -0.218 NA
ATOM      5  C   UNL d   1      58.568  49.614  51.214  0.00  0.00     0.118 A 
ATOM      6  C   UNL d   1      59.422  49.613  52.358  0.00  0.00     0.194 A 
ATOM      7  C   UNL d   1      60.818  49.331  52.208  0.00  0.00     0.104 C 
ATOM      8  C   UNL d   1      59.111  49.333  49.924  0.00  0.00     0.103 C 
ATOM      9  N   UNL d   1      61.556  49.238  52.535  0.00  0.00    -0.191 NA
ATOM     10  N   UNL d   1      59.007  49.240  49.122  0.00  0.00    -0.191 NA
ATOM     11  N   UNL d   1      59.529  49.706  53.171  0.00  0.00    -0.126 N 
ENDROOT
BRANCH   1  12
ATOM     12  C   UNL d   1      60.601  49.146  50.588  0.00  0.00     0.012 A 
ATOM     13  C   UNL d   1      60.942  48.394  50.626  0.00  0.00     0.058 A 
ATOM     14 CL   UNL d   1      60.636  47.837  51.145  0.00  0.00    -0.082 Cl
ATOM     15  C   UNL d   1      61.595  48.204  50.138  0.00  0.00     0.011 A 
ATOM     16  C   UNL d   1      61.895  48.769  49.621  0.00  0.00     0.001 A 
ATOM     17  C   UNL d   1      61.560  49.517  49.580  0.00  0.00     0.000 A 
ATOM     18  C   UNL d   1      60.907  49.707  50.068  0.00  0.00     0.001 A 
ENDBRANCH   1  12
BRANCH   5  19
ATOM     19  S   UNL d   1      57.817  49.708  50.878  0.00  0.00    -0.093 SA
ATOM     20  C   UNL d   1      57.139  49.642  51.344  0.00  0.00     0.076 C 
ENDBRANCH   5  19
TORSDOF 2
ENDMDL
