MODEL 1
REMARK VINA RESULT:      -8.7      0.000      0.000
REMARK  8 active torsions:
REMARK  status: ('A' for Active; 'I' for Inactive)
REMARK    1  A    between atoms: C_13  and  C_4 
REMARK    2  A    between atoms: N_16  and  C_5 
REMARK    3  A    between atoms: C_20  and  C_9 
REMARK    4  A    between atoms: N_11  and  C_18 
REMARK    5  A    between atoms: C_21  and  N_16 
REMARK    6  A    between atoms: C_18  and  C_19 
REMARK    7  A    between atoms: C_19  and  C_21 
REMARK    8  A    between atoms: C_24  and  C_20 
ROOT
ATOM      1  N   UNL d   1      51.979  34.217  53.373  0.00  0.00    -0.184 N 
ATOM      2  C   UNL d   1      52.682  33.905  53.694  0.00  0.00     0.168 A 
ATOM      3  N   UNL d   1      52.181  35.417  54.095  0.00  0.00    -0.162 NA
ATOM      4  C   UNL d   1      53.123  34.347  54.206  0.00  0.00     0.055 A 
ATOM      5  C   UNL d   1      51.550  33.754  52.859  0.00  0.00     0.218 A 
ATOM      6  C   UNL d   1      52.884  35.105  54.416  0.00  0.00     0.104 A 
ATOM      7  N   UNL d   1      52.920  33.147  53.485  0.00  0.00    -0.227 NA
ATOM      8  C   UNL d   1      51.775  33.009  52.647  0.00  0.00     0.071 A 
ATOM      9  C   UNL d   1      52.478  32.697  52.968  0.00  0.00     0.087 A 
ATOM     10  C   UNL d   1      53.323  35.556  54.931  0.00  0.00     0.023 C 
ENDROOT
BRANCH   5  11
ATOM     11  N   UNL d   1      50.825  34.075  52.528  0.00  0.00    -0.380 NA
BRANCH  11  12
ATOM     12  C   UNL d   1      50.108  34.346  52.144  0.00  0.00     0.164 C 
BRANCH  12  13
ATOM     13  C   UNL d   1      49.549  34.816  52.581  0.00  0.00     0.054 C 
BRANCH  13  14
ATOM     14  C   UNL d   1      48.805  35.026  52.226  0.00  0.00     0.084 C 
BRANCH  14  15
ATOM     15  N   UNL d   1      48.310  35.598  52.594  0.00  0.00    -0.285 N 
ATOM     16  C   UNL d   1      48.355  35.864  53.398  0.00  0.00     0.183 A 
ATOM     17  N   UNL d   1      47.744  36.446  53.526  0.00  0.00    -0.222 NA
ATOM     18  C   UNL d   1      47.317  36.546  52.805  0.00  0.00     0.120 A 
ATOM     19  C   UNL d   1      47.660  36.027  52.227  0.00  0.00     0.102 A 
ENDBRANCH  14  15
ENDBRANCH  13  14
ENDBRANCH  12  13
ENDBRANCH  11  12
ENDBRANCH   5  11
BRANCH   9  20
ATOM     20  C   UNL d   1      52.732  31.909  52.754  0.00  0.00     0.019 C 
BRANCH  20  21
ATOM     21  C   UNL d   1      52.413  31.218  53.164  0.00  0.00     0.002 C 
ATOM     22  C   UNL d   1      52.788  30.462  53.082  0.00  0.00     0.000 C 
ENDBRANCH  20  21
ENDBRANCH   9  20
BRANCH   4  23
ATOM     23  C   UNL d   1      53.815  34.040  54.523  0.00  0.00     0.004 A 
ATOM     24  C   UNL d   1      53.787  33.625  55.227  0.00  0.00     0.000 A 
ATOM     25  C   UNL d   1      54.480  33.318  55.543  0.00  0.00     0.000 A 
ATOM     26  C   UNL d   1      55.200  33.427  55.155  0.00  0.00     0.000 A 
ATOM     27  C   UNL d   1      55.229  33.844  54.447  0.00  0.00     0.000 A 
ATOM     28  C   UNL d   1      54.525  34.156  54.126  0.00  0.00     0.000 A 
ENDBRANCH   4  23
TORSDOF 8
ENDMDL
MODEL 2
REMARK VINA RESULT:      -7.6      0.960      2.404
REMARK  8 active torsions:
REMARK  status: ('A' for Active; 'I' for Inactive)
REMARK    1  A    between atoms: C_13  and  C_4 
REMARK    2  A    between atoms: N_16  and  C_5 
REMARK    3  A    between atoms: C_20  and  C_9 
REMARK    4  A    between atoms: N_11  and  C_18 
REMARK    5  A    between atoms: C_21  and  N_16 
REMARK    6  A    between atoms: C_18  and  C_19 
REMARK    7  A    between atoms: C_19  and  C_21 
REMARK    8  A    between atoms: C_24  and  C_20 
ROOT
ATOM      1  N   UNL d   1      51.769  33.409  52.796  0.00  0.00    -0.184 N 
ATOM      2  C   UNL d   1      52.486  33.404  53.221  0.00  0.00     0.168 A 
ATOM      3  N   UNL d   1      51.887  32.015  52.583  0.00  0.00    -0.162 NA
ATOM      4  C   UNL d   1      52.891  32.713  53.322  0.00  0.00     0.055 A 
ATOM      5  C   UNL d   1      51.377  34.116  52.706  0.00  0.00     0.218 A 
ATOM      6  C   UNL d   1      52.603  32.010  53.008  0.00  0.00     0.104 A 
ATOM      7  N   UNL d   1      52.774  34.107  53.535  0.00  0.00    -0.227 NA
ATOM      8  C   UNL d   1      51.651  34.811  53.011  0.00  0.00     0.071 A 
ATOM      9  C   UNL d   1      52.368  34.807  53.436  0.00  0.00     0.087 A 
ATOM     10  C   UNL d   1      53.006  31.310  53.106  0.00  0.00     0.023 C 
ENDROOT
BRANCH   5  11
ATOM     11  N   UNL d   1      50.638  34.121  52.268  0.00  0.00    -0.380 NA
BRANCH  11  12
ATOM     12  C   UNL d   1      49.933  34.170  51.782  0.00  0.00     0.164 C 
BRANCH  12  13
ATOM     13  C   UNL d   1      49.290  34.673  52.024  0.00  0.00     0.054 C 
BRANCH  13  14
ATOM     14  C   UNL d   1      48.678  34.870  51.468  0.00  0.00     0.084 C 
BRANCH  14  15
ATOM     15  N   UNL d   1      48.028  35.347  51.711  0.00  0.00    -0.285 N 
ATOM     16  C   UNL d   1      48.016  35.896  52.357  0.00  0.00     0.183 A 
ATOM     17  N   UNL d   1      47.243  36.253  52.396  0.00  0.00    -0.222 NA
ATOM     18  C   UNL d   1      46.769  35.930  51.776  0.00  0.00     0.120 A 
ATOM     19  C   UNL d   1      47.246  35.371  51.351  0.00  0.00     0.102 A 
ENDBRANCH  14  15
ENDBRANCH  13  14
ENDBRANCH  12  13
ENDBRANCH  11  12
ENDBRANCH   5  11
BRANCH   9  20
ATOM     20  C   UNL d   1      52.672  35.535  53.765  0.00  0.00     0.019 C 
BRANCH  20  21
ATOM     21  C   UNL d   1      52.563  35.720  54.602  0.00  0.00     0.002 C 
ATOM     22  C   UNL d   1      53.021  36.332  54.969  0.00  0.00     0.000 C 
ENDBRANCH  20  21
ENDBRANCH   9  20
BRANCH   4  23
ATOM     23  C   UNL d   1      53.597  32.709  53.741  0.00  0.00     0.004 A 
ATOM     24  C   UNL d   1      54.301  32.840  53.346  0.00  0.00     0.000 A 
ATOM     25  C   UNL d   1      55.008  32.835  53.765  0.00  0.00     0.000 A 
ATOM     26  C   UNL d   1      55.009  32.700  54.579  0.00  0.00     0.000 A 
ATOM     27  C   UNL d   1      54.302  32.568  54.977  0.00  0.00     0.000 A 
ATOM     28  C   UNL d   1      53.584  32.573  54.551  0.00  0.00     0.000 A 
ENDBRANCH   4  23
TORSDOF 8
ENDMDL
MODEL 3
REMARK VINA RESULT:      -6.3      1.739      4.859
REMARK  8 active torsions:
REMARK  status: ('A' for Active; 'I' for Inactive)
REMARK    1  A    between atoms: C_13  and  C_4 
REMARK    2  A    between atoms: N_16  and  C_5 
REMARK    3  A    between atoms: C_20  and  C_9 
REMARK    4  A    between atoms: N_11  and  C_18 
REMARK    5  A    between atoms: C_21  and  N_16 
REMARK    6  A    between atoms: C_18  and  C_19 
REMARK    7  A    between atoms: C_19  and  C_21 
REMARK    8  A    between atoms: C_24  and  C_20 
ROOT
ATOM      1  N   UNL d   1      53.112  32.704  53.511  0.00  0.00    -0.184 N 
ATOM      2  C   UNL d   1      53.004  33.507  53.704  0.00  0.00     0.168 A 
ATOM      3  N   UNL d   1      54.248  32.654  54.354  0.00  0.00    -0.162 NA
ATOM      4  C   UNL d   1      53.513  33.872  54.214  0.00  0.00     0.055 A 
ATOM      5  C   UNL d   1      52.587  32.356  52.995  0.00  0.00     0.218 A 
ATOM      6  C   UNL d   1      54.140  33.457  54.547  0.00  0.00     0.104 A 
ATOM      7  N   UNL d   1      52.378  33.922  53.371  0.00  0.00    -0.227 NA
ATOM      8  C   UNL d   1      51.969  32.755  52.663  0.00  0.00     0.071 A 
ATOM      9  C   UNL d   1      51.862  33.558  52.856  0.00  0.00     0.087 A 
ATOM     10  C   UNL d   1      54.656  33.818  55.061  0.00  0.00     0.023 C 
ENDROOT
BRANCH   5  11
ATOM     11  N   UNL d   1      52.698  31.528  52.796  0.00  0.00    -0.380 NA
BRANCH  11  12
ATOM     12  C   UNL d   1      52.801  30.686  52.669  0.00  0.00     0.164 C 
BRANCH  12  13
ATOM     13  C   UNL d   1      52.701  30.147  53.320  0.00  0.00     0.054 C 
BRANCH  13  14
ATOM     14  C   UNL d   1      53.258  29.515  53.433  0.00  0.00     0.084 C 
BRANCH  14  15
ATOM     15  N   UNL d   1      53.304  29.124  54.177  0.00  0.00    -0.285 N 
ATOM     16  C   UNL d   1      53.662  28.372  54.333  0.00  0.00     0.183 A 
ATOM     17  N   UNL d   1      53.577  28.196  55.163  0.00  0.00    -0.222 NA
ATOM     18  C   UNL d   1      53.166  28.836  55.529  0.00  0.00     0.120 A 
ATOM     19  C   UNL d   1      52.994  29.411  54.928  0.00  0.00     0.102 A 
ENDBRANCH  14  15
ENDBRANCH  13  14
ENDBRANCH  12  13
ENDBRANCH  11  12
ENDBRANCH   5  11
BRANCH   9  20
ATOM     20  C   UNL d   1      51.211  33.995  52.512  0.00  0.00     0.019 C 
BRANCH  20  21
ATOM     21  C   UNL d   1      50.417  33.939  52.849  0.00  0.00     0.002 C 
ATOM     22  C   UNL d   1      49.808  34.474  52.601  0.00  0.00     0.000 C 
ENDBRANCH  20  21
ENDBRANCH   9  20
BRANCH   4  23
ATOM     23  C   UNL d   1      53.407  34.664  54.404  0.00  0.00     0.004 A 
ATOM     24  C   UNL d   1      53.006  34.864  55.088  0.00  0.00     0.000 A 
ATOM     25  C   UNL d   1      52.900  35.655  55.278  0.00  0.00     0.000 A 
ATOM     26  C   UNL d   1      53.195  36.246  54.783  0.00  0.00     0.000 A 
ATOM     27  C   UNL d   1      53.598  36.046  54.095  0.00  0.00     0.000 A 
ATOM     28  C   UNL d   1      53.706  35.242  53.902  0.00  0.00     0.000 A 
ENDBRANCH   4  23
TORSDOF 8
ENDMDL
