MODEL 1
REMARK VINA RESULT:      -3.7      0.000      0.000
REMARK  4 active torsions:
REMARK  status: ('A' for Active; 'I' for Inactive)
REMARK    1  A    between atoms: C_13  and  N_1 
REMARK    2  A    between atoms: N_6  and  C_15 
REMARK    3  A    between atoms: C_14  and  C_13 
REMARK    4  A    between atoms: C_15  and  C_14 
ROOT
ATOM      1  C   UNL d   1      58.062   0.635  30.581  0.00  0.00     0.087 C 
ENDROOT
BRANCH   1   2
ATOM      2  N   UNL d   1      58.640   0.417  30.032  0.00  0.00    -0.248 N 
ATOM      3  C   UNL d   1      59.436   0.458  30.150  0.00  0.00     0.208 A 
ATOM      4  N   UNL d   1      59.795   0.194  29.481  0.00  0.00    -0.212 NA
ATOM      5  S   UNL d   1      59.887   0.682  30.727  0.00  0.00    -0.038 SA
ATOM      6  C   UNL d   1      59.227  -0.008  28.955  0.00  0.00     0.162 A 
ATOM      7  C   UNL d   1      58.510   0.132  29.303  0.00  0.00     0.286 A 
ATOM      8  O   UNL d   1      58.046  -0.037  28.863  0.00  0.00    -0.265 OA
ENDBRANCH   1   2
BRANCH   1   9
ATOM      9  C   UNL d   1      57.650   0.055  31.002  0.00  0.00     0.038 C 
BRANCH   9  10
ATOM     10  C   UNL d   1      57.019   0.268  31.492  0.00  0.00     0.083 C 
BRANCH  10  11
ATOM     11  N   UNL d   1      56.676  -0.293  31.987  0.00  0.00    -0.285 N 
ATOM     12  C   UNL d   1      56.665  -1.105  31.862  0.00  0.00     0.183 A 
ATOM     13  N   UNL d   1      56.262  -1.454  32.499  0.00  0.00    -0.222 NA
ATOM     14  C   UNL d   1      56.028  -0.861  33.012  0.00  0.00     0.120 A 
ATOM     15  C   UNL d   1      56.284  -0.142  32.696  0.00  0.00     0.102 A 
ENDBRANCH  10  11
ENDBRANCH   9  10
ENDBRANCH   1   9
TORSDOF 4
ENDMDL
MODEL 2
REMARK VINA RESULT:      -2.8      2.224      3.608
REMARK  4 active torsions:
REMARK  status: ('A' for Active; 'I' for Inactive)
REMARK    1  A    between atoms: C_13  and  N_1 
REMARK    2  A    between atoms: N_6  and  C_15 
REMARK    3  A    between atoms: C_14  and  C_13 
REMARK    4  A    between atoms: C_15  and  C_14 
ROOT
ATOM      1  C   UNL d   1      58.716  -0.582  29.188  0.00  0.00     0.087 C 
ENDROOT
BRANCH   1   2
ATOM      2  N   UNL d   1      58.599  -0.152  29.884  0.00  0.00    -0.248 N 
ATOM      3  C   UNL d   1      59.106   0.397  30.185  0.00  0.00     0.208 A 
ATOM      4  N   UNL d   1      58.782   0.682  30.864  0.00  0.00    -0.212 NA
ATOM      5  S   UNL d   1      59.785   0.682  29.972  0.00  0.00    -0.038 SA
ATOM      6  C   UNL d   1      58.082   0.313  30.981  0.00  0.00     0.162 A 
ATOM      7  C   UNL d   1      57.972  -0.204  30.369  0.00  0.00     0.286 A 
ATOM      8  O   UNL d   1      57.393  -0.505  30.471  0.00  0.00    -0.265 OA
ENDBRANCH   1   2
BRANCH   1   9
ATOM      9  C   UNL d   1      58.905  -1.386  29.226  0.00  0.00     0.038 C 
BRANCH   9  10
ATOM     10  C   UNL d   1      59.050  -1.810  28.532  0.00  0.00     0.083 C 
BRANCH  10  11
ATOM     11  N   UNL d   1      59.227  -2.613  28.570  0.00  0.00    -0.285 N 
ATOM     12  C   UNL d   1      58.688  -3.230  28.509  0.00  0.00     0.183 A 
ATOM     13  N   UNL d   1      59.108  -3.943  28.578  0.00  0.00    -0.222 NA
ATOM     14  C   UNL d   1      59.901  -3.765  28.681  0.00  0.00     0.120 A 
ATOM     15  C   UNL d   1      59.975  -2.943  28.676  0.00  0.00     0.102 A 
ENDBRANCH  10  11
ENDBRANCH   9  10
ENDBRANCH   1   9
TORSDOF 4
ENDMDL
MODEL 3
REMARK VINA RESULT:      -2.7      1.602      2.021
REMARK  4 active torsions:
REMARK  status: ('A' for Active; 'I' for Inactive)
REMARK    1  A    between atoms: C_13  and  N_1 
REMARK    2  A    between atoms: N_6  and  C_15 
REMARK    3  A    between atoms: C_14  and  C_13 
REMARK    4  A    between atoms: C_15  and  C_14 
ROOT
ATOM      1  C   UNL d   1      57.173   0.391  31.566  0.00  0.00     0.087 C 
ENDROOT
BRANCH   1   2
ATOM      2  N   UNL d   1      57.486  -0.149  31.025  0.00  0.00    -0.248 N 
ATOM      3  C   UNL d   1      57.968   0.035  30.406  0.00  0.00     0.208 A 
ATOM      4  N   UNL d   1      58.143  -0.650  30.021  0.00  0.00    -0.212 NA
ATOM      5  S   UNL d   1      58.271   0.682  30.129  0.00  0.00    -0.038 SA
ATOM      6  C   UNL d   1      57.774  -1.250  30.399  0.00  0.00     0.162 A 
ATOM      7  C   UNL d   1      57.366  -0.934  31.022  0.00  0.00     0.286 A 
ATOM      8  O   UNL d   1      57.063  -1.435  31.329  0.00  0.00    -0.265 OA
ENDBRANCH   1   2
BRANCH   1   9
ATOM      9  C   UNL d   1      56.644   0.135  32.147  0.00  0.00     0.038 C 
BRANCH   9  10
ATOM     10  C   UNL d   1      56.144   0.677  32.520  0.00  0.00     0.083 C 
BRANCH  10  11
ATOM     11  N   UNL d   1      55.858   0.521  33.276  0.00  0.00    -0.285 N 
ATOM     12  C   UNL d   1      55.134   0.177  33.456  0.00  0.00     0.183 A 
ATOM     13  N   UNL d   1      55.076   0.125  34.283  0.00  0.00    -0.222 NA
ATOM     14  C   UNL d   1      55.760   0.436  34.609  0.00  0.00     0.120 A 
ATOM     15  C   UNL d   1      56.244   0.681  33.986  0.00  0.00     0.102 A 
ENDBRANCH  10  11
ENDBRANCH   9  10
ENDBRANCH   1   9
TORSDOF 4
ENDMDL
MODEL 4
REMARK VINA RESULT:      -2.0      9.342      9.880
REMARK  4 active torsions:
REMARK  status: ('A' for Active; 'I' for Inactive)
REMARK    1  A    between atoms: C_13  and  N_1 
REMARK    2  A    between atoms: N_6  and  C_15 
REMARK    3  A    between atoms: C_14  and  C_13 
REMARK    4  A    between atoms: C_15  and  C_14 
ROOT
ATOM      1  C   UNL d   1      58.854  -9.492  33.651  0.00  0.00     0.087 C 
ENDROOT
BRANCH   1   2
ATOM      2  N   UNL d   1      59.057  -9.618  32.860  0.00  0.00    -0.248 N 
ATOM      3  C   UNL d   1      58.537  -9.686  32.249  0.00  0.00     0.208 A 
ATOM      4  N   UNL d   1      58.963  -9.804  31.577  0.00  0.00    -0.212 NA
ATOM      5  S   UNL d   1      57.774  -9.664  32.183  0.00  0.00    -0.038 SA
ATOM      6  C   UNL d   1      59.739  -9.809  31.772  0.00  0.00     0.162 A 
ATOM      7  C   UNL d   1      59.793  -9.692  32.570  0.00  0.00     0.286 A 
ATOM      8  O   UNL d   1      60.436  -9.697  32.724  0.00  0.00    -0.265 OA
ENDBRANCH   1   2
BRANCH   1   9
ATOM      9  C   UNL d   1      59.404  -9.160  34.172  0.00  0.00     0.038 C 
BRANCH   9  10
ATOM     10  C   UNL d   1      59.224  -9.089  34.975  0.00  0.00     0.083 C 
BRANCH  10  11
ATOM     11  N   UNL d   1      59.577  -8.498  35.426  0.00  0.00    -0.285 N 
ATOM     12  C   UNL d   1      59.437  -7.691  35.358  0.00  0.00     0.183 A 
ATOM     13  N   UNL d   1      59.911  -7.304  35.919  0.00  0.00    -0.222 NA
ATOM     14  C   UNL d   1      60.339  -7.869  36.329  0.00  0.00     0.120 A 
ATOM     15  C   UNL d   1      60.133  -8.607  36.024  0.00  0.00     0.102 A 
ENDBRANCH  10  11
ENDBRANCH   9  10
ENDBRANCH   1   9
TORSDOF 4
ENDMDL
MODEL 5
REMARK VINA RESULT:      -1.2      2.786      4.642
REMARK  4 active torsions:
REMARK  status: ('A' for Active; 'I' for Inactive)
REMARK    1  A    between atoms: C_13  and  N_1 
REMARK    2  A    between atoms: N_6  and  C_15 
REMARK    3  A    between atoms: C_14  and  C_13 
REMARK    4  A    between atoms: C_15  and  C_14 
ROOT
ATOM      1  C   UNL d   1      56.045   0.682  33.672  0.00  0.00     0.087 C 
ENDROOT
BRANCH   1   2
ATOM      2  N   UNL d   1      55.272   0.659  33.963  0.00  0.00    -0.248 N 
ATOM      3  C   UNL d   1      55.066   0.650  34.742  0.00  0.00     0.208 A 
ATOM      4  N   UNL d   1      54.263   0.627  34.781  0.00  0.00    -0.212 NA
ATOM      5  S   UNL d   1      55.451   0.659  35.404  0.00  0.00    -0.038 SA
ATOM      6  C   UNL d   1      53.976   0.622  34.035  0.00  0.00     0.162 A 
ATOM      7  C   UNL d   1      54.607   0.641  33.529  0.00  0.00     0.286 A 
ATOM      8  O   UNL d   1      54.363   0.636  32.915  0.00  0.00    -0.265 OA
ENDBRANCH   1   2
BRANCH   1   9
ATOM      9  C   UNL d   1      56.187   0.575  32.865  0.00  0.00     0.038 C 
BRANCH   9  10
ATOM     10  C   UNL d   1      56.962   0.530  32.583  0.00  0.00     0.083 C 
BRANCH  10  11
ATOM     11  N   UNL d   1      57.117   0.164  31.862  0.00  0.00    -0.285 N 
ATOM     12  C   UNL d   1      57.145  -0.646  31.728  0.00  0.00     0.183 A 
ATOM     13  N   UNL d   1      57.319  -0.765  30.925  0.00  0.00    -0.222 NA
ATOM     14  C   UNL d   1      57.396  -0.033  30.567  0.00  0.00     0.120 A 
ATOM     15  C   UNL d   1      57.272   0.542  31.147  0.00  0.00     0.102 A 
ENDBRANCH  10  11
ENDBRANCH   9  10
ENDBRANCH   1   9
TORSDOF 4
ENDMDL
