MODEL 1
REMARK VINA RESULT:      36.5      0.000      0.000
REMARK  4 active torsions:
REMARK  status: ('A' for Active; 'I' for Inactive)
REMARK    1  A    between atoms: C_5  and  N_1 
REMARK    2  A    between atoms: C_6  and  C_5 
REMARK       I    between atoms: N_9  and  C_6 
REMARK    3  A    between atoms: C_13  and  N_9 
REMARK    4  A    between atoms: O_19  and  C_14 
ROOT
ATOM      1  C   UNL d   1      13.323  13.187  -3.107  0.00  0.00     0.297 C 
ATOM      2  N   UNL d   1      13.188  12.485  -2.695  0.00  0.00    -0.207 NA
ATOM      3  O   UNL d   1      13.905  13.711  -2.848  0.00  0.00    -0.264 OA
ENDROOT
BRANCH   1   4
ATOM      4  C   UNL d   1      12.879  13.365  -3.774  0.00  0.00     0.148 C 
BRANCH   4   5
ATOM      5  N   UNL d   1      13.249  13.458  -4.505  0.00  0.00    -0.235 N 
ATOM      6  C   UNL d   1      13.325  12.803  -5.016  0.00  0.00     0.273 A 
ATOM      7  C   UNL d   1      13.695  12.896  -5.747  0.00  0.00     0.086 A 
ATOM      8  O   UNL d   1      13.027  12.064  -4.785  0.00  0.00    -0.266 OA
ATOM      9  C   UNL d   1      13.774  12.251  -6.260  0.00  0.00     0.012 C 
ATOM     10  S   UNL d   1      13.991  13.643  -5.969  0.00  0.00    -0.077 SA
ATOM     11  C   UNL d   1      13.913  14.280  -5.462  0.00  0.00     0.097 A 
ATOM     12  C   UNL d   1      13.542  14.187  -4.730  0.00  0.00     0.274 A 
ATOM     13  O   UNL d   1      13.463  14.841  -4.212  0.00  0.00    -0.266 OA
ENDBRANCH   4   5
ENDBRANCH   1   4
BRANCH   2  14
ATOM     14  C   UNL d   1      13.635  12.307  -2.025  0.00  0.00     0.085 A 
ATOM     15  C   UNL d   1      14.432  12.483  -2.009  0.00  0.00     0.021 A 
ATOM     16  C   UNL d   1      14.879  12.313  -1.355  0.00  0.00     0.026 A 
ATOM     17  C   UNL d   1      14.522  11.955  -0.693  0.00  0.00     0.094 A 
ATOM     18  C   UNL d   1      13.725  11.779  -0.709  0.00  0.00     0.026 A 
ATOM     19  C   UNL d   1      13.277  11.960  -1.388  0.00  0.00     0.021 A 
BRANCH  17  20
ATOM     20  O   UNL d   1      14.984  11.779  -0.017  0.00  0.00    -0.328 OA
ATOM     21  C   UNL d   1      15.808  11.793  -0.057  0.00  0.00     0.181 C 
ENDBRANCH  17  20
ENDBRANCH   2  14
TORSDOF 4
ENDMDL
MODEL 2
REMARK VINA RESULT:      39.3      3.227      4.701
REMARK  4 active torsions:
REMARK  status: ('A' for Active; 'I' for Inactive)
REMARK    1  A    between atoms: C_5  and  N_1 
REMARK    2  A    between atoms: C_6  and  C_5 
REMARK       I    between atoms: N_9  and  C_6 
REMARK    3  A    between atoms: C_13  and  N_9 
REMARK    4  A    between atoms: O_19  and  C_14 
ROOT
ATOM      1  C   UNL d   1      14.920  14.344  -0.214  0.00  0.00     0.297 C 
ATOM      2  N   UNL d   1      15.551  14.765  -0.539  0.00  0.00    -0.207 NA
ATOM      3  O   UNL d   1      14.195  14.719  -0.090  0.00  0.00    -0.264 OA
ENDROOT
BRANCH   1   4
ATOM      4  C   UNL d   1      15.011  13.553  -0.015  0.00  0.00     0.148 C 
BRANCH   4   5
ATOM      5  N   UNL d   1      14.800  12.963  -0.551  0.00  0.00    -0.235 N 
ATOM      6  C   UNL d   1      14.020  12.668  -0.555  0.00  0.00     0.273 A 
ATOM      7  C   UNL d   1      13.808  12.079  -1.091  0.00  0.00     0.086 A 
ATOM      8  O   UNL d   1      13.463  12.970  -0.018  0.00  0.00    -0.266 OA
ATOM      9  C   UNL d   1      13.036  11.781  -1.101  0.00  0.00     0.012 C 
ATOM     10  S   UNL d   1      14.376  11.783  -1.626  0.00  0.00    -0.077 SA
ATOM     11  C   UNL d   1      15.139  12.078  -1.616  0.00  0.00     0.097 A 
ATOM     12  C   UNL d   1      15.350  12.668  -1.079  0.00  0.00     0.274 A 
ATOM     13  O   UNL d   1      16.132  12.969  -1.070  0.00  0.00    -0.266 OA
ENDBRANCH   4   5
ENDBRANCH   1   4
BRANCH   2  14
ATOM     14  C   UNL d   1      15.456  15.560  -0.739  0.00  0.00     0.085 A 
ATOM     15  C   UNL d   1      14.939  15.772  -1.333  0.00  0.00     0.021 A 
ATOM     16  C   UNL d   1      14.840  16.550  -1.536  0.00  0.00     0.026 A 
ATOM     17  C   UNL d   1      15.270  17.139  -1.134  0.00  0.00     0.094 A 
ATOM     18  C   UNL d   1      15.787  16.927  -0.539  0.00  0.00     0.026 A 
ATOM     19  C   UNL d   1      15.879  16.124  -0.340  0.00  0.00     0.021 A 
BRANCH  17  20
ATOM     20  O   UNL d   1      15.167  17.943  -1.344  0.00  0.00    -0.328 OA
ATOM     21  C   UNL d   1      14.948  18.153  -2.111  0.00  0.00     0.181 C 
ENDBRANCH  17  20
ENDBRANCH   2  14
TORSDOF 4
ENDMDL
