MODEL 1
REMARK VINA RESULT:      -9.8      0.000      0.000
REMARK  3 active torsions:
REMARK  status: ('A' for Active; 'I' for Inactive)
REMARK    1  A    between atoms: N_2  and  S_1 
REMARK    2  A    between atoms: C_3  and  S_1 
REMARK    3  A    between atoms: C_5  and  N_4 
ROOT
ATOM      1  N   UNL d   1      51.153  34.129  52.853  0.00  0.00    -0.226 N 
ATOM      2  N   UNL d   1      52.568  33.701  53.586  0.00  0.00    -0.301 N 
ATOM      3  C   UNL d   1      51.857  34.525  52.653  0.00  0.00     0.111 A 
ATOM      4  C   UNL d   1      51.163  33.528  53.412  0.00  0.00     0.111 A 
ATOM      5  C   UNL d   1      51.871  33.315  53.778  0.00  0.00     0.100 A 
ATOM      6  C   UNL d   1      52.565  34.311  53.020  0.00  0.00     0.100 A 
ENDROOT
BRANCH   1   7
ATOM      7  S   UNL d   1      50.445  34.342  52.486  0.00  0.00     0.271 S 
ATOM      8  O   UNL d   1      50.042  34.225  53.195  0.00  0.00    -0.200 OA
ATOM      9  O   UNL d   1      50.849  34.460  51.775  0.00  0.00    -0.200 OA
BRANCH   7  10
ATOM     10  C   UNL d   1      49.738  34.556  52.119  0.00  0.00     0.104 A 
ATOM     11  C   UNL d   1      49.212  35.058  52.499  0.00  0.00     0.015 A 
ATOM     12  C   UNL d   1      48.505  35.271  52.133  0.00  0.00     0.028 A 
ATOM     13  C   UNL d   1      47.978  35.777  52.519  0.00  0.00     0.002 C 
ATOM     14  C   UNL d   1      48.325  34.983  51.387  0.00  0.00     0.140 A 
ATOM     15  C   UNL d   1      48.854  34.474  50.996  0.00  0.00     0.030 A 
ATOM     16  F   UNL d   1      47.617  35.197  51.020  0.00  0.00    -0.204 F 
ATOM     17  C   UNL d   1      49.560  34.260  51.362  0.00  0.00     0.015 A 
ENDBRANCH   7  10
ENDBRANCH   1   7
BRANCH   2  18
ATOM     18  C   UNL d   1      53.272  33.489  53.951  0.00  0.00     0.064 A 
ATOM     19  C   UNL d   1      53.679  32.820  53.705  0.00  0.00     0.016 A 
ATOM     20  C   UNL d   1      54.386  32.606  54.072  0.00  0.00     0.001 A 
ATOM     21  C   UNL d   1      53.378  32.359  53.088  0.00  0.00     0.002 C 
ATOM     22  C   UNL d   1      54.685  33.062  54.683  0.00  0.00     0.000 A 
ATOM     23  C   UNL d   1      54.280  33.741  54.939  0.00  0.00     0.001 A 
ATOM     24  C   UNL d   1      53.572  33.955  54.572  0.00  0.00     0.016 A 
ATOM     25  C   UNL d   1      53.165  34.624  54.818  0.00  0.00     0.002 C 
ENDBRANCH   2  18
TORSDOF 3
ENDMDL
MODEL 2
REMARK VINA RESULT:      -8.2      1.974      5.083
REMARK  3 active torsions:
REMARK  status: ('A' for Active; 'I' for Inactive)
REMARK    1  A    between atoms: N_2  and  S_1 
REMARK    2  A    between atoms: C_3  and  S_1 
REMARK    3  A    between atoms: C_5  and  N_4 
ROOT
ATOM      1  N   UNL d   1      51.472  33.893  53.042  0.00  0.00    -0.226 N 
ATOM      2  N   UNL d   1      50.034  34.473  52.478  0.00  0.00    -0.301 N 
ATOM      3  C   UNL d   1      50.762  33.518  53.260  0.00  0.00     0.111 A 
ATOM      4  C   UNL d   1      51.456  34.548  52.548  0.00  0.00     0.111 A 
ATOM      5  C   UNL d   1      50.737  34.838  52.266  0.00  0.00     0.100 A 
ATOM      6  C   UNL d   1      50.043  33.808  52.978  0.00  0.00     0.100 A 
ENDROOT
BRANCH   1   7
ATOM      7  S   UNL d   1      52.191  33.603  53.324  0.00  0.00     0.271 S 
ATOM      8  O   UNL d   1      51.808  32.934  53.614  0.00  0.00    -0.200 OA
ATOM      9  O   UNL d   1      52.576  34.274  53.033  0.00  0.00    -0.200 OA
BRANCH   7  10
ATOM     10  C   UNL d   1      52.910  33.313  53.606  0.00  0.00     0.104 A 
ATOM     11  C   UNL d   1      53.245  33.630  54.284  0.00  0.00     0.015 A 
ATOM     12  C   UNL d   1      53.963  33.341  54.565  0.00  0.00     0.028 A 
ATOM     13  C   UNL d   1      54.298  33.663  55.249  0.00  0.00     0.002 C 
ATOM     14  C   UNL d   1      54.347  32.734  54.169  0.00  0.00     0.140 A 
ATOM     15  C   UNL d   1      54.012  32.407  53.481  0.00  0.00     0.030 A 
ATOM     16  F   UNL d   1      55.066  32.444  54.451  0.00  0.00    -0.204 F 
ATOM     17  C   UNL d   1      53.294  32.697  53.199  0.00  0.00     0.015 A 
ENDBRANCH   7  10
ENDBRANCH   1   7
BRANCH   2  18
ATOM     18  C   UNL d   1      49.319  34.762  52.197  0.00  0.00     0.064 A 
ATOM     19  C   UNL d   1      48.847  35.233  52.676  0.00  0.00     0.016 A 
ATOM     20  C   UNL d   1      48.128  35.523  52.394  0.00  0.00     0.001 A 
ATOM     21  C   UNL d   1      49.094  35.417  53.443  0.00  0.00     0.002 C 
ATOM     22  C   UNL d   1      47.882  35.341  51.634  0.00  0.00     0.000 A 
ATOM     23  C   UNL d   1      48.354  34.864  51.142  0.00  0.00     0.001 A 
ATOM     24  C   UNL d   1      49.073  34.574  51.424  0.00  0.00     0.016 A 
ATOM     25  C   UNL d   1      49.544  34.103  50.945  0.00  0.00     0.002 C 
ENDBRANCH   2  18
TORSDOF 3
ENDMDL
