MODEL 1
REMARK VINA RESULT:      -6.2      0.000      0.000
REMARK  3 active torsions:
REMARK  status: ('A' for Active; 'I' for Inactive)
REMARK       I    between atoms: C_6  and  N_1 
REMARK    1  A    between atoms: C_11  and  C_5 
REMARK    2  A    between atoms: C_12  and  C_6 
REMARK    3  A    between atoms: C_14  and  C_15 
ROOT
ATOM      1  N   UNL d   1     -38.847  14.533  17.446  0.00  0.00    -0.264 N 
ATOM      2  C   UNL d   1     -38.475  14.408  16.716  0.00  0.00     0.198 A 
ATOM      3  C   UNL d   1     -38.826  13.835  17.865  0.00  0.00     0.138 A 
ATOM      4  N   UNL d   1     -38.224  13.633  16.686  0.00  0.00    -0.243 NA
ATOM      5  C   UNL d   1     -38.441  13.274  17.399  0.00  0.00     0.105 A 
ATOM      6  C   UNL d   1     -39.191  15.241  17.725  0.00  0.00     0.263 C 
ATOM      7  C   UNL d   1     -38.083  14.124  16.051  0.00  0.00     0.041 A 
ATOM      8  C   UNL d   1     -38.725  15.191  16.742  0.00  0.00     0.041 A 
ATOM      9  S   UNL d   1     -39.136  13.712  18.624  0.00  0.00    -0.058 SA
ATOM     10  N   UNL d   1     -38.192  15.413  15.430  0.00  0.00    -0.302 N 
ATOM     11  O   UNL d   1     -39.182  15.916  17.256  0.00  0.00    -0.267 OA
ATOM     12  C   UNL d   1     -38.583  15.696  16.095  0.00  0.00     0.080 A 
ATOM     13  C   UNL d   1     -37.941  14.630  15.404  0.00  0.00     0.080 A 
ATOM     14  C   UNL d   1     -38.051  15.913  14.789  0.00  0.00     0.100 C 
ENDROOT
BRANCH   6  15
ATOM     15  C   UNL d   1     -39.536  15.258  18.467  0.00  0.00     0.056 A 
ATOM     16  C   UNL d   1     -40.322  15.042  18.563  0.00  0.00     0.004 A 
ATOM     17  C   UNL d   1     -40.665  15.059  19.309  0.00  0.00    -0.004 A 
ATOM     18  C   UNL d   1     -40.219  15.294  19.963  0.00  0.00    -0.023 A 
ATOM     19  C   UNL d   1     -39.432  15.510  19.866  0.00  0.00    -0.004 A 
ATOM     20  C   UNL d   1     -39.090  15.492  19.116  0.00  0.00     0.004 A 
BRANCH  18  21
ATOM     21  C   UNL d   1     -40.564  15.312  20.715  0.00  0.00     0.019 C 
ATOM     22  C   UNL d   1     -41.115  14.741  20.472  0.00  0.00     0.004 C 
ATOM     23  C   UNL d   1     -40.020  15.876  20.954  0.00  0.00     0.004 C 
ATOM     24  C   UNL d   1     -40.912  15.328  21.468  0.00  0.00     0.004 C 
ENDBRANCH  18  21
ENDBRANCH   6  15
BRANCH   5  25
ATOM     25  C   UNL d   1     -38.317  12.500  17.642  0.00  0.00     0.020 A 
ATOM     26  C   UNL d   1     -38.108  12.338  18.427  0.00  0.00     0.004 A 
ATOM     27  C   UNL d   1     -37.984  11.558  18.667  0.00  0.00     0.030 A 
ATOM     28  C   UNL d   1     -38.068  10.938  18.125  0.00  0.00     0.140 A 
ATOM     29  C   UNL d   1     -38.275  11.104  17.344  0.00  0.00     0.030 A 
ATOM     30  F   UNL d   1     -37.941  10.154  18.372  0.00  0.00    -0.204 F 
ATOM     31  C   UNL d   1     -38.400  11.877  17.099  0.00  0.00     0.004 A 
ENDBRANCH   5  25
TORSDOF 3
ENDMDL
MODEL 2
REMARK VINA RESULT:      -4.7      2.535      4.803
REMARK  3 active torsions:
REMARK  status: ('A' for Active; 'I' for Inactive)
REMARK       I    between atoms: C_6  and  N_1 
REMARK    1  A    between atoms: C_11  and  C_5 
REMARK    2  A    between atoms: C_12  and  C_6 
REMARK    3  A    between atoms: C_14  and  C_15 
ROOT
ATOM      1  N   UNL d   1     -39.669  15.000  20.624  0.00  0.00    -0.264 N 
ATOM      2  C   UNL d   1     -39.633  15.011  21.452  0.00  0.00     0.198 A 
ATOM      3  C   UNL d   1     -40.360  14.630  20.405  0.00  0.00     0.138 A 
ATOM      4  N   UNL d   1     -40.302  14.647  21.742  0.00  0.00    -0.243 NA
ATOM      5  C   UNL d   1     -40.757  14.409  21.093  0.00  0.00     0.105 A 
ATOM      6  C   UNL d   1     -39.107  15.308  20.088  0.00  0.00     0.263 C 
ATOM      7  C   UNL d   1     -39.748  14.941  22.263  0.00  0.00     0.041 A 
ATOM      8  C   UNL d   1     -38.956  15.379  21.164  0.00  0.00     0.041 A 
ATOM      9  S   UNL d   1     -40.617  14.499  19.627  0.00  0.00    -0.058 SA
ATOM     10  N   UNL d   1     -38.503  15.610  22.504  0.00  0.00    -0.302 N 
ATOM     11  O   UNL d   1     -38.426  15.673  20.369  0.00  0.00    -0.267 OA
ATOM     12  C   UNL d   1     -38.388  15.680  21.693  0.00  0.00     0.080 A 
ATOM     13  C   UNL d   1     -39.179  15.242  22.793  0.00  0.00     0.080 A 
ATOM     14  C   UNL d   1     -37.940  15.908  23.029  0.00  0.00     0.100 C 
ENDROOT
BRANCH   6  15
ATOM     15  C   UNL d   1     -39.240  15.245  19.283  0.00  0.00     0.056 A 
ATOM     16  C   UNL d   1     -39.636  15.841  18.880  0.00  0.00     0.004 A 
ATOM     17  C   UNL d   1     -39.767  15.774  18.072  0.00  0.00    -0.004 A 
ATOM     18  C   UNL d   1     -39.502  15.106  17.665  0.00  0.00    -0.023 A 
ATOM     19  C   UNL d   1     -39.106  14.510  18.069  0.00  0.00    -0.004 A 
ATOM     20  C   UNL d   1     -38.975  14.580  18.879  0.00  0.00     0.004 A 
BRANCH  18  21
ATOM     21  C   UNL d   1     -39.634  15.038  16.851  0.00  0.00     0.019 C 
ATOM     22  C   UNL d   1     -40.291  15.541  16.919  0.00  0.00     0.004 C 
ATOM     23  C   UNL d   1     -38.986  14.542  16.784  0.00  0.00     0.004 C 
ATOM     24  C   UNL d   1     -39.769  14.971  16.035  0.00  0.00     0.004 C 
ENDBRANCH  18  21
ENDBRANCH   6  15
BRANCH   5  25
ATOM     25  C   UNL d   1     -41.479  14.019  21.088  0.00  0.00     0.020 A 
ATOM     26  C   UNL d   1     -41.507  13.192  21.078  0.00  0.00     0.004 A 
ATOM     27  C   UNL d   1     -42.236  12.805  21.072  0.00  0.00     0.030 A 
ATOM     28  C   UNL d   1     -42.938  13.243  21.077  0.00  0.00     0.140 A 
ATOM     29  C   UNL d   1     -42.906  14.067  21.087  0.00  0.00     0.030 A 
ATOM     30  F   UNL d   1     -43.671  12.848  21.071  0.00  0.00    -0.204 F 
ATOM     31  C   UNL d   1     -42.185  14.457  21.093  0.00  0.00     0.004 A 
ENDBRANCH   5  25
TORSDOF 3
ENDMDL
