MODEL 1
REMARK VINA RESULT:      18.3      0.000      0.000
REMARK  4 active torsions:
REMARK  status: ('A' for Active; 'I' for Inactive)
REMARK    1  A    between atoms: N_2  and  C_1 
REMARK    2  A    between atoms: C_4  and  C_8 
REMARK       I    between atoms: N_5  and  C_4 
REMARK    3  A    between atoms: C_9  and  C_7 
REMARK    4  A    between atoms: C_8  and  C_9 
ROOT
ATOM      1  C   UNL d   1      13.719  12.036  -2.716  0.00  0.00     0.062 C 
ENDROOT
BRANCH   1   2
ATOM      2  C   UNL d   1      13.550  11.916  -1.937  0.00  0.00     0.265 C 
ATOM      3  N   UNL d   1      14.149  11.926  -1.378  0.00  0.00    -0.272 N 
ATOM      4  C   UNL d   1      14.926  12.058  -1.609  0.00  0.00     0.083 A 
ATOM      5  C   UNL d   1      13.975  11.803  -0.572  0.00  0.00     0.083 A 
ATOM      6  C   UNL d   1      15.534  12.069  -1.055  0.00  0.00     0.019 A 
ATOM      7  C   UNL d   1      15.365  11.948  -0.259  0.00  0.00     0.003 A 
ATOM      8  C   UNL d   1      14.585  11.814  -0.017  0.00  0.00     0.019 A 
ATOM      9  O   UNL d   1      12.773  11.785  -1.709  0.00  0.00    -0.267 OA
ENDBRANCH   1   2
BRANCH   1  10
ATOM     10  C   UNL d   1      13.135  11.787  -3.310  0.00  0.00     0.011 C 
BRANCH  10  11
ATOM     11  C   UNL d   1      13.077  12.183  -4.054  0.00  0.00     0.031 A 
ATOM     12  S   UNL d   1      13.185  12.967  -4.162  0.00  0.00    -0.064 SA
ATOM     13  C   UNL d   1      13.078  13.118  -4.970  0.00  0.00     0.156 A 
ATOM     14  C   UNL d   1      12.905  12.395  -5.329  0.00  0.00     0.031 A 
ATOM     15  C   UNL d   1      12.907  11.842  -4.772  0.00  0.00     0.009 A 
BRANCH  13  16
ATOM     16  N   UNL d   1      13.133  13.863  -5.366  0.00  0.00    -0.107 N 
ATOM     17  O   UNL d   1      13.553  13.921  -6.094  0.00  0.00    -0.531 OA
ATOM     18  O   UNL d   1      12.771  14.550  -5.038  0.00  0.00    -0.531 OA
ENDBRANCH  13  16
ENDBRANCH  10  11
ENDBRANCH   1  10
TORSDOF 4
ENDMDL
