MODEL 1
REMARK VINA RESULT:      31.6      0.000      0.000
REMARK  3 active torsions:
REMARK  status: ('A' for Active; 'I' for Inactive)
REMARK    1  A    between atoms: C_6  and  N_3 
REMARK    2  A    between atoms: C_5  and  C_4 
REMARK    3  A    between atoms: O_18  and  C_14 
ROOT
ATOM      1  C   UNL d   1      14.661  14.477  -1.557  0.00  0.00     0.366 A 
ATOM      2  C   UNL d   1      14.384  14.570  -2.329  0.00  0.00     0.308 A 
ATOM      3  N   UNL d   1      14.169  13.791  -2.363  0.00  0.00    -0.272 N 
ATOM      4  C   UNL d   1      14.447  13.680  -1.574  0.00  0.00     0.115 A 
ATOM      5  O   UNL d   1      14.337  15.193  -2.865  0.00  0.00    -0.265 OA
ATOM      6  F   UNL d   1      14.822  15.277  -1.676  0.00  0.00    -0.188 F 
ATOM      7  F   UNL d   1      15.004  14.768  -0.869  0.00  0.00    -0.188 F 
ENDROOT
BRANCH   3   8
ATOM      8  C   UNL d   1      13.815  13.283  -2.934  0.00  0.00     0.067 A 
ATOM      9  C   UNL d   1      13.850  12.475  -2.830  0.00  0.00     0.020 A 
ATOM     10  C   UNL d   1      13.507  11.965  -3.382  0.00  0.00     0.026 A 
ATOM     11  C   UNL d   1      13.131  12.293  -4.038  0.00  0.00     0.094 A 
ATOM     12  C   UNL d   1      13.088  13.103  -4.155  0.00  0.00     0.026 A 
ATOM     13  C   UNL d   1      13.430  13.614  -3.603  0.00  0.00     0.020 A 
BRANCH  11  14
ATOM     14  O   UNL d   1      12.779  11.784  -4.606  0.00  0.00    -0.328 OA
ATOM     15  C   UNL d   1      13.045  11.793  -5.396  0.00  0.00     0.181 C 
ENDBRANCH  11  14
ENDBRANCH   3   8
BRANCH   4  16
ATOM     16  C   UNL d   1      14.485  13.036  -1.048  0.00  0.00     0.045 A 
ATOM     17  C   UNL d   1      15.195  12.645  -0.945  0.00  0.00     0.141 A 
ATOM     18  F   UNL d   1      15.884  12.883  -1.361  0.00  0.00    -0.204 F 
ATOM     19  C   UNL d   1      15.220  11.992  -0.409  0.00  0.00     0.030 A 
ATOM     20  C   UNL d   1      14.534  11.779  -0.015  0.00  0.00     0.002 A 
ATOM     21  C   UNL d   1      13.825  12.166  -0.115  0.00  0.00     0.000 A 
ATOM     22  C   UNL d   1      13.787  12.813  -0.643  0.00  0.00     0.004 A 
ENDBRANCH   4  16
TORSDOF 3
ENDMDL
