MODEL 1
REMARK VINA RESULT:      29.2      0.000      0.000
REMARK  4 active torsions:
REMARK  status: ('A' for Active; 'I' for Inactive)
REMARK    1  A    between atoms: N_2  and  C_1 
REMARK    2  A    between atoms: N_11  and  C_6 
REMARK    3  A    between atoms: C_13  and  N_11 
REMARK    4  A    between atoms: O_20  and  C_14 
ROOT
ATOM      1  C   UNL d   1      13.395  13.381  -4.004  0.00  0.00     0.752 A 
ATOM      2  N   UNL d   1      13.221  12.973  -3.307  0.00  0.00    -0.040 NA
ATOM      3  C   UNL d   1      12.975  12.190  -3.337  0.00  0.00     0.182 A 
ATOM      4  N   UNL d   1      13.321  12.997  -4.732  0.00  0.00    -0.059 NA
ATOM      5  C   UNL d   1      12.901  11.806  -4.065  0.00  0.00     0.059 A 
ATOM      6  C   UNL d   1      13.074  12.210  -4.765  0.00  0.00     0.103 A 
ATOM      7  C   UNL d   1      13.000  11.826  -5.493  0.00  0.00     0.021 C 
ENDROOT
BRANCH   3   8
ATOM      8  N   UNL d   1      12.801  11.784  -2.644  0.00  0.00    -0.226 NA
BRANCH   8   9
ATOM      9  C   UNL d   1      13.321  11.809  -1.998  0.00  0.00     0.083 A 
ATOM     10  C   UNL d   1      14.138  11.788  -2.140  0.00  0.00     0.021 A 
ATOM     11  C   UNL d   1      14.656  11.814  -1.491  0.00  0.00     0.026 A 
ATOM     12  C   UNL d   1      14.363  11.860  -0.724  0.00  0.00     0.094 A 
ATOM     13  C   UNL d   1      13.547  11.880  -0.596  0.00  0.00     0.026 A 
ATOM     14  C   UNL d   1      13.023  11.855  -1.233  0.00  0.00     0.021 A 
BRANCH  12  15
ATOM     15  O   UNL d   1      14.878  11.885  -0.090  0.00  0.00    -0.328 OA
ATOM     16  C   UNL d   1      15.625  12.212  -0.180  0.00  0.00     0.181 C 
ENDBRANCH  12  15
ENDBRANCH   8   9
ENDBRANCH   3   8
BRANCH   1  17
ATOM     17  N   UNL d   1      13.618  14.088  -3.987  0.00  0.00    -0.058 N 
ATOM     18  N   UNL d   1      14.359  15.021  -3.467  0.00  0.00    -0.151 NA
ATOM     19  C   UNL d   1      14.066  15.522  -3.957  0.00  0.00     0.103 A 
ATOM     20  C   UNL d   1      14.289  16.234  -3.941  0.00  0.00     0.022 C 
ATOM     21  C   UNL d   1      13.552  15.295  -4.453  0.00  0.00     0.041 A 
ATOM     22  C   UNL d   1      13.327  14.584  -4.472  0.00  0.00     0.102 A 
ATOM     23  C   UNL d   1      12.810  14.357  -4.973  0.00  0.00     0.021 C 
ENDBRANCH   1  17
TORSDOF 4
ENDMDL
