MODEL 1
REMARK VINA RESULT:      30.4      0.000      0.000
REMARK  6 active torsions:
REMARK  status: ('A' for Active; 'I' for Inactive)
REMARK    1  A    between atoms: C_3  and  C_4 
REMARK    2  A    between atoms: C_9  and  O_18 
REMARK    3  A    between atoms: O_17  and  C_10 
REMARK    4  A    between atoms: C_21  and  O_17 
REMARK    5  A    between atoms: O_18  and  C_20 
REMARK    6  A    between atoms: C_20  and  C_21 
ROOT
ATOM      1  N   UNL d   1      16.153  14.361  -0.015  0.00  0.00    -0.191 NA
ATOM      2  C   UNL d   1      15.688  13.854  -0.433  0.00  0.00     0.101 C 
ATOM      3  C   UNL d   1      15.213  13.337  -0.860  0.00  0.00     0.068 A 
ATOM      4  C   UNL d   1      14.262  12.301  -1.716  0.00  0.00     0.100 A 
ATOM      5  C   UNL d   1      15.505  12.604  -1.087  0.00  0.00     0.012 A 
ATOM      6  C   UNL d   1      14.443  13.556  -1.059  0.00  0.00     0.012 A 
ATOM      7  C   UNL d   1      13.966  13.037  -1.488  0.00  0.00     0.025 A 
ATOM      8  C   UNL d   1      15.029  12.085  -1.516  0.00  0.00     0.025 A 
ENDROOT
BRANCH   4   9
ATOM      9  O   UNL d   1      13.783  11.779  -2.147  0.00  0.00    -0.303 OA
BRANCH   9  10
ATOM     10  C   UNL d   1      13.691  11.883  -2.960  0.00  0.00     0.149 C 
BRANCH  10  11
ATOM     11  C   UNL d   1      12.945  11.796  -3.303  0.00  0.00     0.149 C 
BRANCH  11  12
ATOM     12  O   UNL d   1      12.820  12.015  -4.093  0.00  0.00    -0.303 OA
BRANCH  12  13
ATOM     13  C   UNL d   1      13.090  12.762  -4.377  0.00  0.00     0.100 A 
ATOM     14  C   UNL d   1      13.677  12.793  -4.957  0.00  0.00     0.025 A 
ATOM     15  C   UNL d   1      13.942  13.524  -5.235  0.00  0.00     0.005 A 
ATOM     16  C   UNL d   1      13.618  14.220  -4.931  0.00  0.00     0.039 A 
ATOM     17  C   UNL d   1      13.037  14.185  -4.357  0.00  0.00     0.005 A 
ATOM     18  C   UNL d   1      12.773  13.454  -4.079  0.00  0.00     0.025 A 
BRANCH  16  19
ATOM     19  C   UNL d   1      13.884  14.954  -5.210  0.00  0.00     0.196 C 
ATOM     20  O   UNL d   1      14.238  15.484  -4.698  0.00  0.00    -0.287 OA
ATOM     21  C   UNL d   1      13.791  15.148  -6.006  0.00  0.00     0.045 C 
ENDBRANCH  16  19
ENDBRANCH  12  13
ENDBRANCH  11  12
ENDBRANCH  10  11
ENDBRANCH   9  10
ENDBRANCH   4   9
TORSDOF 6
ENDMDL
