MODEL 1
REMARK VINA RESULT:      -2.2      0.000      0.000
REMARK  4 active torsions:
REMARK  status: ('A' for Active; 'I' for Inactive)
REMARK    1  A    between atoms: C_7  and  N_1 
REMARK    2  A    between atoms: C_12  and  N_4 
REMARK    3  A    between atoms: C_8  and  C_7 
REMARK    4  A    between atoms: C_16  and  C_12 
ROOT
ATOM      1  N   UNL d   1      29.875  16.233 -23.801  0.00  0.00    -0.273 N 
ATOM      2  C   UNL d   1      29.954  15.749 -23.121  0.00  0.00     0.153 A 
ATOM      3  S   UNL d   1      30.697  15.570 -22.834  0.00  0.00    -0.039 SA
ATOM      4  N   UNL d   1      31.292  16.344 -23.886  0.00  0.00    -0.281 N 
ATOM      5  C   UNL d   1      30.540  16.527 -24.179  0.00  0.00     0.168 A 
ATOM      6  C   UNL d   1      31.371  15.860 -23.206  0.00  0.00     0.120 A 
ATOM      7  S   UNL d   1      29.273  15.454 -22.741  0.00  0.00    -0.052 SA
ENDROOT
BRANCH   4   8
ATOM      8  C   UNL d   1      31.966  16.632 -24.256  0.00  0.00     0.101 C 
BRANCH   8   9
ATOM      9  C   UNL d   1      32.270  17.367 -24.041  0.00  0.00     0.099 A 
ATOM     10  N   UNL d   1      32.139  18.012 -24.545  0.00  0.00    -0.242 NA
ATOM     11  C   UNL d   1      32.441  18.755 -24.335  0.00  0.00     0.099 A 
ATOM     12  C   UNL d   1      32.866  18.846 -23.632  0.00  0.00     0.021 A 
ATOM     13  C   UNL d   1      32.989  18.195 -23.137  0.00  0.00     0.003 A 
ATOM     14  C   UNL d   1      32.692  17.462 -23.343  0.00  0.00     0.021 A 
ENDBRANCH   8   9
ENDBRANCH   4   8
BRANCH   1  15
ATOM     15  C   UNL d   1      29.116  16.408 -24.083  0.00  0.00     0.107 C 
BRANCH  15  16
ATOM     16  C   UNL d   1      28.921  17.174 -24.327  0.00  0.00     0.118 A 
ATOM     17  O   UNL d   1      28.691  17.796 -23.830  0.00  0.00    -0.304 OA
ATOM     18  C   UNL d   1      28.551  18.453 -24.308  0.00  0.00     0.123 A 
ATOM     19  C   UNL d   1      28.691  18.244 -25.082  0.00  0.00     0.029 A 
ATOM     20  C   UNL d   1      28.920  17.452 -25.097  0.00  0.00     0.028 A 
ENDBRANCH  15  16
ENDBRANCH   1  15
TORSDOF 4
ENDMDL
MODEL 2
REMARK VINA RESULT:      -1.2      1.521      2.185
REMARK  4 active torsions:
REMARK  status: ('A' for Active; 'I' for Inactive)
REMARK    1  A    between atoms: C_7  and  N_1 
REMARK    2  A    between atoms: C_12  and  N_4 
REMARK    3  A    between atoms: C_8  and  C_7 
REMARK    4  A    between atoms: C_16  and  C_12 
ROOT
ATOM      1  N   UNL d   1      30.068  16.961 -24.594  0.00  0.00    -0.273 N 
ATOM      2  C   UNL d   1      29.788  17.675 -24.931  0.00  0.00     0.153 A 
ATOM      3  S   UNL d   1      30.312  18.279 -25.097  0.00  0.00    -0.039 SA
ATOM      4  N   UNL d   1      31.395  17.479 -24.599  0.00  0.00    -0.281 N 
ATOM      5  C   UNL d   1      30.866  16.866 -24.430  0.00  0.00     0.168 A 
ATOM      6  C   UNL d   1      31.115  18.193 -24.936  0.00  0.00     0.120 A 
ATOM      7  S   UNL d   1      28.975  17.765 -25.095  0.00  0.00    -0.052 SA
ENDROOT
BRANCH   4   8
ATOM      8  C   UNL d   1      32.196  17.397 -24.439  0.00  0.00     0.101 C 
BRANCH   8   9
ATOM      9  C   UNL d   1      32.531  17.799 -23.803  0.00  0.00     0.099 A 
ATOM     10  N   UNL d   1      32.727  17.369 -23.122  0.00  0.00    -0.242 NA
ATOM     11  C   UNL d   1      33.065  17.767 -22.478  0.00  0.00     0.099 A 
ATOM     12  C   UNL d   1      33.202  18.581 -22.520  0.00  0.00     0.021 A 
ATOM     13  C   UNL d   1      33.002  18.999 -23.205  0.00  0.00     0.003 A 
ATOM     14  C   UNL d   1      32.669  18.607 -23.840  0.00  0.00     0.021 A 
ENDBRANCH   8   9
ENDBRANCH   4   8
BRANCH   1  15
ATOM     15  C   UNL d   1      29.528  16.355 -24.430  0.00  0.00     0.107 C 
BRANCH  15  16
ATOM     16  C   UNL d   1      29.436  16.065 -23.660  0.00  0.00     0.118 A 
ATOM     17  O   UNL d   1      30.002  15.631 -23.238  0.00  0.00    -0.304 OA
ATOM     18  C   UNL d   1      29.676  15.459 -22.499  0.00  0.00     0.123 A 
ATOM     19  C   UNL d   1      28.928  15.777 -22.466  0.00  0.00     0.029 A 
ATOM     20  C   UNL d   1      28.777  16.153 -23.184  0.00  0.00     0.028 A 
ENDBRANCH  15  16
ENDBRANCH   1  15
TORSDOF 4
ENDMDL
MODEL 3
REMARK VINA RESULT:      -0.6      1.627      2.243
REMARK  4 active torsions:
REMARK  status: ('A' for Active; 'I' for Inactive)
REMARK    1  A    between atoms: C_7  and  N_1 
REMARK    2  A    between atoms: C_12  and  N_4 
REMARK    3  A    between atoms: C_8  and  C_7 
REMARK    4  A    between atoms: C_16  and  C_12 
ROOT
ATOM      1  N   UNL d   1      29.778  17.011 -24.923  0.00  0.00    -0.273 N 
ATOM      2  C   UNL d   1      29.808  17.844 -25.012  0.00  0.00     0.153 A 
ATOM      3  S   UNL d   1      30.529  18.218 -25.094  0.00  0.00    -0.039 SA
ATOM      4  N   UNL d   1      31.199  16.952 -25.002  0.00  0.00    -0.281 N 
ATOM      5  C   UNL d   1      30.470  16.570 -24.918  0.00  0.00     0.168 A 
ATOM      6  C   UNL d   1      31.229  17.784 -25.091  0.00  0.00     0.120 A 
ATOM      7  S   UNL d   1      29.100  18.285 -25.015  0.00  0.00    -0.052 SA
ENDROOT
BRANCH   4   8
ATOM      8  C   UNL d   1      31.899  16.523 -25.000  0.00  0.00     0.101 C 
BRANCH   8   9
ATOM      9  C   UNL d   1      32.274  16.353 -24.285  0.00  0.00     0.099 A 
ATOM     10  N   UNL d   1      32.727  16.947 -23.926  0.00  0.00    -0.242 NA
ATOM     11  C   UNL d   1      33.107  16.784 -23.208  0.00  0.00     0.099 A 
ATOM     12  C   UNL d   1      33.032  16.038 -22.859  0.00  0.00     0.021 A 
ATOM     13  C   UNL d   1      32.576  15.454 -23.228  0.00  0.00     0.003 A 
ATOM     14  C   UNL d   1      32.202  15.615 -23.936  0.00  0.00     0.021 A 
ENDBRANCH   8   9
ENDBRANCH   4   8
BRANCH   1  15
ATOM     15  C   UNL d   1      29.042  16.642 -24.839  0.00  0.00     0.107 C 
BRANCH  15  16
ATOM     16  C   UNL d   1      28.811  16.313 -24.116  0.00  0.00     0.118 A 
ATOM     17  O   UNL d   1      28.747  16.723 -23.398  0.00  0.00    -0.304 OA
ATOM     18  C   UNL d   1      28.501  16.180 -22.828  0.00  0.00     0.123 A 
ATOM     19  C   UNL d   1      28.415  15.453 -23.183  0.00  0.00     0.029 A 
ATOM     20  C   UNL d   1      28.606  15.533 -23.980  0.00  0.00     0.028 A 
ENDBRANCH  15  16
ENDBRANCH   1  15
TORSDOF 4
ENDMDL
MODEL 4
REMARK VINA RESULT:      -0.0      3.043      4.401
REMARK  4 active torsions:
REMARK  status: ('A' for Active; 'I' for Inactive)
REMARK    1  A    between atoms: C_7  and  N_1 
REMARK    2  A    between atoms: C_12  and  N_4 
REMARK    3  A    between atoms: C_8  and  C_7 
REMARK    4  A    between atoms: C_16  and  C_12 
ROOT
ATOM      1  N   UNL d   1      33.081  19.082 -23.739  0.00  0.00    -0.273 N 
ATOM      2  C   UNL d   1      33.154  19.732 -24.263  0.00  0.00     0.153 A 
ATOM      3  S   UNL d   1      33.226  20.488 -23.965  0.00  0.00    -0.039 SA
ATOM      4  N   UNL d   1      33.153  19.971 -22.628  0.00  0.00    -0.281 N 
ATOM      5  C   UNL d   1      33.080  19.203 -22.927  0.00  0.00     0.168 A 
ATOM      6  C   UNL d   1      33.227  20.620 -23.153  0.00  0.00     0.120 A 
ATOM      7  S   UNL d   1      33.154  19.601 -25.087  0.00  0.00    -0.052 SA
ENDROOT
BRANCH   4   8
ATOM      8  C   UNL d   1      33.155  20.106 -21.818  0.00  0.00     0.101 C 
BRANCH   8   9
ATOM      9  C   UNL d   1      32.836  20.805 -21.518  0.00  0.00     0.099 A 
ATOM     10  N   UNL d   1      33.214  21.521 -21.696  0.00  0.00    -0.242 NA
ATOM     11  C   UNL d   1      32.899  22.227 -21.398  0.00  0.00     0.099 A 
ATOM     12  C   UNL d   1      32.217  22.212 -20.930  0.00  0.00     0.021 A 
ATOM     13  C   UNL d   1      31.850  21.491 -20.760  0.00  0.00     0.003 A 
ATOM     14  C   UNL d   1      32.160  20.794 -21.053  0.00  0.00     0.021 A 
ENDBRANCH   8   9
ENDBRANCH   4   8
BRANCH   1  15
ATOM     15  C   UNL d   1      33.008  18.319 -24.051  0.00  0.00     0.107 C 
BRANCH  15  16
ATOM     16  C   UNL d   1      32.399  17.816 -23.807  0.00  0.00     0.118 A 
ATOM     17  O   UNL d   1      31.594  18.014 -23.770  0.00  0.00    -0.304 OA
ATOM     18  C   UNL d   1      31.191  17.348 -23.497  0.00  0.00     0.123 A 
ATOM     19  C   UNL d   1      31.731  16.753 -23.368  0.00  0.00     0.029 A 
ATOM     20  C   UNL d   1      32.480  17.040 -23.559  0.00  0.00     0.028 A 
ENDBRANCH  15  16
ENDBRANCH   1  15
TORSDOF 4
ENDMDL
MODEL 5
REMARK VINA RESULT:       0.4      2.026      3.214
REMARK  4 active torsions:
REMARK  status: ('A' for Active; 'I' for Inactive)
REMARK    1  A    between atoms: C_7  and  N_1 
REMARK    2  A    between atoms: C_12  and  N_4 
REMARK    3  A    between atoms: C_8  and  C_7 
REMARK    4  A    between atoms: C_16  and  C_12 
ROOT
ATOM      1  N   UNL d   1      31.536  17.516 -24.514  0.00  0.00    -0.273 N 
ATOM      2  C   UNL d   1      30.952  18.022 -24.839  0.00  0.00     0.153 A 
ATOM      3  S   UNL d   1      31.107  18.819 -24.923  0.00  0.00    -0.039 SA
ATOM      4  N   UNL d   1      32.416  18.626 -24.367  0.00  0.00    -0.281 N 
ATOM      5  C   UNL d   1      32.262  17.818 -24.281  0.00  0.00     0.168 A 
ATOM      6  C   UNL d   1      31.833  19.132 -24.692  0.00  0.00     0.120 A 
ATOM      7  S   UNL d   1      30.216  17.708 -25.074  0.00  0.00    -0.052 SA
ENDROOT
BRANCH   4   8
ATOM      8  C   UNL d   1      33.139  18.941 -24.138  0.00  0.00     0.101 C 
BRANCH   8   9
ATOM      9  C   UNL d   1      33.162  19.582 -23.621  0.00  0.00     0.099 A 
ATOM     10  N   UNL d   1      33.125  20.347 -23.937  0.00  0.00    -0.242 NA
ATOM     11  C   UNL d   1      33.147  20.997 -23.423  0.00  0.00     0.099 A 
ATOM     12  C   UNL d   1      33.205  20.878 -22.606  0.00  0.00     0.021 A 
ATOM     13  C   UNL d   1      33.241  20.109 -22.303  0.00  0.00     0.003 A 
ATOM     14  C   UNL d   1      33.219  19.468 -22.810  0.00  0.00     0.021 A 
ENDBRANCH   8   9
ENDBRANCH   4   8
BRANCH   1  15
ATOM     15  C   UNL d   1      31.369  16.709 -24.434  0.00  0.00     0.107 C 
BRANCH  15  16
ATOM     16  C   UNL d   1      31.868  16.213 -23.998  0.00  0.00     0.118 A 
ATOM     17  O   UNL d   1      32.600  15.920 -24.254  0.00  0.00    -0.304 OA
ATOM     18  C   UNL d   1      32.902  15.453 -23.645  0.00  0.00     0.123 A 
ATOM     19  C   UNL d   1      32.372  15.457 -23.028  0.00  0.00     0.029 A 
ATOM     20  C   UNL d   1      31.731  15.927 -23.244  0.00  0.00     0.028 A 
ENDBRANCH  15  16
ENDBRANCH   1  15
TORSDOF 4
ENDMDL
MODEL 6
REMARK VINA RESULT:       0.7      3.757      5.421
REMARK  4 active torsions:
REMARK  status: ('A' for Active; 'I' for Inactive)
REMARK    1  A    between atoms: C_7  and  N_1 
REMARK    2  A    between atoms: C_12  and  N_4 
REMARK    3  A    between atoms: C_8  and  C_7 
REMARK    4  A    between atoms: C_16  and  C_12 
ROOT
ATOM      1  N   UNL d   1      32.741  21.805 -22.648  0.00  0.00    -0.273 N 
ATOM      2  C   UNL d   1      32.877  22.140 -23.404  0.00  0.00     0.153 A 
ATOM      3  S   UNL d   1      33.124  21.665 -24.020  0.00  0.00    -0.039 SA
ATOM      4  N   UNL d   1      33.105  20.523 -23.151  0.00  0.00    -0.281 N 
ATOM      5  C   UNL d   1      32.855  21.002 -22.525  0.00  0.00     0.168 A 
ATOM      6  C   UNL d   1      33.241  20.858 -23.907  0.00  0.00     0.120 A 
ATOM      7  S   UNL d   1      32.760  22.957 -23.522  0.00  0.00    -0.052 SA
ENDROOT
BRANCH   4   8
ATOM      8  C   UNL d   1      33.222  19.718 -23.041  0.00  0.00     0.101 C 
BRANCH   8   9
ATOM      9  C   UNL d   1      32.792  19.176 -23.488  0.00  0.00     0.099 A 
ATOM     10  N   UNL d   1      32.075  18.893 -23.184  0.00  0.00    -0.242 NA
ATOM     11  C   UNL d   1      31.636  18.347 -23.628  0.00  0.00     0.099 A 
ATOM     12  C   UNL d   1      31.915  18.092 -24.363  0.00  0.00     0.021 A 
ATOM     13  C   UNL d   1      32.632  18.382 -24.656  0.00  0.00     0.003 A 
ATOM     14  C   UNL d   1      33.065  18.920 -24.218  0.00  0.00     0.021 A 
ENDBRANCH   8   9
ENDBRANCH   4   8
BRANCH   1  15
ATOM     15  C   UNL d   1      32.491  22.296 -22.030  0.00  0.00     0.107 C 
BRANCH  15  16
ATOM     16  C   UNL d   1      32.439  22.010 -21.255  0.00  0.00     0.118 A 
ATOM     17  O   UNL d   1      31.820  21.550 -20.951  0.00  0.00    -0.304 OA
ATOM     18  C   UNL d   1      31.998  21.393 -20.161  0.00  0.00     0.123 A 
ATOM     19  C   UNL d   1      32.709  21.745 -19.980  0.00  0.00     0.029 A 
ATOM     20  C   UNL d   1      32.984  22.128 -20.656  0.00  0.00     0.028 A 
ENDBRANCH  15  16
ENDBRANCH   1  15
TORSDOF 4
ENDMDL
