MODEL 1
REMARK VINA RESULT:      -8.8      0.000      0.000
REMARK  7 active torsions:
REMARK  status: ('A' for Active; 'I' for Inactive)
REMARK    1  A    between atoms: N_2  and  S_1 
REMARK    2  A    between atoms: C_5  and  S_1 
REMARK    3  A    between atoms: C_3  and  N_2 
REMARK    4  A    between atoms: C_4  and  C_3 
REMARK    5  A    between atoms: C_13  and  C_3 
REMARK    6  A    between atoms: C_9  and  C_8 
REMARK    7  A    between atoms: O_22  and  C_19 
ROOT
ATOM      1  C   UNL d   1      52.239  33.431  52.898  0.00  0.00     0.105 A 
ATOM      2  C   UNL d   1      50.772  34.146  52.679  0.00  0.00     0.000 A 
ATOM      3  C   UNL d   1      51.572  33.116  53.263  0.00  0.00     0.013 A 
ATOM      4  C   UNL d   1      52.174  34.103  52.425  0.00  0.00     0.013 A 
ATOM      5  C   UNL d   1      51.441  34.460  52.315  0.00  0.00     0.001 A 
ATOM      6  C   UNL d   1      50.838  33.474  53.153  0.00  0.00     0.001 A 
ENDROOT
BRANCH   1   7
ATOM      7  S   UNL d   1      52.986  33.070  53.009  0.00  0.00     0.285 S 
ATOM      8  O   UNL d   1      53.263  33.764  53.379  0.00  0.00    -0.198 OA
ATOM      9  O   UNL d   1      52.701  32.379  52.637  0.00  0.00    -0.198 OA
BRANCH   7  10
ATOM     10  N   UNL d   1      53.724  32.712  53.117  0.00  0.00    -0.152 NA
BRANCH  10  11
ATOM     11  C   UNL d   1      53.945  32.429  53.866  0.00  0.00     0.158 C 
BRANCH  11  12
ATOM     12  C   UNL d   1      53.729  31.666  54.097  0.00  0.00     0.230 C 
ATOM     13  O   UNL d   1      53.867  31.030  53.594  0.00  0.00    -0.643 OA
ATOM     14  O   UNL d   1      53.376  31.542  54.830  0.00  0.00    -0.643 OA
ENDBRANCH  11  12
BRANCH  11  15
ATOM     15  C   UNL d   1      54.379  32.907  54.377  0.00  0.00     0.025 C 
ATOM     16  C   UNL d   1      54.117  33.030  55.158  0.00  0.00     0.002 C 
ATOM     17  C   UNL d   1      55.073  33.264  54.113  0.00  0.00     0.002 C 
ENDBRANCH  11  15
ENDBRANCH  10  11
ENDBRANCH   7  10
ENDBRANCH   1   7
BRANCH   2  18
ATOM     18  C   UNL d   1      50.039  34.503  52.569  0.00  0.00     0.000 A 
ATOM     19  C   UNL d   1      49.709  34.957  53.172  0.00  0.00     0.002 A 
ATOM     20  C   UNL d   1      48.969  35.319  53.065  0.00  0.00     0.024 A 
ATOM     21  C   UNL d   1      48.561  35.221  52.346  0.00  0.00     0.094 A 
ATOM     22  C   UNL d   1      48.897  34.762  51.740  0.00  0.00     0.024 A 
ATOM     23  C   UNL d   1      49.631  34.405  51.850  0.00  0.00     0.002 A 
BRANCH  21  24
ATOM     24  O   UNL d   1      47.823  35.580  52.233  0.00  0.00    -0.328 OA
ATOM     25  C   UNL d   1      47.662  36.323  52.576  0.00  0.00     0.181 C 
ENDBRANCH  21  24
ENDBRANCH   2  18
TORSDOF 7
ENDMDL
