MODEL 1
REMARK VINA RESULT:      -8.5      0.000      0.000
REMARK  3 active torsions:
REMARK  status: ('A' for Active; 'I' for Inactive)
REMARK    1  A    between atoms: S_9  and  C_3 
REMARK    2  A    between atoms: C_12  and  S_9 
REMARK    3  A    between atoms: C_14  and  C_12 
ROOT
ATOM      1  C   UNL d   1     -47.349  11.842  23.196  0.00  0.00     0.155 A 
ATOM      2  C   UNL d   1     -47.373  12.649  23.008  0.00  0.00     0.107 A 
ATOM      3  C   UNL d   1     -48.775  12.665  23.281  0.00  0.00     0.182 A 
ATOM      4  N   UNL d   1     -48.754  11.867  23.467  0.00  0.00    -0.250 N 
ATOM      5  N   UNL d   1     -48.092  13.064  23.051  0.00  0.00    -0.220 NA
ATOM      6  C   UNL d   1     -48.036  11.452  23.424  0.00  0.00     0.285 A 
ATOM      7  N   UNL d   1     -46.571  11.580  23.105  0.00  0.00    -0.239 NA
ATOM      8  C   UNL d   1     -46.614  12.891  22.801  0.00  0.00     0.037 A 
ATOM      9  C   UNL d   1     -46.111  12.227  22.860  0.00  0.00     0.083 A 
ATOM     10  O   UNL d   1     -48.020  10.642  23.614  0.00  0.00    -0.265 OA
ATOM     11  C   UNL d   1     -49.449  11.474  23.698  0.00  0.00     0.104 C 
ATOM     12  C   UNL d   1     -46.305  13.618  22.567  0.00  0.00     0.003 A 
ATOM     13  C   UNL d   1     -45.304  12.298  22.684  0.00  0.00     0.019 A 
ATOM     14  C   UNL d   1     -45.498  13.690  22.391  0.00  0.00     0.000 A 
ATOM     15  C   UNL d   1     -45.003  13.032  22.449  0.00  0.00     0.002 A 
ENDROOT
BRANCH   3  16
ATOM     16  S   UNL d   1     -49.493  13.076  23.325  0.00  0.00    -0.050 SA
BRANCH  16  17
ATOM     17  C   UNL d   1     -49.665  13.676  22.783  0.00  0.00     0.032 C 
ATOM     18  C   UNL d   1     -49.585  13.538  21.974  0.00  0.00     0.007 C 
BRANCH  17  19
ATOM     19  C   UNL d   1     -49.915  14.408  23.068  0.00  0.00     0.006 A 
ATOM     20  C   UNL d   1     -50.662  14.478  23.401  0.00  0.00     0.001 A 
ATOM     21  C   UNL d   1     -50.929  15.210  23.694  0.00  0.00     0.000 A 
ATOM     22  C   UNL d   1     -50.438  15.866  23.646  0.00  0.00     0.000 A 
ATOM     23  C   UNL d   1     -49.688  15.806  23.314  0.00  0.00     0.000 A 
ATOM     24  C   UNL d   1     -49.428  15.072  23.024  0.00  0.00     0.001 A 
ENDBRANCH  17  19
ENDBRANCH  16  17
ENDBRANCH   3  16
TORSDOF 3
ENDMDL
MODEL 2
REMARK VINA RESULT:      -8.0      1.085      4.142
REMARK  3 active torsions:
REMARK  status: ('A' for Active; 'I' for Inactive)
REMARK    1  A    between atoms: S_9  and  C_3 
REMARK    2  A    between atoms: C_12  and  S_9 
REMARK    3  A    between atoms: C_14  and  C_12 
ROOT
ATOM      1  C   UNL d   1     -49.949  13.215  23.042  0.00  0.00     0.155 A 
ATOM      2  C   UNL d   1     -49.383  13.821  23.017  0.00  0.00     0.107 A 
ATOM      3  C   UNL d   1     -48.395  12.874  22.610  0.00  0.00     0.182 A 
ATOM      4  N   UNL d   1     -48.952  12.273  22.634  0.00  0.00    -0.250 N 
ATOM      5  N   UNL d   1     -48.600  13.649  22.800  0.00  0.00    -0.220 NA
ATOM      6  C   UNL d   1     -49.735  12.445  22.851  0.00  0.00     0.285 A 
ATOM      7  N   UNL d   1     -50.669  13.545  23.274  0.00  0.00    -0.239 NA
ATOM      8  C   UNL d   1     -49.748  14.528  23.233  0.00  0.00     0.037 A 
ATOM      9  C   UNL d   1     -50.550  14.359  23.393  0.00  0.00     0.083 A 
ATOM     10  O   UNL d   1     -50.297  11.832  22.874  0.00  0.00    -0.265 OA
ATOM     11  C   UNL d   1     -48.735  11.494  22.440  0.00  0.00     0.104 C 
ATOM     12  C   UNL d   1     -49.469  15.299  23.306  0.00  0.00     0.003 A 
ATOM     13  C   UNL d   1     -51.064  14.967  23.626  0.00  0.00     0.019 A 
ATOM     14  C   UNL d   1     -49.983  15.906  23.539  0.00  0.00     0.000 A 
ATOM     15  C   UNL d   1     -50.775  15.738  23.698  0.00  0.00     0.002 A 
ENDROOT
BRANCH   3  16
ATOM     16  S   UNL d   1     -47.615  12.699  22.392  0.00  0.00    -0.050 SA
BRANCH  16  17
ATOM     17  C   UNL d   1     -46.989  12.877  22.902  0.00  0.00     0.032 C 
ATOM     18  C   UNL d   1     -47.136  13.034  23.698  0.00  0.00     0.007 C 
BRANCH  17  19
ATOM     19  C   UNL d   1     -46.223  12.893  22.598  0.00  0.00     0.006 A 
ATOM     20  C   UNL d   1     -45.755  12.219  22.644  0.00  0.00     0.001 A 
ATOM     21  C   UNL d   1     -44.980  12.219  22.342  0.00  0.00     0.000 A 
ATOM     22  C   UNL d   1     -44.683  12.902  21.996  0.00  0.00     0.000 A 
ATOM     23  C   UNL d   1     -45.143  13.581  21.946  0.00  0.00     0.000 A 
ATOM     24  C   UNL d   1     -45.916  13.574  22.249  0.00  0.00     0.001 A 
ENDBRANCH  17  19
ENDBRANCH  16  17
ENDBRANCH   3  16
TORSDOF 3
ENDMDL
MODEL 3
REMARK VINA RESULT:      -6.9      8.783     10.145
REMARK  3 active torsions:
REMARK  status: ('A' for Active; 'I' for Inactive)
REMARK    1  A    between atoms: S_9  and  C_3 
REMARK    2  A    between atoms: C_12  and  S_9 
REMARK    3  A    between atoms: C_14  and  C_12 
ROOT
ATOM      1  C   UNL d   1     -39.948  14.855  20.988  0.00  0.00     0.155 A 
ATOM      2  C   UNL d   1     -39.372  14.421  20.578  0.00  0.00     0.107 A 
ATOM      3  C   UNL d   1     -39.828  14.989  19.349  0.00  0.00     0.182 A 
ATOM      4  N   UNL d   1     -40.398  15.419  19.751  0.00  0.00    -0.250 N 
ATOM      5  N   UNL d   1     -39.312  14.489  19.752  0.00  0.00    -0.220 NA
ATOM      6  C   UNL d   1     -40.458  15.352  20.577  0.00  0.00     0.285 A 
ATOM      7  N   UNL d   1     -39.879  14.680  21.792  0.00  0.00    -0.239 NA
ATOM      8  C   UNL d   1     -38.944  13.976  21.123  0.00  0.00     0.037 A 
ATOM      9  C   UNL d   1     -39.258  14.135  21.881  0.00  0.00     0.083 A 
ATOM     10  O   UNL d   1     -41.039  15.790  20.982  0.00  0.00    -0.265 OA
ATOM     11  C   UNL d   1     -40.913  15.921  19.336  0.00  0.00     0.104 C 
ATOM     12  C   UNL d   1     -38.316  13.449  21.042  0.00  0.00     0.003 A 
ATOM     13  C   UNL d   1     -38.937  13.763  22.550  0.00  0.00     0.019 A 
ATOM     14  C   UNL d   1     -37.996  13.079  21.710  0.00  0.00     0.000 A 
ATOM     15  C   UNL d   1     -38.306  13.236  22.458  0.00  0.00     0.002 A 
ENDROOT
BRANCH   3  16
ATOM     16  S   UNL d   1     -39.769  15.059  18.526  0.00  0.00    -0.050 SA
BRANCH  16  17
ATOM     17  C   UNL d   1     -39.874  14.396  18.042  0.00  0.00     0.032 C 
ATOM     18  C   UNL d   1     -40.476  13.857  18.204  0.00  0.00     0.007 C 
BRANCH  17  19
ATOM     19  C   UNL d   1     -39.367  14.290  17.400  0.00  0.00     0.006 A 
ATOM     20  C   UNL d   1     -39.281  14.892  16.849  0.00  0.00     0.001 A 
ATOM     21  C   UNL d   1     -38.773  14.800  16.196  0.00  0.00     0.000 A 
ATOM     22  C   UNL d   1     -38.356  14.098  16.106  0.00  0.00     0.000 A 
ATOM     23  C   UNL d   1     -38.436  13.490  16.653  0.00  0.00     0.000 A 
ATOM     24  C   UNL d   1     -38.944  13.589  17.303  0.00  0.00     0.001 A 
ENDBRANCH  17  19
ENDBRANCH  16  17
ENDBRANCH   3  16
TORSDOF 3
ENDMDL
MODEL 4
REMARK VINA RESULT:      -6.8      1.081      4.187
REMARK  3 active torsions:
REMARK  status: ('A' for Active; 'I' for Inactive)
REMARK    1  A    between atoms: S_9  and  C_3 
REMARK    2  A    between atoms: C_12  and  S_9 
REMARK    3  A    between atoms: C_14  and  C_12 
ROOT
ATOM      1  C   UNL d   1     -48.852  12.818  23.262  0.00  0.00     0.155 A 
ATOM      2  C   UNL d   1     -48.343  13.411  22.985  0.00  0.00     0.107 A 
ATOM      3  C   UNL d   1     -47.254  12.487  23.026  0.00  0.00     0.182 A 
ATOM      4  N   UNL d   1     -47.755  11.899  23.300  0.00  0.00    -0.250 N 
ATOM      5  N   UNL d   1     -47.538  13.244  22.865  0.00  0.00    -0.220 NA
ATOM      6  C   UNL d   1     -48.560  12.066  23.419  0.00  0.00     0.285 A 
ATOM      7  N   UNL d   1     -49.610  13.139  23.327  0.00  0.00    -0.239 NA
ATOM      8  C   UNL d   1     -48.781  14.101  22.876  0.00  0.00     0.037 A 
ATOM      9  C   UNL d   1     -49.571  13.934  23.089  0.00  0.00     0.083 A 
ATOM     10  O   UNL d   1     -49.065  11.466  23.698  0.00  0.00    -0.265 OA
ATOM     11  C   UNL d   1     -47.459  11.139  23.459  0.00  0.00     0.104 C 
ATOM     12  C   UNL d   1     -48.576  14.855  22.615  0.00  0.00     0.003 A 
ATOM     13  C   UNL d   1     -50.149  14.527  23.037  0.00  0.00     0.019 A 
ATOM     14  C   UNL d   1     -49.154  15.447  22.564  0.00  0.00     0.000 A 
ATOM     15  C   UNL d   1     -49.935  15.282  22.774  0.00  0.00     0.002 A 
ENDROOT
BRANCH   3  16
ATOM     16  S   UNL d   1     -46.452  12.318  22.908  0.00  0.00    -0.050 SA
BRANCH  16  17
ATOM     17  C   UNL d   1     -45.894  12.928  22.894  0.00  0.00     0.032 C 
ATOM     18  C   UNL d   1     -46.051  13.641  23.278  0.00  0.00     0.007 C 
BRANCH  17  19
ATOM     19  C   UNL d   1     -45.184  12.807  22.492  0.00  0.00     0.006 A 
ATOM     20  C   UNL d   1     -44.960  13.332  21.902  0.00  0.00     0.001 A 
ATOM     21  C   UNL d   1     -44.246  13.224  21.487  0.00  0.00     0.000 A 
ATOM     22  C   UNL d   1     -43.765  12.585  21.673  0.00  0.00     0.000 A 
ATOM     23  C   UNL d   1     -43.982  12.054  22.262  0.00  0.00     0.000 A 
ATOM     24  C   UNL d   1     -44.696  12.169  22.672  0.00  0.00     0.001 A 
ENDBRANCH  17  19
ENDBRANCH  16  17
ENDBRANCH   3  16
TORSDOF 3
ENDMDL
MODEL 5
REMARK VINA RESULT:      -6.5      1.845      4.580
REMARK  3 active torsions:
REMARK  status: ('A' for Active; 'I' for Inactive)
REMARK    1  A    between atoms: S_9  and  C_3 
REMARK    2  A    between atoms: C_12  and  S_9 
REMARK    3  A    between atoms: C_14  and  C_12 
ROOT
ATOM      1  C   UNL d   1     -48.577  14.134  22.261  0.00  0.00     0.155 A 
ATOM      2  C   UNL d   1     -48.581  13.306  22.211  0.00  0.00     0.107 A 
ATOM      3  C   UNL d   1     -47.211  13.279  22.614  0.00  0.00     0.182 A 
ATOM      4  N   UNL d   1     -47.204  14.098  22.665  0.00  0.00    -0.250 N 
ATOM      5  N   UNL d   1     -47.893  12.876  22.389  0.00  0.00    -0.220 NA
ATOM      6  C   UNL d   1     -47.892  14.528  22.487  0.00  0.00     0.285 A 
ATOM      7  N   UNL d   1     -49.328  14.409  22.056  0.00  0.00    -0.239 NA
ATOM      8  C   UNL d   1     -49.333  13.064  21.975  0.00  0.00     0.037 A 
ATOM      9  C   UNL d   1     -49.800  13.749  21.877  0.00  0.00     0.083 A 
ATOM     10  O   UNL d   1     -47.879  15.359  22.539  0.00  0.00    -0.265 OA
ATOM     11  C   UNL d   1     -46.511  14.495  22.893  0.00  0.00     0.104 C 
ATOM     12  C   UNL d   1     -49.660  12.321  21.835  0.00  0.00     0.003 A 
ATOM     13  C   UNL d   1     -50.592  13.682  21.640  0.00  0.00     0.019 A 
ATOM     14  C   UNL d   1     -50.451  12.254  21.597  0.00  0.00     0.000 A 
ATOM     15  C   UNL d   1     -50.912  12.932  21.501  0.00  0.00     0.002 A 
ENDROOT
BRANCH   3  16
ATOM     16  S   UNL d   1     -46.524  12.853  22.792  0.00  0.00    -0.050 SA
BRANCH  16  17
ATOM     17  C   UNL d   1     -46.564  12.175  23.264  0.00  0.00     0.032 C 
ATOM     18  C   UNL d   1     -47.245  12.012  23.698  0.00  0.00     0.007 C 
BRANCH  17  19
ATOM     19  C   UNL d   1     -45.911  11.671  23.289  0.00  0.00     0.006 A 
ATOM     20  C   UNL d   1     -45.976  10.944  23.664  0.00  0.00     0.001 A 
ATOM     21  C   UNL d   1     -45.327  10.424  23.698  0.00  0.00     0.000 A 
ATOM     22  C   UNL d   1     -44.616  10.645  23.351  0.00  0.00     0.000 A 
ATOM     23  C   UNL d   1     -44.541  11.371  22.974  0.00  0.00     0.000 A 
ATOM     24  C   UNL d   1     -45.194  11.885  22.944  0.00  0.00     0.001 A 
ENDBRANCH  17  19
ENDBRANCH  16  17
ENDBRANCH   3  16
TORSDOF 3
ENDMDL
MODEL 6
REMARK VINA RESULT:      -6.1      1.242      1.942
REMARK  3 active torsions:
REMARK  status: ('A' for Active; 'I' for Inactive)
REMARK    1  A    between atoms: S_9  and  C_3 
REMARK    2  A    between atoms: C_12  and  S_9 
REMARK    3  A    between atoms: C_14  and  C_12 
ROOT
ATOM      1  C   UNL d   1     -45.463  11.885  22.856  0.00  0.00     0.155 A 
ATOM      2  C   UNL d   1     -45.531  12.620  22.478  0.00  0.00     0.107 A 
ATOM      3  C   UNL d   1     -46.892  12.706  22.902  0.00  0.00     0.182 A 
ATOM      4  N   UNL d   1     -46.828  11.980  23.277  0.00  0.00    -0.250 N 
ATOM      5  N   UNL d   1     -46.251  13.033  22.501  0.00  0.00    -0.220 NA
ATOM      6  C   UNL d   1     -46.108  11.566  23.253  0.00  0.00     0.285 A 
ATOM      7  N   UNL d   1     -44.694  11.606  22.742  0.00  0.00    -0.239 NA
ATOM      8  C   UNL d   1     -44.807  12.801  22.128  0.00  0.00     0.037 A 
ATOM      9  C   UNL d   1     -44.283  12.171  22.291  0.00  0.00     0.083 A 
ATOM     10  O   UNL d   1     -46.048  10.829  23.635  0.00  0.00    -0.265 OA
ATOM     11  C   UNL d   1     -47.480  11.658  23.678  0.00  0.00     0.104 C 
ATOM     12  C   UNL d   1     -44.547  13.446  21.686  0.00  0.00     0.003 A 
ATOM     13  C   UNL d   1     -43.504  12.194  22.008  0.00  0.00     0.019 A 
ATOM     14  C   UNL d   1     -43.769  13.469  21.404  0.00  0.00     0.000 A 
ATOM     15  C   UNL d   1     -43.252  12.846  21.565  0.00  0.00     0.002 A 
ENDROOT
BRANCH   3  16
ATOM     16  S   UNL d   1     -47.611  13.116  22.927  0.00  0.00    -0.050 SA
BRANCH  16  17
ATOM     17  C   UNL d   1     -47.959  13.392  22.230  0.00  0.00     0.032 C 
ATOM     18  C   UNL d   1     -47.739  13.071  21.503  0.00  0.00     0.007 C 
BRANCH  17  19
ATOM     19  C   UNL d   1     -48.525  13.990  22.279  0.00  0.00     0.006 A 
ATOM     20  C   UNL d   1     -48.296  14.748  22.494  0.00  0.00     0.001 A 
ATOM     21  C   UNL d   1     -48.855  15.362  22.548  0.00  0.00     0.000 A 
ATOM     22  C   UNL d   1     -49.644  15.203  22.383  0.00  0.00     0.000 A 
ATOM     23  C   UNL d   1     -49.883  14.447  22.167  0.00  0.00     0.000 A 
ATOM     24  C   UNL d   1     -49.319  13.839  22.115  0.00  0.00     0.001 A 
ENDBRANCH  17  19
ENDBRANCH  16  17
ENDBRANCH   3  16
TORSDOF 3
ENDMDL
