MODEL 1
REMARK VINA RESULT:       8.9      0.000      0.000
REMARK  3 active torsions:
REMARK  status: ('A' for Active; 'I' for Inactive)
REMARK    1  A    between atoms: S_6  and  C_1 
REMARK    2  A    between atoms: C_9  and  S_6 
REMARK    3  A    between atoms: C_7  and  C_9 
ROOT
ATOM      1  C   UNL d   1      46.308 -17.980  43.953  0.00  0.00     0.137 A 
ATOM      2  N   UNL d   1      46.409 -17.938  43.139  0.00  0.00    -0.232 NA
ATOM      3  S   UNL d   1      46.319 -18.766  44.177  0.00  0.00    -0.060 SA
ATOM      4  C   UNL d   1      46.482 -18.695  42.854  0.00  0.00     0.088 A 
ATOM      5  C   UNL d   1      46.426 -19.213  43.502  0.00  0.00     0.049 A 
ATOM      6  C   UNL d   1      46.592 -18.992  42.103  0.00  0.00     0.020 A 
ATOM      7  C   UNL d   1      46.480 -20.015  43.386  0.00  0.00     0.008 A 
ATOM      8  C   UNL d   1      46.592 -20.330  42.626  0.00  0.00     0.001 A 
ATOM      9  C   UNL d   1      46.647 -19.824  41.992  0.00  0.00     0.002 A 
ENDROOT
BRANCH   1  10
ATOM     10  S   UNL d   1      46.215 -17.330  44.438  0.00  0.00    -0.077 SA
BRANCH  10  11
ATOM     11  C   UNL d   1      45.678 -16.740  44.204  0.00  0.00     0.161 C 
BRANCH  11  12
ATOM     12  C   UNL d   1      45.606 -16.048  44.661  0.00  0.00     0.197 C 
ATOM     13  O   UNL d   1      46.276 -15.575  44.824  0.00  0.00    -0.647 OA
ATOM     14  O   UNL d   1      44.879 -15.831  44.953  0.00  0.00    -0.647 OA
ENDBRANCH  11  12
ENDBRANCH  10  11
ENDBRANCH   1  10
TORSDOF 3
ENDMDL
MODEL 2
REMARK VINA RESULT:       9.0      7.551      8.101
REMARK  3 active torsions:
REMARK  status: ('A' for Active; 'I' for Inactive)
REMARK    1  A    between atoms: S_6  and  C_1 
REMARK    2  A    between atoms: C_9  and  S_6 
REMARK    3  A    between atoms: C_7  and  C_9 
ROOT
ATOM      1  C   UNL d   1      44.377 -15.674  36.797  0.00  0.00     0.137 A 
ATOM      2  N   UNL d   1      43.980 -16.357  36.575  0.00  0.00    -0.232 NA
ATOM      3  S   UNL d   1      43.831 -15.073  36.886  0.00  0.00    -0.060 SA
ATOM      4  C   UNL d   1      43.188 -16.186  36.524  0.00  0.00     0.088 A 
ATOM      5  C   UNL d   1      43.094 -15.382  36.719  0.00  0.00     0.049 A 
ATOM      6  C   UNL d   1      42.538 -16.637  36.331  0.00  0.00     0.020 A 
ATOM      7  C   UNL d   1      42.353 -15.048  36.715  0.00  0.00     0.008 A 
ATOM      8  C   UNL d   1      41.683 -15.498  36.520  0.00  0.00     0.001 A 
ATOM      9  C   UNL d   1      41.774 -16.284  36.330  0.00  0.00     0.002 A 
ENDROOT
BRANCH   1  10
ATOM     10  S   UNL d   1      45.184 -15.626  36.906  0.00  0.00    -0.077 SA
BRANCH  10  11
ATOM     11  C   UNL d   1      45.583 -14.966  36.596  0.00  0.00     0.161 C 
BRANCH  11  12
ATOM     12  C   UNL d   1      46.285 -14.704  36.959  0.00  0.00     0.197 C 
ATOM     13  O   UNL d   1      46.646 -15.159  37.560  0.00  0.00    -0.647 OA
ATOM     14  O   UNL d   1      46.622 -14.001  36.728  0.00  0.00    -0.647 OA
ENDBRANCH  11  12
ENDBRANCH  10  11
ENDBRANCH   1  10
TORSDOF 3
ENDMDL
MODEL 3
REMARK VINA RESULT:       9.5      2.489      3.175
REMARK  3 active torsions:
REMARK  status: ('A' for Active; 'I' for Inactive)
REMARK    1  A    between atoms: S_6  and  C_1 
REMARK    2  A    between atoms: C_9  and  S_6 
REMARK    3  A    between atoms: C_7  and  C_9 
ROOT
ATOM      1  C   UNL d   1      46.594 -19.108  42.246  0.00  0.00     0.137 A 
ATOM      2  N   UNL d   1      46.533 -19.857  42.575  0.00  0.00    -0.232 NA
ATOM      3  S   UNL d   1      46.645 -18.561  42.851  0.00  0.00    -0.060 SA
ATOM      4  C   UNL d   1      46.546 -19.781  43.384  0.00  0.00     0.088 A 
ATOM      5  C   UNL d   1      46.616 -18.970  43.556  0.00  0.00     0.049 A 
ATOM      6  C   UNL d   1      46.505 -20.325  43.989  0.00  0.00     0.020 A 
ATOM      7  C   UNL d   1      46.643 -18.721  44.330  0.00  0.00     0.008 A 
ATOM      8  C   UNL d   1      46.602 -19.266  44.955  0.00  0.00     0.001 A 
ATOM      9  C   UNL d   1      46.533 -20.059  44.786  0.00  0.00     0.002 A 
ENDROOT
BRANCH   1  10
ATOM     10  S   UNL d   1      46.601 -18.958  41.443  0.00  0.00    -0.077 SA
BRANCH  10  11
ATOM     11  C   UNL d   1      46.274 -18.241  41.176  0.00  0.00     0.161 C 
BRANCH  11  12
ATOM     12  C   UNL d   1      46.086 -18.152  40.371  0.00  0.00     0.197 C 
ATOM     13  O   UNL d   1      46.627 -17.788  39.847  0.00  0.00    -0.647 OA
ATOM     14  O   UNL d   1      45.372 -18.420  40.090  0.00  0.00    -0.647 OA
ENDBRANCH  11  12
ENDBRANCH  10  11
ENDBRANCH   1  10
TORSDOF 3
ENDMDL
MODEL 4
REMARK VINA RESULT:       9.9      7.465      8.064
REMARK  3 active torsions:
REMARK  status: ('A' for Active; 'I' for Inactive)
REMARK    1  A    between atoms: S_6  and  C_1 
REMARK    2  A    between atoms: C_9  and  S_6 
REMARK    3  A    between atoms: C_7  and  C_9 
ROOT
ATOM      1  C   UNL d   1      43.928 -15.710  36.754  0.00  0.00     0.137 A 
ATOM      2  N   UNL d   1      44.494 -16.043  37.247  0.00  0.00    -0.232 NA
ATOM      3  S   UNL d   1      44.273 -15.099  36.336  0.00  0.00    -0.060 SA
ATOM      4  C   UNL d   1      45.192 -15.642  37.138  0.00  0.00     0.088 A 
ATOM      5  C   UNL d   1      45.054 -15.052  36.568  0.00  0.00     0.049 A 
ATOM      6  C   UNL d   1      45.932 -15.724  37.470  0.00  0.00     0.020 A 
ATOM      7  C   UNL d   1      45.658 -14.556  36.343  0.00  0.00     0.008 A 
ATOM      8  C   UNL d   1      46.416 -14.630  36.674  0.00  0.00     0.001 A 
ATOM      9  C   UNL d   1      46.551 -15.207  37.231  0.00  0.00     0.002 A 
ENDROOT
BRANCH   1  10
ATOM     10  S   UNL d   1      43.154 -15.964  36.707  0.00  0.00    -0.077 SA
BRANCH  10  11
ATOM     11  C   UNL d   1      42.550 -15.415  36.866  0.00  0.00     0.161 C 
BRANCH  11  12
ATOM     12  C   UNL d   1      41.764 -15.602  36.669  0.00  0.00     0.197 C 
ATOM     13  O   UNL d   1      41.154 -15.040  36.779  0.00  0.00    -0.647 OA
ATOM     14  O   UNL d   1      41.585 -16.336  36.368  0.00  0.00    -0.647 OA
ENDBRANCH  11  12
ENDBRANCH  10  11
ENDBRANCH   1  10
TORSDOF 3
ENDMDL
