MODEL 1
REMARK VINA RESULT:      -6.0      0.000      0.000
REMARK  5 active torsions:
REMARK  status: ('A' for Active; 'I' for Inactive)
REMARK    1  A    between atoms: N_6  and  C_1 
REMARK    2  A    between atoms: C_12  and  C_2 
REMARK       I    between atoms: C_9  and  N_6 
REMARK       I    between atoms: C_11  and  N_7 
REMARK    3  A    between atoms: C_8  and  C_9 
REMARK    4  A    between atoms: O_24  and  C_11 
REMARK    5  A    between atoms: C_25  and  O_24 
ROOT
ATOM      1  C   UNL d   1      51.942  33.808  53.647  0.00  0.00     0.119 A 
ATOM      2  C   UNL d   1      51.569  33.442  53.008  0.00  0.00     0.084 A 
ATOM      3  C   UNL d   1      50.829  34.486  53.376  0.00  0.00     0.049 A 
ATOM      4  C   UNL d   1      50.875  33.872  52.846  0.00  0.00     0.016 A 
ATOM      5  S   UNL d   1      51.480  34.461  53.877  0.00  0.00    -0.066 SA
ATOM      6  N   UNL d   1      49.599  34.908  52.775  0.00  0.00    -0.251 N 
ATOM      7  C   UNL d   1      48.949  35.430  52.733  0.00  0.00     0.378 C 
ATOM      8  C   UNL d   1      50.179  35.017  53.343  0.00  0.00     0.091 A 
ATOM      9  C   UNL d   1      50.289  33.756  52.266  0.00  0.00     0.020 A 
ATOM     10  C   UNL d   1      49.653  34.282  52.241  0.00  0.00     0.085 A 
ATOM     11  O   UNL d   1      48.895  36.056  53.267  0.00  0.00    -0.237 OA
ENDROOT
BRANCH   1  12
ATOM     12  N   UNL d   1      52.650  33.571  53.998  0.00  0.00    -0.201 NA
ATOM     13  C   UNL d   1      53.105  34.113  54.417  0.00  0.00     0.286 C 
ATOM     14  O   UNL d   1      52.854  34.902  54.489  0.00  0.00    -0.265 OA
BRANCH  13  15
ATOM     15  C   UNL d   1      53.813  33.876  54.768  0.00  0.00     0.088 A 
ATOM     16  S   UNL d   1      54.568  34.215  54.649  0.00  0.00    -0.071 SA
ATOM     17  C   UNL d   1      55.112  33.793  55.117  0.00  0.00     0.087 A 
ATOM     18 CL   UNL d   1      55.938  33.943  55.171  0.00  0.00    -0.075 Cl
ATOM     19  C   UNL d   1      54.696  33.204  55.519  0.00  0.00     0.019 A 
ATOM     20  C   UNL d   1      53.898  33.262  55.298  0.00  0.00     0.013 A 
ENDBRANCH  13  15
ENDBRANCH   1  12
BRANCH   2  21
ATOM     21  C   UNL d   1      51.835  32.776  52.608  0.00  0.00     0.299 C 
ATOM     22  O   UNL d   1      52.296  32.859  51.938  0.00  0.00    -0.264 OA
ATOM     23  N   UNL d   1      51.636  32.022  52.883  0.00  0.00    -0.102 N 
ENDBRANCH   2  21
BRANCH   7  24
ATOM     24  O   UNL d   1      48.365  35.323  52.163  0.00  0.00    -0.257 OA
BRANCH  24  25
ATOM     25  C   UNL d   1      47.722  35.839  52.123  0.00  0.00     0.128 C 
ATOM     26  C   UNL d   1      47.142  35.744  51.549  0.00  0.00     0.029 C 
ENDBRANCH  24  25
ENDBRANCH   7  24
TORSDOF 5
ENDMDL
MODEL 2
REMARK VINA RESULT:      -5.4      2.108      2.711
REMARK  5 active torsions:
REMARK  status: ('A' for Active; 'I' for Inactive)
REMARK    1  A    between atoms: N_6  and  C_1 
REMARK    2  A    between atoms: C_12  and  C_2 
REMARK       I    between atoms: C_9  and  N_6 
REMARK       I    between atoms: C_11  and  N_7 
REMARK    3  A    between atoms: C_8  and  C_9 
REMARK    4  A    between atoms: O_24  and  C_11 
REMARK    5  A    between atoms: C_25  and  O_24 
ROOT
ATOM      1  C   UNL d   1      52.136  32.755  53.306  0.00  0.00     0.119 A 
ATOM      2  C   UNL d   1      52.224  33.523  53.598  0.00  0.00     0.084 A 
ATOM      3  C   UNL d   1      51.048  33.450  52.979  0.00  0.00     0.049 A 
ATOM      4  C   UNL d   1      51.541  33.949  53.389  0.00  0.00     0.016 A 
ATOM      5  S   UNL d   1      51.400  32.709  52.919  0.00  0.00    -0.066 SA
ATOM      6  N   UNL d   1      50.096  34.511  52.838  0.00  0.00    -0.251 N 
ATOM      7  C   UNL d   1      49.365  34.802  52.562  0.00  0.00     0.378 C 
ATOM      8  C   UNL d   1      50.310  33.733  52.696  0.00  0.00     0.091 A 
ATOM      9  C   UNL d   1      51.330  34.741  53.536  0.00  0.00     0.020 A 
ATOM     10  C   UNL d   1      50.602  35.011  53.255  0.00  0.00     0.085 A 
ATOM     11  O   UNL d   1      48.858  34.302  52.145  0.00  0.00    -0.237 OA
ENDROOT
BRANCH   1  12
ATOM     12  N   UNL d   1      52.680  32.139  53.384  0.00  0.00    -0.201 NA
ATOM     13  C   UNL d   1      52.429  31.358  53.324  0.00  0.00     0.286 C 
ATOM     14  O   UNL d   1      51.629  31.186  53.186  0.00  0.00    -0.265 OA
BRANCH  13  15
ATOM     15  C   UNL d   1      52.973  30.743  53.402  0.00  0.00     0.088 A 
ATOM     16  S   UNL d   1      52.915  30.086  53.918  0.00  0.00    -0.071 SA
ATOM     17  C   UNL d   1      53.590  29.614  53.802  0.00  0.00     0.087 A 
ATOM     18 CL   UNL d   1      53.764  28.896  54.205  0.00  0.00    -0.075 Cl
ATOM     19  C   UNL d   1      54.056  29.974  53.225  0.00  0.00     0.019 A 
ATOM     20  C   UNL d   1      53.668  30.668  52.984  0.00  0.00     0.013 A 
ENDBRANCH  13  15
ENDBRANCH   1  12
BRANCH   2  21
ATOM     21  C   UNL d   1      52.870  33.811  54.017  0.00  0.00     0.299 C 
ATOM     22  O   UNL d   1      52.883  33.759  54.832  0.00  0.00    -0.264 OA
ATOM     23  N   UNL d   1      53.505  34.153  53.613  0.00  0.00    -0.102 N 
ENDBRANCH   2  21
BRANCH   7  24
ATOM     24  O   UNL d   1      49.148  35.584  52.703  0.00  0.00    -0.257 OA
BRANCH  24  25
ATOM     25  C   UNL d   1      48.376  35.834  52.556  0.00  0.00     0.128 C 
ATOM     26  C   UNL d   1      48.048  36.458  52.980  0.00  0.00     0.029 C 
ENDBRANCH  24  25
ENDBRANCH   7  24
TORSDOF 5
ENDMDL
MODEL 3
REMARK VINA RESULT:      -5.3      2.551      5.264
REMARK  5 active torsions:
REMARK  status: ('A' for Active; 'I' for Inactive)
REMARK    1  A    between atoms: N_6  and  C_1 
REMARK    2  A    between atoms: C_12  and  C_2 
REMARK       I    between atoms: C_9  and  N_6 
REMARK       I    between atoms: C_11  and  N_7 
REMARK    3  A    between atoms: C_8  and  C_9 
REMARK    4  A    between atoms: O_24  and  C_11 
REMARK    5  A    between atoms: C_25  and  O_24 
ROOT
ATOM      1  C   UNL d   1      50.992  34.032  53.125  0.00  0.00     0.119 A 
ATOM      2  C   UNL d   1      51.809  34.123  53.206  0.00  0.00     0.084 A 
ATOM      3  C   UNL d   1      51.544  32.821  53.126  0.00  0.00     0.049 A 
ATOM      4  C   UNL d   1      52.145  33.362  53.206  0.00  0.00     0.016 A 
ATOM      5  S   UNL d   1      50.826  33.218  53.075  0.00  0.00    -0.066 SA
ATOM      6  N   UNL d   1      52.502  31.755  53.173  0.00  0.00    -0.251 N 
ATOM      7  C   UNL d   1      52.689  30.943  53.157  0.00  0.00     0.378 C 
ATOM      8  C   UNL d   1      51.722  32.000  53.109  0.00  0.00     0.091 A 
ATOM      9  C   UNL d   1      52.939  33.120  53.271  0.00  0.00     0.020 A 
ATOM     10  C   UNL d   1      53.106  32.311  53.253  0.00  0.00     0.085 A 
ATOM     11  O   UNL d   1      52.085  30.387  53.076  0.00  0.00    -0.237 OA
ENDROOT
BRANCH   1  12
ATOM     12  N   UNL d   1      50.436  34.641  53.097  0.00  0.00    -0.201 NA
ATOM     13  C   UNL d   1      49.680  34.495  52.806  0.00  0.00     0.286 C 
ATOM     14  O   UNL d   1      49.475  33.737  52.538  0.00  0.00    -0.265 OA
BRANCH  13  15
ATOM     15  C   UNL d   1      49.124  35.104  52.778  0.00  0.00     0.088 A 
ATOM     16  S   UNL d   1      48.677  35.343  52.112  0.00  0.00    -0.071 SA
ATOM     17  C   UNL d   1      48.190  35.976  52.348  0.00  0.00     0.087 A 
ATOM     18 CL   UNL d   1      47.647  36.390  51.857  0.00  0.00    -0.075 Cl
ATOM     19  C   UNL d   1      48.336  36.123  53.147  0.00  0.00     0.019 A 
ATOM     20  C   UNL d   1      48.911  35.581  53.403  0.00  0.00     0.013 A 
ENDBRANCH  13  15
ENDBRANCH   1  12
BRANCH   2  21
ATOM     21  C   UNL d   1      52.214  34.835  53.274  0.00  0.00     0.299 C 
ATOM     22  O   UNL d   1      52.515  35.199  52.607  0.00  0.00    -0.264 OA
ATOM     23  N   UNL d   1      52.315  35.182  54.018  0.00  0.00    -0.102 N 
ENDBRANCH   2  21
BRANCH   7  24
ATOM     24  O   UNL d   1      53.472  30.695  53.220  0.00  0.00    -0.257 OA
BRANCH  24  25
ATOM     25  C   UNL d   1      53.649  29.893  53.298  0.00  0.00     0.128 C 
ATOM     26  C   UNL d   1      54.344  29.649  53.663  0.00  0.00     0.029 C 
ENDBRANCH  24  25
ENDBRANCH   7  24
TORSDOF 5
ENDMDL
MODEL 4
REMARK VINA RESULT:      -5.2      2.574      5.428
REMARK  5 active torsions:
REMARK  status: ('A' for Active; 'I' for Inactive)
REMARK    1  A    between atoms: N_6  and  C_1 
REMARK    2  A    between atoms: C_12  and  C_2 
REMARK       I    between atoms: C_9  and  N_6 
REMARK       I    between atoms: C_11  and  N_7 
REMARK    3  A    between atoms: C_8  and  C_9 
REMARK    4  A    between atoms: O_24  and  C_11 
REMARK    5  A    between atoms: C_25  and  O_24 
ROOT
ATOM      1  C   UNL d   1      49.427  34.867  52.663  0.00  0.00     0.119 A 
ATOM      2  C   UNL d   1      49.807  34.416  52.084  0.00  0.00     0.084 A 
ATOM      3  C   UNL d   1      50.635  34.542  53.118  0.00  0.00     0.049 A 
ATOM      4  C   UNL d   1      50.560  34.217  52.378  0.00  0.00     0.016 A 
ATOM      5  S   UNL d   1      49.945  34.946  53.309  0.00  0.00    -0.066 SA
ATOM      6  N   UNL d   1      51.956  33.994  53.220  0.00  0.00    -0.251 N 
ATOM      7  C   UNL d   1      52.665  33.878  53.642  0.00  0.00     0.378 C 
ATOM      8  C   UNL d   1      51.346  34.430  53.552  0.00  0.00     0.091 A 
ATOM      9  C   UNL d   1      51.175  33.773  52.035  0.00  0.00     0.020 A 
ATOM     10  C   UNL d   1      51.870  33.668  52.467  0.00  0.00     0.085 A 
ATOM     11  O   UNL d   1      52.751  34.204  54.395  0.00  0.00    -0.237 OA
ENDROOT
BRANCH   1  12
ATOM     12  N   UNL d   1      48.668  35.186  52.611  0.00  0.00    -0.201 NA
ATOM     13  C   UNL d   1      48.417  35.745  53.159  0.00  0.00     0.286 C 
ATOM     14  O   UNL d   1      48.927  35.992  53.766  0.00  0.00    -0.265 OA
BRANCH  13  15
ATOM     15  C   UNL d   1      47.658  36.064  53.107  0.00  0.00     0.088 A 
ATOM     16  S   UNL d   1      47.054  36.012  53.684  0.00  0.00    -0.071 SA
ATOM     17  C   UNL d   1      46.388  36.415  53.389  0.00  0.00     0.087 A 
ATOM     18 CL   UNL d   1      45.651  36.504  53.784  0.00  0.00    -0.075 Cl
ATOM     19  C   UNL d   1      46.579  36.708  52.642  0.00  0.00     0.019 A 
ATOM     20  C   UNL d   1      47.363  36.487  52.477  0.00  0.00     0.013 A 
ENDBRANCH  13  15
ENDBRANCH   1  12
BRANCH   2  21
ATOM     21  C   UNL d   1      49.496  34.202  51.354  0.00  0.00     0.299 C 
ATOM     22  O   UNL d   1      48.963  33.585  51.302  0.00  0.00    -0.264 OA
ATOM     23  N   UNL d   1      49.722  34.613  50.673  0.00  0.00    -0.102 N 
ENDBRANCH   2  21
BRANCH   7  24
ATOM     24  O   UNL d   1      53.279  33.440  53.311  0.00  0.00    -0.257 OA
BRANCH  24  25
ATOM     25  C   UNL d   1      53.954  33.268  53.754  0.00  0.00     0.128 C 
ATOM     26  C   UNL d   1      54.485  32.692  53.504  0.00  0.00     0.029 C 
ENDBRANCH  24  25
ENDBRANCH   7  24
TORSDOF 5
ENDMDL
MODEL 5
REMARK VINA RESULT:      -4.1      1.749      2.456
REMARK  5 active torsions:
REMARK  status: ('A' for Active; 'I' for Inactive)
REMARK    1  A    between atoms: N_6  and  C_1 
REMARK    2  A    between atoms: C_12  and  C_2 
REMARK       I    between atoms: C_9  and  N_6 
REMARK       I    between atoms: C_11  and  N_7 
REMARK    3  A    between atoms: C_8  and  C_9 
REMARK    4  A    between atoms: O_24  and  C_11 
REMARK    5  A    between atoms: C_25  and  O_24 
ROOT
ATOM      1  C   UNL d   1      50.221  34.422  52.518  0.00  0.00     0.119 A 
ATOM      2  C   UNL d   1      49.691  34.523  51.892  0.00  0.00     0.084 A 
ATOM      3  C   UNL d   1      49.186  35.131  52.963  0.00  0.00     0.049 A 
ATOM      4  C   UNL d   1      49.049  34.967  52.179  0.00  0.00     0.016 A 
ATOM      5  S   UNL d   1      49.905  34.802  53.187  0.00  0.00    -0.066 SA
ATOM      6  N   UNL d   1      47.942  35.840  53.029  0.00  0.00    -0.251 N 
ATOM      7  C   UNL d   1      47.378  36.283  53.454  0.00  0.00     0.378 C 
ATOM      8  C   UNL d   1      48.624  35.577  53.400  0.00  0.00     0.091 A 
ATOM      9  C   UNL d   1      48.358  35.231  51.796  0.00  0.00     0.020 A 
ATOM     10  C   UNL d   1      47.811  35.668  52.233  0.00  0.00     0.085 A 
ATOM     11  O   UNL d   1      47.509  36.455  54.250  0.00  0.00    -0.237 OA
ENDROOT
BRANCH   1  12
ATOM     12  N   UNL d   1      50.939  34.016  52.487  0.00  0.00    -0.201 NA
ATOM     13  C   UNL d   1      51.257  33.689  53.171  0.00  0.00     0.286 C 
ATOM     14  O   UNL d   1      50.859  33.768  53.896  0.00  0.00    -0.265 OA
BRANCH  13  15
ATOM     15  C   UNL d   1      51.974  33.283  53.140  0.00  0.00     0.088 A 
ATOM     16  S   UNL d   1      52.727  33.581  53.351  0.00  0.00    -0.071 SA
ATOM     17  C   UNL d   1      53.283  32.974  53.229  0.00  0.00     0.087 A 
ATOM     18 CL   UNL d   1      54.111  33.028  53.369  0.00  0.00    -0.075 Cl
ATOM     19  C   UNL d   1      52.878  32.312  52.947  0.00  0.00     0.019 A 
ATOM     20  C   UNL d   1      52.074  32.512  52.896  0.00  0.00     0.013 A 
ENDBRANCH  13  15
ENDBRANCH   1  12
BRANCH   2  21
ATOM     21  C   UNL d   1      49.784  34.237  51.127  0.00  0.00     0.299 C 
ATOM     22  O   UNL d   1      50.415  34.485  50.672  0.00  0.00    -0.264 OA
ATOM     23  N   UNL d   1      49.237  33.698  50.820  0.00  0.00    -0.102 N 
ENDBRANCH   2  21
BRANCH   7  24
ATOM     24  O   UNL d   1      46.692  36.548  53.083  0.00  0.00    -0.257 OA
BRANCH  24  25
ATOM     25  C   UNL d   1      46.015  36.709  53.526  0.00  0.00     0.128 C 
ATOM     26  C   UNL d   1      45.272  36.709  53.174  0.00  0.00     0.029 C 
ENDBRANCH  24  25
ENDBRANCH   7  24
TORSDOF 5
ENDMDL
MODEL 6
REMARK VINA RESULT:      -3.2      1.461      2.091
REMARK  5 active torsions:
REMARK  status: ('A' for Active; 'I' for Inactive)
REMARK    1  A    between atoms: N_6  and  C_1 
REMARK    2  A    between atoms: C_12  and  C_2 
REMARK       I    between atoms: C_9  and  N_6 
REMARK       I    between atoms: C_11  and  N_7 
REMARK    3  A    between atoms: C_8  and  C_9 
REMARK    4  A    between atoms: O_24  and  C_11 
REMARK    5  A    between atoms: C_25  and  O_24 
ROOT
ATOM      1  C   UNL d   1      51.498  33.904  52.865  0.00  0.00     0.119 A 
ATOM      2  C   UNL d   1      51.112  34.536  53.229  0.00  0.00     0.084 A 
ATOM      3  C   UNL d   1      50.364  34.130  52.206  0.00  0.00     0.049 A 
ATOM      4  C   UNL d   1      50.405  34.670  52.811  0.00  0.00     0.016 A 
ATOM      5  S   UNL d   1      51.031  33.649  52.225  0.00  0.00    -0.066 SA
ATOM      6  N   UNL d   1      49.107  34.686  51.800  0.00  0.00    -0.251 N 
ATOM      7  C   UNL d   1      48.447  34.699  51.291  0.00  0.00     0.378 C 
ATOM      8  C   UNL d   1      49.702  34.134  51.688  0.00  0.00     0.091 A 
ATOM      9  C   UNL d   1      49.804  35.233  52.931  0.00  0.00     0.020 A 
ATOM     10  C   UNL d   1      49.157  35.231  52.417  0.00  0.00     0.085 A 
ATOM     11  O   UNL d   1      48.396  34.154  50.674  0.00  0.00    -0.237 OA
ENDROOT
BRANCH   1  12
ATOM     12  N   UNL d   1      52.221  33.579  53.093  0.00  0.00    -0.201 NA
ATOM     13  C   UNL d   1      52.401  32.799  52.903  0.00  0.00     0.286 C 
ATOM     14  O   UNL d   1      51.856  32.336  52.481  0.00  0.00    -0.265 OA
BRANCH  13  15
ATOM     15  C   UNL d   1      53.124  32.474  53.132  0.00  0.00     0.088 A 
ATOM     16  S   UNL d   1      53.850  32.881  53.220  0.00  0.00    -0.071 SA
ATOM     17  C   UNL d   1      54.424  32.327  53.458  0.00  0.00     0.087 A 
ATOM     18 CL   UNL d   1      55.234  32.492  53.613  0.00  0.00    -0.075 Cl
ATOM     19  C   UNL d   1      54.056  31.590  53.515  0.00  0.00     0.019 A 
ATOM     20  C   UNL d   1      53.257  31.690  53.312  0.00  0.00     0.013 A 
ENDBRANCH  13  15
ENDBRANCH   1  12
BRANCH   2  21
ATOM     21  C   UNL d   1      51.379  34.955  53.884  0.00  0.00     0.299 C 
ATOM     22  O   UNL d   1      51.994  35.487  53.805  0.00  0.00    -0.264 OA
ATOM     23  N   UNL d   1      51.024  34.838  54.621  0.00  0.00    -0.102 N 
ENDBRANCH   2  21
BRANCH   7  24
ATOM     24  O   UNL d   1      47.847  35.252  51.402  0.00  0.00    -0.257 OA
BRANCH  24  25
ATOM     25  C   UNL d   1      47.160  35.218  50.946  0.00  0.00     0.128 C 
ATOM     26  C   UNL d   1      46.496  35.656  51.153  0.00  0.00     0.029 C 
ENDBRANCH  24  25
ENDBRANCH   7  24
TORSDOF 5
ENDMDL
