MODEL 1
REMARK VINA RESULT:      -1.7      0.000      0.000
REMARK  2 active torsions:
REMARK  status: ('A' for Active; 'I' for Inactive)
REMARK    1  A    between atoms: N_8  and  C_3 
REMARK    2  A    between atoms: C_7  and  N_9 
ROOT
ATOM      1  N   UNL d   1     -41.693-122.889 -50.446  0.00  0.00    -0.286 N 
ATOM      2  N   UNL d   1     -41.516-122.902 -52.105  0.00  0.00    -0.135 N 
ATOM      3  C   UNL d   1     -41.427-123.556 -50.851  0.00  0.00     0.101 A 
ATOM      4  C   UNL d   1     -41.874-122.216 -50.877  0.00  0.00     0.101 A 
ATOM      5  C   UNL d   1     -41.796-122.192 -51.702  0.00  0.00     0.117 A 
ATOM      6  C   UNL d   1     -41.339-123.563 -51.675  0.00  0.00     0.117 A 
ENDROOT
BRANCH   1   7
ATOM      7  C   UNL d   1     -41.777-122.882 -49.653  0.00  0.00     0.152 A 
ATOM      8  C   UNL d   1     -42.478-123.116 -49.288  0.00  0.00     0.059 A 
ATOM      9  C   UNL d   1     -42.566-123.110 -48.463  0.00  0.00     0.115 A 
ATOM     10  C   UNL d   1     -43.172-123.379 -49.611  0.00  0.00     0.011 A 
ATOM     11  S   UNL d   1     -43.313-123.369 -48.289  0.00  0.00    -0.068 SA
ATOM     12  N   UNL d   1     -41.954-122.869 -47.994  0.00  0.00    -0.217 NA
ATOM     13  C   UNL d   1     -43.678-123.531 -48.978  0.00  0.00     0.031 A 
ATOM     14  C   UNL d   1     -44.465-123.816 -49.060  0.00  0.00     0.007 C 
ATOM     15  C   UNL d   1     -41.214-122.619 -48.323  0.00  0.00     0.201 A 
ATOM     16  N   UNL d   1     -41.123-122.626 -49.179  0.00  0.00    -0.206 NA
ATOM     17  C   UNL d   1     -43.376-123.491 -50.439  0.00  0.00     0.001 C 
ENDBRANCH   1   7
BRANCH   2  18
ATOM     18  C   UNL d   1     -41.437-122.872 -52.969  0.00  0.00     0.735 A 
ATOM     19  N   UNL d   1     -41.470-122.165 -53.310  0.00  0.00    -0.059 NA
ATOM     20  C   UNL d   1     -41.397-122.099 -54.145  0.00  0.00     0.120 A 
ATOM     21  C   UNL d   1     -41.292-122.775 -54.585  0.00  0.00     0.043 A 
ATOM     22  C   UNL d   1     -41.260-123.504 -54.206  0.00  0.00     0.120 A 
ATOM     23  N   UNL d   1     -41.330-123.568 -53.410  0.00  0.00    -0.059 NA
ENDBRANCH   2  18
TORSDOF 2
ENDMDL
MODEL 2
REMARK VINA RESULT:      -1.4      1.527      4.528
REMARK  2 active torsions:
REMARK  status: ('A' for Active; 'I' for Inactive)
REMARK    1  A    between atoms: N_8  and  C_3 
REMARK    2  A    between atoms: C_7  and  N_9 
ROOT
ATOM      1  N   UNL d   1     -41.728-123.221 -50.860  0.00  0.00    -0.286 N 
ATOM      2  N   UNL d   1     -41.984-123.410 -49.221  0.00  0.00    -0.135 N 
ATOM      3  C   UNL d   1     -41.124-123.114 -50.309  0.00  0.00     0.101 A 
ATOM      4  C   UNL d   1     -42.474-123.425 -50.588  0.00  0.00     0.101 A 
ATOM      5  C   UNL d   1     -42.632-123.526 -49.780  0.00  0.00     0.117 A 
ATOM      6  C   UNL d   1     -41.251-123.208 -49.495  0.00  0.00     0.117 A 
ENDROOT
BRANCH   1   7
ATOM      7  C   UNL d   1     -41.606-123.131 -51.642  0.00  0.00     0.152 A 
ATOM      8  C   UNL d   1     -41.451-122.393 -51.977  0.00  0.00     0.059 A 
ATOM      9  C   UNL d   1     -41.323-122.299 -52.791  0.00  0.00     0.115 A 
ATOM     10  C   UNL d   1     -41.392-121.665 -51.629  0.00  0.00     0.011 A 
ATOM     11  S   UNL d   1     -41.188-121.514 -52.934  0.00  0.00    -0.068 SA
ATOM     12  N   UNL d   1     -41.350-122.942 -53.281  0.00  0.00    -0.217 NA
ATOM     13  C   UNL d   1     -41.229-121.132 -52.236  0.00  0.00     0.031 A 
ATOM     14  C   UNL d   1     -41.123-120.306 -52.124  0.00  0.00     0.007 C 
ATOM     15  C   UNL d   1     -41.506-123.720 -52.983  0.00  0.00     0.201 A 
ATOM     16  N   UNL d   1     -41.638-123.817 -52.138  0.00  0.00    -0.206 NA
ATOM     17  C   UNL d   1     -41.476-121.452 -50.800  0.00  0.00     0.001 C 
ENDBRANCH   1   7
BRANCH   2  18
ATOM     18  C   UNL d   1     -42.155-123.517 -48.377  0.00  0.00     0.735 A 
ATOM     19  N   UNL d   1     -42.891-123.706 -48.179  0.00  0.00    -0.059 NA
ATOM     20  C   UNL d   1     -43.092-123.817 -47.370  0.00  0.00     0.120 A 
ATOM     21  C   UNL d   1     -42.513-123.725 -46.806  0.00  0.00     0.043 A 
ATOM     22  C   UNL d   1     -41.749-123.527 -47.037  0.00  0.00     0.120 A 
ATOM     23  N   UNL d   1     -41.558-123.421 -47.808  0.00  0.00    -0.059 NA
ENDBRANCH   2  18
TORSDOF 2
ENDMDL
MODEL 3
REMARK VINA RESULT:      -0.9      1.843      4.683
REMARK  2 active torsions:
REMARK  status: ('A' for Active; 'I' for Inactive)
REMARK    1  A    between atoms: N_8  and  C_3 
REMARK    2  A    between atoms: C_7  and  N_9 
ROOT
ATOM      1  N   UNL d   1     -41.580-123.172 -52.791  0.00  0.00    -0.286 N 
ATOM      2  N   UNL d   1     -41.619-123.153 -51.122  0.00  0.00    -0.135 N 
ATOM      3  C   UNL d   1     -41.123-122.645 -52.350  0.00  0.00     0.101 A 
ATOM      4  C   UNL d   1     -42.065-123.698 -52.392  0.00  0.00     0.101 A 
ATOM      5  C   UNL d   1     -42.106-123.713 -51.564  0.00  0.00     0.117 A 
ATOM      6  C   UNL d   1     -41.142-122.636 -51.521  0.00  0.00     0.117 A 
ENDROOT
BRANCH   1   7
ATOM      7  C   UNL d   1     -41.561-123.180 -53.588  0.00  0.00     0.152 A 
ATOM      8  C   UNL d   1     -41.934-122.600 -54.039  0.00  0.00     0.059 A 
ATOM      9  C   UNL d   1     -41.915-122.609 -54.868  0.00  0.00     0.115 A 
ATOM     10  C   UNL d   1     -42.362-121.953 -53.806  0.00  0.00     0.011 A 
ATOM     11  S   UNL d   1     -42.331-121.967 -55.134  0.00  0.00    -0.068 SA
ATOM     12  N   UNL d   1     -41.522-123.199 -55.256  0.00  0.00    -0.217 NA
ATOM     13  C   UNL d   1     -42.599-121.573 -54.497  0.00  0.00     0.031 A 
ATOM     14  C   UNL d   1     -43.060-120.869 -54.515  0.00  0.00     0.007 C 
ATOM     15  C   UNL d   1     -41.124-123.817 -54.836  0.00  0.00     0.201 A 
ATOM     16  N   UNL d   1     -41.144-123.808 -53.975  0.00  0.00    -0.206 NA
ATOM     17  C   UNL d   1     -42.550-121.685 -53.010  0.00  0.00     0.001 C 
ENDBRANCH   1   7
BRANCH   2  18
ATOM     18  C   UNL d   1     -41.665-123.173 -50.256  0.00  0.00     0.735 A 
ATOM     19  N   UNL d   1     -41.172-123.654 -49.879  0.00  0.00    -0.059 NA
ATOM     20  C   UNL d   1     -41.189-123.699 -49.039  0.00  0.00     0.120 A 
ATOM     21  C   UNL d   1     -41.722-123.237 -48.633  0.00  0.00     0.043 A 
ATOM     22  C   UNL d   1     -42.228-122.741 -49.049  0.00  0.00     0.120 A 
ATOM     23  N   UNL d   1     -42.212-122.698 -49.849  0.00  0.00    -0.059 NA
ENDBRANCH   2  18
TORSDOF 2
ENDMDL
MODEL 4
REMARK VINA RESULT:      -0.6      1.076      1.588
REMARK  2 active torsions:
REMARK  status: ('A' for Active; 'I' for Inactive)
REMARK    1  A    between atoms: N_8  and  C_3 
REMARK    2  A    between atoms: C_7  and  N_9 
ROOT
ATOM      1  N   UNL d   1     -41.763-122.922 -51.709  0.00  0.00    -0.286 N 
ATOM      2  N   UNL d   1     -41.772-122.511 -53.327  0.00  0.00    -0.135 N 
ATOM      3  C   UNL d   1     -41.693-122.139 -51.960  0.00  0.00     0.101 A 
ATOM      4  C   UNL d   1     -41.839-123.510 -52.275  0.00  0.00     0.101 A 
ATOM      5  C   UNL d   1     -41.847-123.336 -53.086  0.00  0.00     0.117 A 
ATOM      6  C   UNL d   1     -41.698-121.935 -52.764  0.00  0.00     0.117 A 
ENDROOT
BRANCH   1   7
ATOM      7  C   UNL d   1     -41.759-123.118 -50.937  0.00  0.00     0.152 A 
ATOM      8  C   UNL d   1     -42.346-122.861 -50.418  0.00  0.00     0.059 A 
ATOM      9  C   UNL d   1     -42.342-123.065 -49.615  0.00  0.00     0.115 A 
ATOM     10  C   UNL d   1     -42.997-122.399 -50.555  0.00  0.00     0.011 A 
ATOM     11  S   UNL d   1     -42.989-122.726 -49.267  0.00  0.00    -0.068 SA
ATOM     12  N   UNL d   1     -41.750-123.529 -49.319  0.00  0.00    -0.217 NA
ATOM     13  C   UNL d   1     -43.383-122.325 -49.831  0.00  0.00     0.031 A 
ATOM     14  C   UNL d   1     -44.092-121.888 -49.716  0.00  0.00     0.007 C 
ATOM     15  C   UNL d   1     -41.124-123.817 -49.813  0.00  0.00     0.201 A 
ATOM     16  N   UNL d   1     -41.129-123.605 -50.647  0.00  0.00    -0.206 NA
ATOM     17  C   UNL d   1     -43.262-122.040 -51.291  0.00  0.00     0.001 C 
ENDBRANCH   1   7
BRANCH   2  18
ATOM     18  C   UNL d   1     -41.781-122.335 -54.176  0.00  0.00     0.735 A 
ATOM     19  N   UNL d   1     -42.408-121.954 -54.460  0.00  0.00    -0.059 NA
ATOM     20  C   UNL d   1     -42.450-121.768 -55.279  0.00  0.00     0.120 A 
ATOM     21  C   UNL d   1     -41.835-121.987 -55.763  0.00  0.00     0.043 A 
ATOM     22  C   UNL d   1     -41.189-122.385 -55.445  0.00  0.00     0.120 A 
ATOM     23  N   UNL d   1     -41.149-122.563 -54.664  0.00  0.00    -0.059 NA
ENDBRANCH   2  18
TORSDOF 2
ENDMDL
MODEL 5
REMARK VINA RESULT:       0.5      1.653      4.435
REMARK  2 active torsions:
REMARK  status: ('A' for Active; 'I' for Inactive)
REMARK    1  A    between atoms: N_8  and  C_3 
REMARK    2  A    between atoms: C_7  and  N_9 
ROOT
ATOM      1  N   UNL d   1     -41.774-122.057 -51.644  0.00  0.00    -0.286 N 
ATOM      2  N   UNL d   1     -42.160-122.712 -50.159  0.00  0.00    -0.135 N 
ATOM      3  C   UNL d   1     -42.494-121.901 -51.273  0.00  0.00     0.101 A 
ATOM      4  C   UNL d   1     -41.237-122.548 -51.268  0.00  0.00     0.101 A 
ATOM      5  C   UNL d   1     -41.401-122.889 -50.529  0.00  0.00     0.117 A 
ATOM      6  C   UNL d   1     -42.685-122.227 -50.535  0.00  0.00     0.117 A 
ENDROOT
BRANCH   1   7
ATOM      7  C   UNL d   1     -41.590-121.744 -52.354  0.00  0.00     0.152 A 
ATOM      8  C   UNL d   1     -41.643-122.182 -53.051  0.00  0.00     0.059 A 
ATOM      9  C   UNL d   1     -41.452-121.856 -53.789  0.00  0.00     0.115 A 
ATOM     10  C   UNL d   1     -41.870-122.950 -53.168  0.00  0.00     0.011 A 
ATOM     11  S   UNL d   1     -41.563-122.428 -54.351  0.00  0.00    -0.068 SA
ATOM     12  N   UNL d   1     -41.204-121.088 -53.839  0.00  0.00    -0.217 NA
ATOM     13  C   UNL d   1     -41.815-123.085 -53.978  0.00  0.00     0.031 A 
ATOM     14  C   UNL d   1     -42.000-123.817 -54.349  0.00  0.00     0.007 C 
ATOM     15  C   UNL d   1     -41.134-120.599 -53.151  0.00  0.00     0.201 A 
ATOM     16  N   UNL d   1     -41.333-120.937 -52.385  0.00  0.00    -0.206 NA
ATOM     17  C   UNL d   1     -42.124-123.534 -52.589  0.00  0.00     0.001 C 
ENDBRANCH   1   7
BRANCH   2  18
ATOM     18  C   UNL d   1     -42.326-123.071 -49.386  0.00  0.00     0.735 A 
ATOM     19  N   UNL d   1     -41.790-122.973 -48.820  0.00  0.00    -0.059 NA
ATOM     20  C   UNL d   1     -41.918-123.307 -48.059  0.00  0.00     0.120 A 
ATOM     21  C   UNL d   1     -42.601-123.728 -47.925  0.00  0.00     0.043 A 
ATOM     22  C   UNL d   1     -43.148-123.817 -48.532  0.00  0.00     0.120 A 
ATOM     23  N   UNL d   1     -43.026-123.499 -49.258  0.00  0.00    -0.059 NA
ENDBRANCH   2  18
TORSDOF 2
ENDMDL
