MODEL 1
REMARK VINA RESULT:      -5.5      0.000      0.000
REMARK  6 active torsions:
REMARK  status: ('A' for Active; 'I' for Inactive)
REMARK    1  A    between atoms: C_2  and  C_1 
REMARK       I    between atoms: N_10  and  C_1 
REMARK    2  A    between atoms: C_3  and  C_4 
REMARK    3  A    between atoms: C_16  and  N_10 
REMARK    4  A    between atoms: C_11  and  O_12 
REMARK    5  A    between atoms: O_12  and  C_17 
REMARK    6  A    between atoms: C_17  and  C_16 
ROOT
ATOM      1  C   UNL d   1     -41.411-123.128 -50.859  0.00  0.00     0.279 C 
ATOM      2  O   UNL d   1     -41.145-123.817 -51.227  0.00  0.00    -0.265 OA
ATOM      3  N   UNL d   1     -41.423-122.417 -51.277  0.00  0.00    -0.204 NA
ENDROOT
BRANCH   1   4
ATOM      4  C   UNL d   1     -41.663-123.150 -50.078  0.00  0.00     0.058 A 
ATOM      5  C   UNL d   1     -41.123-123.298 -49.472  0.00  0.00     0.004 A 
ATOM      6  C   UNL d   1     -41.372-123.320 -48.693  0.00  0.00    -0.004 A 
ATOM      7  C   UNL d   1     -42.174-123.193 -48.509  0.00  0.00    -0.023 A 
ATOM      8  C   UNL d   1     -42.715-123.046 -49.114  0.00  0.00    -0.004 A 
ATOM      9  C   UNL d   1     -42.459-123.024 -49.898  0.00  0.00     0.004 A 
BRANCH   7  10
ATOM     10  C   UNL d   1     -42.432-123.215 -47.721  0.00  0.00     0.019 C 
ATOM     11  C   UNL d   1     -42.697-123.241 -46.927  0.00  0.00     0.004 C 
ATOM     12  C   UNL d   1     -41.892-122.608 -47.522  0.00  0.00     0.004 C 
ATOM     13  C   UNL d   1     -42.970-123.817 -47.914  0.00  0.00     0.004 C 
ENDBRANCH   7  10
ENDBRANCH   1   4
BRANCH   3  14
ATOM     14  C   UNL d   1     -41.169-122.393 -52.062  0.00  0.00     0.129 C 
BRANCH  14  15
ATOM     15  C   UNL d   1     -41.661-122.079 -52.646  0.00  0.00     0.143 C 
BRANCH  15  16
ATOM     16  O   UNL d   1     -41.334-121.755 -53.331  0.00  0.00    -0.303 OA
BRANCH  16  17
ATOM     17  C   UNL d   1     -41.643-121.950 -54.083  0.00  0.00     0.100 A 
ATOM     18  C   UNL d   1     -41.279-122.521 -54.542  0.00  0.00     0.025 A 
ATOM     19  C   UNL d   1     -41.589-122.707 -55.280  0.00  0.00     0.002 A 
ATOM     20  C   UNL d   1     -42.264-122.320 -55.555  0.00  0.00     0.000 A 
ATOM     21  C   UNL d   1     -42.629-121.747 -55.092  0.00  0.00     0.002 A 
ATOM     22  C   UNL d   1     -42.318-121.563 -54.358  0.00  0.00     0.025 A 
ENDBRANCH  16  17
ENDBRANCH  15  16
ENDBRANCH  14  15
ENDBRANCH   3  14
TORSDOF 6
ENDMDL
MODEL 2
REMARK VINA RESULT:      -5.2      0.802      5.704
REMARK  6 active torsions:
REMARK  status: ('A' for Active; 'I' for Inactive)
REMARK    1  A    between atoms: C_2  and  C_1 
REMARK       I    between atoms: N_10  and  C_1 
REMARK    2  A    between atoms: C_3  and  C_4 
REMARK    3  A    between atoms: C_16  and  N_10 
REMARK    4  A    between atoms: C_11  and  O_12 
REMARK    5  A    between atoms: O_12  and  C_17 
REMARK    6  A    between atoms: C_17  and  C_16 
ROOT
ATOM      1  C   UNL d   1     -41.362-122.087 -51.807  0.00  0.00     0.279 C 
ATOM      2  O   UNL d   1     -41.123-121.373 -51.471  0.00  0.00    -0.265 OA
ATOM      3  N   UNL d   1     -41.424-122.764 -51.339  0.00  0.00    -0.204 NA
ENDROOT
BRANCH   1   4
ATOM      4  C   UNL d   1     -41.538-122.126 -52.609  0.00  0.00     0.058 A 
ATOM      5  C   UNL d   1     -41.239-122.742 -53.069  0.00  0.00     0.004 A 
ATOM      6  C   UNL d   1     -41.412-122.783 -53.867  0.00  0.00    -0.004 A 
ATOM      7  C   UNL d   1     -41.895-122.201 -54.219  0.00  0.00    -0.023 A 
ATOM      8  C   UNL d   1     -42.194-121.586 -53.759  0.00  0.00    -0.004 A 
ATOM      9  C   UNL d   1     -42.016-121.549 -52.954  0.00  0.00     0.004 A 
BRANCH   7  10
ATOM     10  C   UNL d   1     -42.075-122.238 -55.028  0.00  0.00     0.019 C 
ATOM     11  C   UNL d   1     -42.260-122.271 -55.844  0.00  0.00     0.004 C 
ATOM     12  C   UNL d   1     -41.496-122.832 -55.135  0.00  0.00     0.004 C 
ATOM     13  C   UNL d   1     -42.650-121.648 -54.926  0.00  0.00     0.004 C 
ENDBRANCH   7  10
ENDBRANCH   1   4
BRANCH   3  14
ATOM     14  C   UNL d   1     -41.247-122.727 -50.533  0.00  0.00     0.129 C 
BRANCH  14  15
ATOM     15  C   UNL d   1     -41.719-123.126 -49.987  0.00  0.00     0.143 C 
BRANCH  15  16
ATOM     16  O   UNL d   1     -41.371-123.537 -49.362  0.00  0.00    -0.303 OA
BRANCH  16  17
ATOM     17  C   UNL d   1     -41.778-123.632 -48.637  0.00  0.00     0.100 A 
ATOM     18  C   UNL d   1     -42.594-123.670 -48.625  0.00  0.00     0.025 A 
ATOM     19  C   UNL d   1     -42.987-123.763 -47.909  0.00  0.00     0.002 A 
ATOM     20  C   UNL d   1     -42.558-123.818 -47.206  0.00  0.00     0.000 A 
ATOM     21  C   UNL d   1     -41.736-123.779 -47.220  0.00  0.00     0.002 A 
ATOM     22  C   UNL d   1     -41.349-123.686 -47.934  0.00  0.00     0.025 A 
ENDBRANCH  16  17
ENDBRANCH  15  16
ENDBRANCH  14  15
ENDBRANCH   3  14
TORSDOF 6
ENDMDL
