MODEL 1
REMARK VINA RESULT:      19.8      0.000      0.000
REMARK  7 active torsions:
REMARK  status: ('A' for Active; 'I' for Inactive)
REMARK    1  A    between atoms: C_3  and  C_1 
REMARK    2  A    between atoms: C_9  and  N_2 
REMARK    3  A    between atoms: C_6  and  C_3 
REMARK    4  A    between atoms: C_8  and  C_3 
REMARK       I    between atoms: N_11  and  C_6 
REMARK    5  A    between atoms: C_26  and  C_7 
REMARK    6  A    between atoms: C_21  and  N_11 
REMARK    7  A    between atoms: C_12  and  C_21 
ROOT
ATOM      1  C   UNL d   1      46.486 -18.180  43.576  0.00  0.00     0.103 A 
ATOM      2  N   UNL d   1      46.525 -18.723  42.960  0.00  0.00    -0.269 N 
ATOM      3  S   UNL d   1      46.493 -18.599  44.287  0.00  0.00    -0.064 SA
ATOM      4  C   UNL d   1      46.555 -19.483  43.283  0.00  0.00     0.271 A 
ATOM      5  C   UNL d   1      46.535 -19.402  44.105  0.00  0.00     0.087 A 
ATOM      6  O   UNL d   1      46.598 -20.187  42.862  0.00  0.00    -0.266 OA
ENDROOT
BRANCH   1   7
ATOM      7  C   UNL d   1      46.448 -17.356  43.500  0.00  0.00     0.101 C 
BRANCH   7   8
ATOM      8  C   UNL d   1      46.289 -16.884  44.160  0.00  0.00     0.283 C 
ATOM      9  N   UNL d   1      45.952 -16.143  44.066  0.00  0.00    -0.204 NA
ATOM     10  O   UNL d   1      46.473 -17.164  44.917  0.00  0.00    -0.265 OA
BRANCH   9  11
ATOM     11  C   UNL d   1      45.794 -15.671  44.726  0.00  0.00     0.127 C 
BRANCH  11  12
ATOM     12  C   UNL d   1      45.604 -14.875  44.638  0.00  0.00     0.119 A 
ATOM     13  O   UNL d   1      44.930 -14.565  44.284  0.00  0.00    -0.304 OA
ATOM     14  C   UNL d   1      44.972 -13.741  44.320  0.00  0.00     0.123 A 
ATOM     15  C   UNL d   1      45.675 -13.542  44.699  0.00  0.00     0.029 A 
ATOM     16  C   UNL d   1      46.068 -14.238  44.897  0.00  0.00     0.028 A 
ENDBRANCH  11  12
ENDBRANCH   9  11
ENDBRANCH   7   8
BRANCH   7  17
ATOM     17  C   UNL d   1      46.568 -17.002  42.758  0.00  0.00     0.129 C 
ATOM     18  N   UNL d   1      46.000 -16.488  42.458  0.00  0.00    -0.146 N 
ENDBRANCH   7  17
ENDBRANCH   1   7
BRANCH   2  19
ATOM     19  C   UNL d   1      46.555 -19.035  42.194  0.00  0.00     0.068 A 
ATOM     20  C   UNL d   1      46.558 -19.843  42.078  0.00  0.00     0.020 A 
ATOM     21  C   UNL d   1      46.588 -20.151  41.319  0.00  0.00     0.031 A 
ATOM     22  C   UNL d   1      46.615 -19.638  40.668  0.00  0.00     0.140 A 
ATOM     23  C   UNL d   1      46.613 -18.823  40.789  0.00  0.00     0.031 A 
ATOM     24  F   UNL d   1      46.646 -19.940  39.903  0.00  0.00    -0.204 F 
ATOM     25  C   UNL d   1      46.583 -18.519  41.549  0.00  0.00     0.020 A 
ENDBRANCH   2  19
BRANCH   5  26
ATOM     26  C   UNL d   1      46.555 -20.026  44.647  0.00  0.00     0.011 C 
ATOM     27  C   UNL d   1      45.858 -20.328  44.953  0.00  0.00     0.001 C 
ENDBRANCH   5  26
TORSDOF 7
ENDMDL
