MODEL 1
REMARK VINA RESULT:      -3.1      0.000      0.000
REMARK  3 active torsions:
REMARK  status: ('A' for Active; 'I' for Inactive)
REMARK       I    between atoms: C_6  and  N_7 
REMARK    1  A    between atoms: C_9  and  C_6 
REMARK    2  A    between atoms: N_7  and  C_13 
REMARK    3  A    between atoms: C_15  and  C_14 
ROOT
ATOM      1  C   UNL d   1      32.526  15.882 -24.603  0.00  0.00     0.279 C 
ATOM      2  N   UNL d   1      31.797  15.576 -24.821  0.00  0.00    -0.208 NA
ATOM      3  O   UNL d   1      33.209  15.461 -24.773  0.00  0.00    -0.265 OA
ENDROOT
BRANCH   2   4
ATOM      4  C   UNL d   1      31.107  15.996 -24.652  0.00  0.00     0.085 A 
ATOM      5  C   UNL d   1      30.624  15.746 -24.039  0.00  0.00     0.024 A 
ATOM      6  C   UNL d   1      29.935  16.166 -23.870  0.00  0.00     0.064 A 
ATOM      7  C   UNL d   1      29.347  16.051 -23.297  0.00  0.00     0.282 A 
ATOM      8  C   UNL d   1      29.726  16.828 -24.304  0.00  0.00     0.063 A 
ATOM      9  N   UNL d   1      28.787  16.644 -23.388  0.00  0.00    -0.169 NA
ATOM     10  O   UNL d   1      29.313  15.456 -22.730  0.00  0.00    -0.265 OA
ATOM     11  C   UNL d   1      29.021  17.123 -24.009  0.00  0.00     0.282 A 
ATOM     12  O   UNL d   1      28.624  17.785 -24.292  0.00  0.00    -0.265 OA
ATOM     13  C   UNL d   1      30.214  17.078 -24.921  0.00  0.00     0.006 A 
ATOM     14  C   UNL d   1      30.905  16.665 -25.097  0.00  0.00     0.019 A 
ENDBRANCH   2   4
BRANCH   1  15
ATOM     15  C   UNL d   1      32.576  16.599 -24.219  0.00  0.00     0.058 A 
ATOM     16  C   UNL d   1      32.606  17.299 -24.646  0.00  0.00     0.005 A 
ATOM     17  C   UNL d   1      32.656  18.023 -24.249  0.00  0.00     0.003 A 
ATOM     18  C   UNL d   1      32.677  18.043 -23.424  0.00  0.00     0.039 A 
ATOM     19  C   UNL d   1      32.646  17.338 -22.997  0.00  0.00     0.003 A 
ATOM     20  C   UNL d   1      32.596  16.614 -23.394  0.00  0.00     0.005 A 
BRANCH  18  21
ATOM     21  C   UNL d   1      32.727  18.767 -23.028  0.00  0.00     0.196 C 
ATOM     22  O   UNL d   1      32.358  19.435 -23.339  0.00  0.00    -0.287 OA
ATOM     23  C   UNL d   1      33.148  18.819 -22.319  0.00  0.00     0.045 C 
ENDBRANCH  18  21
ENDBRANCH   1  15
TORSDOF 3
ENDMDL
MODEL 2
REMARK VINA RESULT:      -2.6      1.558      3.604
REMARK  3 active torsions:
REMARK  status: ('A' for Active; 'I' for Inactive)
REMARK       I    between atoms: C_6  and  N_7 
REMARK    1  A    between atoms: C_9  and  C_6 
REMARK    2  A    between atoms: N_7  and  C_13 
REMARK    3  A    between atoms: C_15  and  C_14 
ROOT
ATOM      1  C   UNL d   1      32.494  16.252 -23.593  0.00  0.00     0.279 C 
ATOM      2  N   UNL d   1      33.172  16.707 -23.511  0.00  0.00    -0.208 NA
ATOM      3  O   UNL d   1      32.502  15.466 -23.358  0.00  0.00    -0.265 OA
ENDROOT
BRANCH   2   4
ATOM      4  C   UNL d   1      33.168  17.497 -23.747  0.00  0.00     0.085 A 
ATOM      5  C   UNL d   1      33.091  18.085 -23.181  0.00  0.00     0.024 A 
ATOM      6  C   UNL d   1      33.088  18.875 -23.417  0.00  0.00     0.064 A 
ATOM      7  C   UNL d   1      33.020  19.578 -22.983  0.00  0.00     0.282 A 
ATOM      8  C   UNL d   1      33.159  19.081 -24.205  0.00  0.00     0.063 A 
ATOM      9  N   UNL d   1      33.051  20.205 -23.512  0.00  0.00    -0.169 NA
ATOM     10  O   UNL d   1      32.936  19.656 -22.169  0.00  0.00    -0.265 OA
ATOM     11  C   UNL d   1      33.137  19.898 -24.266  0.00  0.00     0.282 A 
ATOM     12  O   UNL d   1      33.192  20.328 -24.966  0.00  0.00    -0.265 OA
ATOM     13  C   UNL d   1      33.236  18.488 -24.774  0.00  0.00     0.006 A 
ATOM     14  C   UNL d   1      33.241  17.695 -24.548  0.00  0.00     0.019 A 
ENDBRANCH   2   4
BRANCH   1  15
ATOM     15  C   UNL d   1      31.814  16.575 -23.906  0.00  0.00     0.058 A 
ATOM     16  C   UNL d   1      31.244  16.904 -23.416  0.00  0.00     0.005 A 
ATOM     17  C   UNL d   1      30.558  17.230 -23.742  0.00  0.00     0.003 A 
ATOM     18  C   UNL d   1      30.444  17.226 -24.559  0.00  0.00     0.039 A 
ATOM     19  C   UNL d   1      31.018  16.895 -25.050  0.00  0.00     0.003 A 
ATOM     20  C   UNL d   1      31.705  16.569 -24.725  0.00  0.00     0.005 A 
BRANCH  18  21
ATOM     21  C   UNL d   1      29.757  17.552 -24.884  0.00  0.00     0.196 C 
ATOM     22  O   UNL d   1      29.703  18.365 -25.004  0.00  0.00    -0.287 OA
ATOM     23  C   UNL d   1      29.126  17.060 -25.089  0.00  0.00     0.045 C 
ENDBRANCH  18  21
ENDBRANCH   1  15
TORSDOF 3
ENDMDL
