MODEL 1
REMARK VINA RESULT:      -6.3      0.000      0.000
REMARK  6 active torsions:
REMARK  status: ('A' for Active; 'I' for Inactive)
REMARK    1  A    between atoms: N_2  and  S_1 
REMARK    2  A    between atoms: C_5  and  S_1 
REMARK    3  A    between atoms: S_8  and  C_3 
REMARK    4  A    between atoms: C_13  and  S_8 
REMARK    5  A    between atoms: C_17  and  C_13 
REMARK    6  A    between atoms: O_21  and  C_15 
ROOT
ATOM      1  N   UNL d   1     -46.903  12.458  23.352  0.00  0.00    -0.208 N 
ATOM      2  C   UNL d   1     -47.634  12.092  23.206  0.00  0.00     0.189 A 
ATOM      3  N   UNL d   1     -47.571  11.294  23.420  0.00  0.00    -0.219 NA
ATOM      4  C   UNL d   1     -46.386  11.882  23.658  0.00  0.00     0.114 A 
ATOM      5  C   UNL d   1     -46.800  11.171  23.698  0.00  0.00     0.121 A 
ENDROOT
BRANCH   1   6
ATOM      6  S   UNL d   1     -46.725  13.255  23.216  0.00  0.00     0.273 S 
ATOM      7  O   UNL d   1     -46.747  14.082  23.232  0.00  0.00    -0.200 OA
ATOM      8  O   UNL d   1     -47.358  13.443  23.698  0.00  0.00    -0.200 OA
BRANCH   6   9
ATOM      9  C   UNL d   1     -46.081  13.085  22.726  0.00  0.00     0.104 A 
ATOM     10  C   UNL d   1     -45.427  12.700  23.042  0.00  0.00     0.015 A 
ATOM     11  C   UNL d   1     -44.787  12.534  22.544  0.00  0.00     0.025 A 
ATOM     12  C   UNL d   1     -44.812  12.755  21.745  0.00  0.00     0.094 A 
ATOM     13  C   UNL d   1     -45.467  13.139  21.440  0.00  0.00     0.025 A 
ATOM     14  C   UNL d   1     -46.108  13.306  21.936  0.00  0.00     0.015 A 
BRANCH  12  15
ATOM     15  O   UNL d   1     -44.168  12.585  21.259  0.00  0.00    -0.328 OA
ATOM     16  C   UNL d   1     -43.415  12.862  21.471  0.00  0.00     0.181 C 
ENDBRANCH  12  15
ENDBRANCH   6   9
ENDBRANCH   1   6
BRANCH   2  17
ATOM     17  S   UNL d   1     -48.312  12.463  22.898  0.00  0.00    -0.049 SA
BRANCH  17  18
ATOM     18  C   UNL d   1     -48.995  12.021  22.762  0.00  0.00     0.038 C 
BRANCH  18  19
ATOM     19  C   UNL d   1     -49.683  12.397  22.514  0.00  0.00     0.009 A 
ATOM     20  C   UNL d   1     -49.720  12.741  21.748  0.00  0.00     0.030 A 
ATOM     21  C   UNL d   1     -50.403  13.117  21.496  0.00  0.00     0.140 A 
ATOM     22  F   UNL d   1     -50.434  13.454  20.741  0.00  0.00    -0.204 F 
ATOM     23  C   UNL d   1     -51.064  13.160  21.999  0.00  0.00     0.030 A 
ATOM     24  C   UNL d   1     -51.030  12.824  22.751  0.00  0.00     0.002 A 
ATOM     25  C   UNL d   1     -50.338  12.441  23.009  0.00  0.00     0.001 A 
ENDBRANCH  18  19
ENDBRANCH  17  18
ENDBRANCH   2  17
TORSDOF 6
ENDMDL
MODEL 2
REMARK VINA RESULT:      -6.3      8.717      9.872
REMARK  6 active torsions:
REMARK  status: ('A' for Active; 'I' for Inactive)
REMARK    1  A    between atoms: N_2  and  S_1 
REMARK    2  A    between atoms: C_5  and  S_1 
REMARK    3  A    between atoms: S_8  and  C_3 
REMARK    4  A    between atoms: C_13  and  S_8 
REMARK    5  A    between atoms: C_17  and  C_13 
REMARK    6  A    between atoms: O_21  and  C_15 
ROOT
ATOM      1  N   UNL d   1     -38.721  14.527  18.168  0.00  0.00    -0.208 N 
ATOM      2  C   UNL d   1     -38.431  14.670  18.934  0.00  0.00     0.189 A 
ATOM      3  N   UNL d   1     -37.947  15.342  18.906  0.00  0.00    -0.219 NA
ATOM      4  C   UNL d   1     -38.413  15.115  17.666  0.00  0.00     0.114 A 
ATOM      5  C   UNL d   1     -37.940  15.612  18.123  0.00  0.00     0.121 A 
ENDROOT
BRANCH   1   6
ATOM      6  S   UNL d   1     -39.225  13.909  17.950  0.00  0.00     0.273 S 
ATOM      7  O   UNL d   1     -39.536  13.153  17.818  0.00  0.00    -0.200 OA
ATOM      8  O   UNL d   1     -38.647  13.392  18.208  0.00  0.00    -0.200 OA
BRANCH   6   9
ATOM      9  C   UNL d   1     -39.822  14.415  17.684  0.00  0.00     0.104 A 
ATOM     10  C   UNL d   1     -39.743  14.778  16.951  0.00  0.00     0.015 A 
ATOM     11  C   UNL d   1     -40.345  15.283  16.692  0.00  0.00     0.025 A 
ATOM     12  C   UNL d   1     -41.011  15.416  17.168  0.00  0.00     0.094 A 
ATOM     13  C   UNL d   1     -41.081  15.050  17.897  0.00  0.00     0.025 A 
ATOM     14  C   UNL d   1     -40.480  14.544  18.157  0.00  0.00     0.015 A 
BRANCH  12  15
ATOM     15  O   UNL d   1     -41.605  15.921  16.899  0.00  0.00    -0.328 OA
ATOM     16  C   UNL d   1     -41.940  15.793  16.152  0.00  0.00     0.181 C 
ENDBRANCH  12  15
ENDBRANCH   6   9
ENDBRANCH   1   6
BRANCH   2  17
ATOM     17  S   UNL d   1     -38.598  14.217  19.611  0.00  0.00    -0.049 SA
BRANCH  17  18
ATOM     18  C   UNL d   1     -38.313  14.458  20.346  0.00  0.00     0.038 C 
BRANCH  18  19
ATOM     19  C   UNL d   1     -38.480  14.011  21.017  0.00  0.00     0.009 A 
ATOM     20  C   UNL d   1     -39.195  14.140  21.438  0.00  0.00     0.030 A 
ATOM     21  C   UNL d   1     -39.367  13.698  22.106  0.00  0.00     0.140 A 
ATOM     22  F   UNL d   1     -40.073  13.828  22.519  0.00  0.00    -0.204 F 
ATOM     23  C   UNL d   1     -38.833  13.118  22.370  0.00  0.00     0.030 A 
ATOM     24  C   UNL d   1     -38.131  12.988  21.958  0.00  0.00     0.002 A 
ATOM     25  C   UNL d   1     -37.954  13.436  21.280  0.00  0.00     0.001 A 
ENDBRANCH  18  19
ENDBRANCH  17  18
ENDBRANCH   2  17
TORSDOF 6
ENDMDL
MODEL 3
REMARK VINA RESULT:      -6.2      2.121      4.741
REMARK  6 active torsions:
REMARK  status: ('A' for Active; 'I' for Inactive)
REMARK    1  A    between atoms: N_2  and  S_1 
REMARK    2  A    between atoms: C_5  and  S_1 
REMARK    3  A    between atoms: S_8  and  C_3 
REMARK    4  A    between atoms: C_13  and  S_8 
REMARK    5  A    between atoms: C_17  and  C_13 
REMARK    6  A    between atoms: O_21  and  C_15 
ROOT
ATOM      1  N   UNL d   1     -48.105  13.605  21.947  0.00  0.00    -0.208 N 
ATOM      2  C   UNL d   1     -47.369  13.680  22.327  0.00  0.00     0.189 A 
ATOM      3  N   UNL d   1     -47.398  14.350  22.813  0.00  0.00    -0.219 NA
ATOM      4  C   UNL d   1     -48.589  14.232  22.200  0.00  0.00     0.114 A 
ATOM      5  C   UNL d   1     -48.151  14.686  22.731  0.00  0.00     0.121 A 
ENDROOT
BRANCH   1   6
ATOM      6  S   UNL d   1     -48.313  13.009  21.411  0.00  0.00     0.273 S 
ATOM      7  O   UNL d   1     -48.312  12.497  20.760  0.00  0.00    -0.200 OA
ATOM      8  O   UNL d   1     -47.654  13.218  20.975  0.00  0.00    -0.200 OA
BRANCH   6   9
ATOM      9  C   UNL d   1     -48.983  12.782  21.838  0.00  0.00     0.104 A 
ATOM     10  C   UNL d   1     -48.907  12.229  22.442  0.00  0.00     0.015 A 
ATOM     11  C   UNL d   1     -49.583  12.008  22.864  0.00  0.00     0.025 A 
ATOM     12  C   UNL d   1     -50.319  12.341  22.677  0.00  0.00     0.094 A 
ATOM     13  C   UNL d   1     -50.386  12.891  22.074  0.00  0.00     0.025 A 
ATOM     14  C   UNL d   1     -49.710  13.113  21.651  0.00  0.00     0.015 A 
BRANCH  12  15
ATOM     15  O   UNL d   1     -50.986  12.113  23.105  0.00  0.00    -0.328 OA
ATOM     16  C   UNL d   1     -50.922  11.499  23.659  0.00  0.00     0.181 C 
ENDBRANCH  12  15
ENDBRANCH   6   9
ENDBRANCH   1   6
BRANCH   2  17
ATOM     17  S   UNL d   1     -46.719  13.170  22.235  0.00  0.00    -0.049 SA
BRANCH  17  18
ATOM     18  C   UNL d   1     -46.033  13.298  22.676  0.00  0.00     0.038 C 
BRANCH  18  19
ATOM     19  C   UNL d   1     -45.381  12.808  22.569  0.00  0.00     0.009 A 
ATOM     20  C   UNL d   1     -44.770  13.033  22.038  0.00  0.00     0.030 A 
ATOM     21  C   UNL d   1     -44.119  12.549  21.927  0.00  0.00     0.140 A 
ATOM     22  F   UNL d   1     -43.519  12.775  21.403  0.00  0.00    -0.204 F 
ATOM     23  C   UNL d   1     -44.060  11.830  22.341  0.00  0.00     0.030 A 
ATOM     24  C   UNL d   1     -44.657  11.607  22.863  0.00  0.00     0.002 A 
ATOM     25  C   UNL d   1     -45.320  12.097  22.977  0.00  0.00     0.001 A 
ENDBRANCH  18  19
ENDBRANCH  17  18
ENDBRANCH   2  17
TORSDOF 6
ENDMDL
MODEL 4
REMARK VINA RESULT:      -6.2      7.964      9.439
REMARK  6 active torsions:
REMARK  status: ('A' for Active; 'I' for Inactive)
REMARK    1  A    between atoms: N_2  and  S_1 
REMARK    2  A    between atoms: C_5  and  S_1 
REMARK    3  A    between atoms: S_8  and  C_3 
REMARK    4  A    between atoms: C_13  and  S_8 
REMARK    5  A    between atoms: C_17  and  C_13 
REMARK    6  A    between atoms: O_21  and  C_15 
ROOT
ATOM      1  N   UNL d   1     -39.722  14.871  20.547  0.00  0.00    -0.208 N 
ATOM      2  C   UNL d   1     -39.992  14.553  19.828  0.00  0.00     0.189 A 
ATOM      3  N   UNL d   1     -40.795  14.369  19.913  0.00  0.00    -0.219 NA
ATOM      4  C   UNL d   1     -40.362  14.881  21.078  0.00  0.00     0.114 A 
ATOM      5  C   UNL d   1     -41.018  14.573  20.684  0.00  0.00     0.121 A 
ENDROOT
BRANCH   1   6
ATOM      6  S   UNL d   1     -38.951  15.129  20.702  0.00  0.00     0.273 S 
ATOM      7  O   UNL d   1     -38.239  15.551  20.674  0.00  0.00    -0.200 OA
ATOM      8  O   UNL d   1     -39.060  15.693  20.121  0.00  0.00    -0.200 OA
BRANCH   6   9
ATOM      9  C   UNL d   1     -38.821  14.565  21.293  0.00  0.00     0.104 A 
ATOM     10  C   UNL d   1     -39.102  14.708  22.052  0.00  0.00     0.015 A 
ATOM     11  C   UNL d   1     -38.968  14.138  22.638  0.00  0.00     0.025 A 
ATOM     12  C   UNL d   1     -38.558  13.441  22.454  0.00  0.00     0.094 A 
ATOM     13  C   UNL d   1     -38.282  13.307  21.695  0.00  0.00     0.025 A 
ATOM     14  C   UNL d   1     -38.416  13.876  21.109  0.00  0.00     0.015 A 
BRANCH  12  15
ATOM     15  O   UNL d   1     -38.431  12.880  23.046  0.00  0.00    -0.328 OA
ATOM     16  C   UNL d   1     -37.959  13.079  23.698  0.00  0.00     0.181 C 
ENDBRANCH  12  15
ENDBRANCH   6   9
ENDBRANCH   1   6
BRANCH   2  17
ATOM     17  S   UNL d   1     -39.534  14.441  19.142  0.00  0.00    -0.049 SA
BRANCH  17  18
ATOM     18  C   UNL d   1     -39.885  14.132  18.462  0.00  0.00     0.038 C 
BRANCH  18  19
ATOM     19  C   UNL d   1     -39.427  13.997  17.792  0.00  0.00     0.009 A 
ATOM     20  C   UNL d   1     -39.405  14.569  17.178  0.00  0.00     0.030 A 
ATOM     21  C   UNL d   1     -38.951  14.440  16.508  0.00  0.00     0.140 A 
ATOM     22  F   UNL d   1     -38.932  15.007  15.905  0.00  0.00    -0.204 F 
ATOM     23  C   UNL d   1     -38.509  13.740  16.434  0.00  0.00     0.030 A 
ATOM     24  C   UNL d   1     -38.529  13.176  17.036  0.00  0.00     0.002 A 
ATOM     25  C   UNL d   1     -38.989  13.305  17.716  0.00  0.00     0.001 A 
ENDBRANCH  18  19
ENDBRANCH  17  18
ENDBRANCH   2  17
TORSDOF 6
ENDMDL
MODEL 5
REMARK VINA RESULT:      -6.1      8.347      9.614
REMARK  6 active torsions:
REMARK  status: ('A' for Active; 'I' for Inactive)
REMARK    1  A    between atoms: N_2  and  S_1 
REMARK    2  A    between atoms: C_5  and  S_1 
REMARK    3  A    between atoms: S_8  and  C_3 
REMARK    4  A    between atoms: C_13  and  S_8 
REMARK    5  A    between atoms: C_17  and  C_13 
REMARK    6  A    between atoms: O_21  and  C_15 
ROOT
ATOM      1  N   UNL d   1     -40.469  14.814  18.288  0.00  0.00    -0.208 N 
ATOM      2  C   UNL d   1     -40.442  15.077  19.076  0.00  0.00     0.189 A 
ATOM      3  N   UNL d   1     -40.910  15.758  19.136  0.00  0.00    -0.219 NA
ATOM      4  C   UNL d   1     -40.955  15.336  17.860  0.00  0.00     0.114 A 
ATOM      5  C   UNL d   1     -41.223  15.913  18.385  0.00  0.00     0.121 A 
ENDROOT
BRANCH   1   6
ATOM      6  S   UNL d   1     -40.078  14.149  17.987  0.00  0.00     0.273 S 
ATOM      7  O   UNL d   1     -39.845  13.367  17.846  0.00  0.00    -0.200 OA
ATOM      8  O   UNL d   1     -40.551  13.693  18.474  0.00  0.00    -0.200 OA
BRANCH   6   9
ATOM      9  C   UNL d   1     -39.591  14.592  17.488  0.00  0.00     0.104 A 
ATOM     10  C   UNL d   1     -38.796  14.680  17.678  0.00  0.00     0.015 A 
ATOM     11  C   UNL d   1     -38.314  15.125  17.172  0.00  0.00     0.025 A 
ATOM     12  C   UNL d   1     -38.635  15.472  16.490  0.00  0.00     0.094 A 
ATOM     13  C   UNL d   1     -39.428  15.379  16.309  0.00  0.00     0.025 A 
ATOM     14  C   UNL d   1     -39.910  14.934  16.814  0.00  0.00     0.015 A 
BRANCH  12  15
ATOM     15  O   UNL d   1     -38.146  15.913  15.994  0.00  0.00    -0.328 OA
ATOM     16  C   UNL d   1     -37.940  15.608  15.251  0.00  0.00     0.181 C 
ENDBRANCH  12  15
ENDBRANCH   6   9
ENDBRANCH   1   6
BRANCH   2  17
ATOM     17  S   UNL d   1     -40.020  14.718  19.696  0.00  0.00    -0.049 SA
BRANCH  17  18
ATOM     18  C   UNL d   1     -40.098  15.006  20.465  0.00  0.00     0.038 C 
BRANCH  18  19
ATOM     19  C   UNL d   1     -39.563  14.773  21.045  0.00  0.00     0.009 A 
ATOM     20  C   UNL d   1     -39.668  14.041  21.443  0.00  0.00     0.030 A 
ATOM     21  C   UNL d   1     -39.138  13.804  22.021  0.00  0.00     0.140 A 
ATOM     22  F   UNL d   1     -39.246  13.082  22.411  0.00  0.00    -0.204 F 
ATOM     23  C   UNL d   1     -38.492  14.289  22.216  0.00  0.00     0.030 A 
ATOM     24  C   UNL d   1     -38.386  15.008  21.828  0.00  0.00     0.002 A 
ATOM     25  C   UNL d   1     -38.923  15.251  21.240  0.00  0.00     0.001 A 
ENDBRANCH  18  19
ENDBRANCH  17  18
ENDBRANCH   2  17
TORSDOF 6
ENDMDL
MODEL 6
REMARK VINA RESULT:      -5.7      1.972      4.691
REMARK  6 active torsions:
REMARK  status: ('A' for Active; 'I' for Inactive)
REMARK    1  A    between atoms: N_2  and  S_1 
REMARK    2  A    between atoms: C_5  and  S_1 
REMARK    3  A    between atoms: S_8  and  C_3 
REMARK    4  A    between atoms: C_13  and  S_8 
REMARK    5  A    between atoms: C_17  and  C_13 
REMARK    6  A    between atoms: O_21  and  C_15 
ROOT
ATOM      1  N   UNL d   1     -47.561  13.259  23.075  0.00  0.00    -0.208 N 
ATOM      2  C   UNL d   1     -46.829  13.521  22.781  0.00  0.00     0.189 A 
ATOM      3  N   UNL d   1     -46.864  14.344  22.697  0.00  0.00    -0.219 NA
ATOM      4  C   UNL d   1     -48.050  13.925  23.172  0.00  0.00     0.114 A 
ATOM      5  C   UNL d   1     -47.618  14.588  22.939  0.00  0.00     0.121 A 
ENDROOT
BRANCH   1   6
ATOM      6  S   UNL d   1     -47.763  12.473  23.240  0.00  0.00     0.273 S 
ATOM      7  O   UNL d   1     -47.750  11.701  23.539  0.00  0.00    -0.200 OA
ATOM      8  O   UNL d   1     -47.087  12.432  23.698  0.00  0.00    -0.200 OA
BRANCH   6   9
ATOM      9  C   UNL d   1     -48.450  12.495  22.781  0.00  0.00     0.104 A 
ATOM     10  C   UNL d   1     -48.403  12.320  21.979  0.00  0.00     0.015 A 
ATOM     11  C   UNL d   1     -49.096  12.344  21.527  0.00  0.00     0.025 A 
ATOM     12  C   UNL d   1     -49.819  12.540  21.883  0.00  0.00     0.094 A 
ATOM     13  C   UNL d   1     -49.856  12.713  22.683  0.00  0.00     0.025 A 
ATOM     14  C   UNL d   1     -49.164  12.689  23.135  0.00  0.00     0.015 A 
BRANCH  12  15
ATOM     15  O   UNL d   1     -50.503  12.561  21.422  0.00  0.00    -0.328 OA
ATOM     16  C   UNL d   1     -50.909  13.278  21.332  0.00  0.00     0.181 C 
ENDBRANCH  12  15
ENDBRANCH   6   9
ENDBRANCH   1   6
BRANCH   2  17
ATOM     17  S   UNL d   1     -46.174  13.039  22.603  0.00  0.00    -0.049 SA
BRANCH  17  18
ATOM     18  C   UNL d   1     -45.521  13.362  22.217  0.00  0.00     0.038 C 
BRANCH  18  19
ATOM     19  C   UNL d   1     -44.835  12.916  22.131  0.00  0.00     0.009 A 
ATOM     20  C   UNL d   1     -44.266  13.130  21.552  0.00  0.00     0.030 A 
ATOM     21  C   UNL d   1     -43.581  12.689  21.463  0.00  0.00     0.140 A 
ATOM     22  F   UNL d   1     -43.022  12.904  20.890  0.00  0.00    -0.204 F 
ATOM     23  C   UNL d   1     -43.447  12.026  21.946  0.00  0.00     0.030 A 
ATOM     24  C   UNL d   1     -44.004  11.814  22.515  0.00  0.00     0.002 A 
ATOM     25  C   UNL d   1     -44.700  12.260  22.608  0.00  0.00     0.001 A 
ENDBRANCH  18  19
ENDBRANCH  17  18
ENDBRANCH   2  17
TORSDOF 6
ENDMDL
MODEL 7
REMARK VINA RESULT:      -5.2      2.045      4.575
REMARK  6 active torsions:
REMARK  status: ('A' for Active; 'I' for Inactive)
REMARK    1  A    between atoms: N_2  and  S_1 
REMARK    2  A    between atoms: C_5  and  S_1 
REMARK    3  A    between atoms: S_8  and  C_3 
REMARK    4  A    between atoms: C_13  and  S_8 
REMARK    5  A    between atoms: C_17  and  C_13 
REMARK    6  A    between atoms: O_21  and  C_15 
ROOT
ATOM      1  N   UNL d   1     -47.494  13.206  23.191  0.00  0.00    -0.208 N 
ATOM      2  C   UNL d   1     -46.865  12.669  23.100  0.00  0.00     0.189 A 
ATOM      3  N   UNL d   1     -47.101  11.940  23.414  0.00  0.00    -0.219 NA
ATOM      4  C   UNL d   1     -48.120  12.803  23.563  0.00  0.00     0.114 A 
ATOM      5  C   UNL d   1     -47.874  12.028  23.698  0.00  0.00     0.121 A 
ENDROOT
BRANCH   1   6
ATOM      6  S   UNL d   1     -47.492  13.998  22.952  0.00  0.00     0.273 S 
ATOM      7  O   UNL d   1     -47.268  14.786  22.833  0.00  0.00    -0.200 OA
ATOM      8  O   UNL d   1     -46.765  14.071  23.318  0.00  0.00    -0.200 OA
BRANCH   6   9
ATOM      9  C   UNL d   1     -48.227  13.945  22.577  0.00  0.00     0.104 A 
ATOM     10  C   UNL d   1     -48.901  14.192  22.978  0.00  0.00     0.015 A 
ATOM     11  C   UNL d   1     -49.633  14.135  22.595  0.00  0.00     0.025 A 
ATOM     12  C   UNL d   1     -49.677  13.834  21.823  0.00  0.00     0.094 A 
ATOM     13  C   UNL d   1     -49.000  13.591  21.432  0.00  0.00     0.025 A 
ATOM     14  C   UNL d   1     -48.268  13.647  21.814  0.00  0.00     0.015 A 
BRANCH  12  15
ATOM     15  O   UNL d   1     -50.412  13.783  21.452  0.00  0.00    -0.328 OA
ATOM     16  C   UNL d   1     -50.768  13.039  21.359  0.00  0.00     0.181 C 
ENDBRANCH  12  15
ENDBRANCH   6   9
ENDBRANCH   1   6
BRANCH   2  17
ATOM     17  S   UNL d   1     -46.128  12.838  22.754  0.00  0.00    -0.049 SA
BRANCH  17  18
ATOM     18  C   UNL d   1     -45.561  12.242  22.689  0.00  0.00     0.038 C 
BRANCH  18  19
ATOM     19  C   UNL d   1     -44.843  12.400  22.320  0.00  0.00     0.009 A 
ATOM     20  C   UNL d   1     -44.160  11.956  22.525  0.00  0.00     0.030 A 
ATOM     21  C   UNL d   1     -43.442  12.110  22.160  0.00  0.00     0.140 A 
ATOM     22  F   UNL d   1     -42.772  11.670  22.365  0.00  0.00    -0.204 F 
ATOM     23  C   UNL d   1     -43.387  12.707  21.584  0.00  0.00     0.030 A 
ATOM     24  C   UNL d   1     -44.056  13.144  21.381  0.00  0.00     0.002 A 
ATOM     25  C   UNL d   1     -44.786  12.991  21.750  0.00  0.00     0.001 A 
ENDBRANCH  18  19
ENDBRANCH  17  18
ENDBRANCH   2  17
TORSDOF 6
ENDMDL
MODEL 8
REMARK VINA RESULT:      -4.5      9.072      9.898
REMARK  6 active torsions:
REMARK  status: ('A' for Active; 'I' for Inactive)
REMARK    1  A    between atoms: N_2  and  S_1 
REMARK    2  A    between atoms: C_5  and  S_1 
REMARK    3  A    between atoms: S_8  and  C_3 
REMARK    4  A    between atoms: C_13  and  S_8 
REMARK    5  A    between atoms: C_17  and  C_13 
REMARK    6  A    between atoms: O_21  and  C_15 
ROOT
ATOM      1  N   UNL d   1     -39.047  15.151  18.577  0.00  0.00    -0.208 N 
ATOM      2  C   UNL d   1     -38.693  15.443  19.270  0.00  0.00     0.189 A 
ATOM      3  N   UNL d   1     -38.028  15.886  19.054  0.00  0.00    -0.219 NA
ATOM      4  C   UNL d   1     -38.596  15.416  17.930  0.00  0.00     0.114 A 
ATOM      5  C   UNL d   1     -37.972  15.866  18.227  0.00  0.00     0.121 A 
ENDROOT
BRANCH   1   6
ATOM      6  S   UNL d   1     -39.727  14.681  18.542  0.00  0.00     0.273 S 
ATOM      7  O   UNL d   1     -40.506  14.413  18.623  0.00  0.00    -0.200 OA
ATOM      8  O   UNL d   1     -40.124  15.288  18.918  0.00  0.00    -0.200 OA
BRANCH   6   9
ATOM      9  C   UNL d   1     -39.343  14.056  18.161  0.00  0.00     0.104 A 
ATOM     10  C   UNL d   1     -39.429  13.968  17.348  0.00  0.00     0.015 A 
ATOM     11  C   UNL d   1     -39.042  13.339  16.974  0.00  0.00     0.025 A 
ATOM     12  C   UNL d   1     -38.578  12.814  17.417  0.00  0.00     0.094 A 
ATOM     13  C   UNL d   1     -38.498  12.909  18.226  0.00  0.00     0.025 A 
ATOM     14  C   UNL d   1     -38.885  13.537  18.601  0.00  0.00     0.015 A 
BRANCH  12  15
ATOM     15  O   UNL d   1     -38.196  12.191  17.033  0.00  0.00    -0.328 OA
ATOM     16  C   UNL d   1     -37.945  11.536  17.475  0.00  0.00     0.181 C 
ENDBRANCH  12  15
ENDBRANCH   6   9
ENDBRANCH   1   6
BRANCH   2  17
ATOM     17  S   UNL d   1     -38.963  15.312  20.046  0.00  0.00    -0.049 SA
BRANCH  17  18
ATOM     18  C   UNL d   1     -38.497  15.546  20.686  0.00  0.00     0.038 C 
BRANCH  18  19
ATOM     19  C   UNL d   1     -38.720  15.341  21.451  0.00  0.00     0.009 A 
ATOM     20  C   UNL d   1     -38.778  14.531  21.667  0.00  0.00     0.030 A 
ATOM     21  C   UNL d   1     -39.000  14.322  22.427  0.00  0.00     0.140 A 
ATOM     22  F   UNL d   1     -39.056  13.522  22.636  0.00  0.00    -0.204 F 
ATOM     23  C   UNL d   1     -39.169  14.911  22.989  0.00  0.00     0.030 A 
ATOM     24  C   UNL d   1     -39.113  15.706  22.779  0.00  0.00     0.002 A 
ATOM     25  C   UNL d   1     -38.888  15.922  22.008  0.00  0.00     0.001 A 
ENDBRANCH  18  19
ENDBRANCH  17  18
ENDBRANCH   2  17
TORSDOF 6
ENDMDL
