MODEL 1
REMARK VINA RESULT:      -3.2      0.000      0.000
REMARK  5 active torsions:
REMARK  status: ('A' for Active; 'I' for Inactive)
REMARK    1  A    between atoms: O_5  and  C_1 
REMARK    2  A    between atoms: C_10  and  C_2 
REMARK    3  A    between atoms: C_3  and  O_5 
REMARK    4  A    between atoms: C_6  and  C_3 
REMARK    5  A    between atoms: N_11  and  C_10 
ROOT
ATOM      1  C   UNL d   1      59.127  -0.654  29.953  0.00  0.00     0.122 A 
ATOM      2  C   UNL d   1      59.133  -1.084  29.249  0.00  0.00     0.043 A 
ATOM      3  C   UNL d   1      59.787  -0.208  30.168  0.00  0.00     0.105 A 
ATOM      4  C   UNL d   1      60.451  -0.192  29.681  0.00  0.00     0.030 A 
ATOM      5  C   UNL d   1      60.449  -0.623  28.983  0.00  0.00     0.059 A 
ATOM      6  C   UNL d   1      59.797  -1.069  28.762  0.00  0.00     0.015 A 
ATOM      7  N   UNL d   1      59.777   0.217  30.867  0.00  0.00    -0.242 NA
ATOM      8 CL   UNL d   1      61.133  -0.592  28.505  0.00  0.00    -0.082 Cl
ATOM      9  C   UNL d   1      61.099   0.249  29.897  0.00  0.00     0.004 A 
ATOM     10  C   UNL d   1      60.437   0.663  31.082  0.00  0.00     0.099 A 
ATOM     11  C   UNL d   1      61.101   0.679  30.594  0.00  0.00     0.021 A 
ENDROOT
BRANCH   1  12
ATOM     12  O   UNL d   1      58.530  -0.662  30.402  0.00  0.00    -0.271 OA
BRANCH  12  13
ATOM     13  C   UNL d   1      57.686  -0.214  30.532  0.00  0.00     0.302 C 
ATOM     14  O   UNL d   1      57.348   0.267  29.718  0.00  0.00    -0.259 OA
BRANCH  13  15
ATOM     15  C   UNL d   1      57.294  -0.239  31.256  0.00  0.00     0.091 A 
ATOM     16  C   UNL d   1      56.929  -0.944  31.505  0.00  0.00     0.145 A 
ATOM     17  F   UNL d   1      56.927  -1.687  31.043  0.00  0.00    -0.204 F 
ATOM     18  C   UNL d   1      56.533  -0.966  32.239  0.00  0.00     0.030 A 
ATOM     19  C   UNL d   1      56.502  -0.286  32.724  0.00  0.00     0.002 A 
ATOM     20  C   UNL d   1      56.868   0.415  32.472  0.00  0.00     0.000 A 
ATOM     21  C   UNL d   1      57.263   0.436  31.738  0.00  0.00     0.008 A 
ENDBRANCH  13  15
ENDBRANCH  12  13
ENDBRANCH   1  12
BRANCH   2  22
ATOM     22  C   UNL d   1      58.515  -1.622  28.853  0.00  0.00     0.082 C 
BRANCH  22  23
ATOM     23  N   UNL d   1      58.653  -2.430  28.808  0.00  0.00    -0.299 N 
ATOM     24  C   UNL d   1      58.055  -2.930  28.562  0.00  0.00     0.107 A 
ATOM     25  C   UNL d   1      58.180  -3.746  28.512  0.00  0.00     0.142 A 
ATOM     26  O   UNL d   1      58.911  -4.048  28.711  0.00  0.00    -0.300 OA
ATOM     27  C   UNL d   1      59.520  -3.543  28.961  0.00  0.00     0.142 A 
ATOM     28  C   UNL d   1      59.380  -2.737  29.005  0.00  0.00     0.107 A 
ENDBRANCH  22  23
ENDBRANCH   2  22
TORSDOF 5
ENDMDL
