MODEL 1
REMARK VINA RESULT:      22.6      0.000      0.000
REMARK  1 active torsions:
REMARK  status: ('A' for Active; 'I' for Inactive)
REMARK    1  A    between atoms: C_7  and  C_1 
ROOT
ATOM      1  C   UNL d   1     -56.273 -98.778 -44.732  0.00  0.00     0.122 A 
ATOM      2  C   UNL d   1     -57.482 -98.773 -43.951  0.00  0.00     0.057 A 
ATOM      3  C   UNL d   1     -57.930 -98.767 -44.645  0.00  0.00     0.085 A 
ATOM      4  C   UNL d   1     -56.658 -98.778 -43.994  0.00  0.00     0.204 A 
ATOM      5  N   UNL d   1     -57.538 -98.767 -45.381  0.00  0.00    -0.244 NA
ATOM      6  C   UNL d   1     -58.752 -98.761 -44.610  0.00  0.00     0.028 A 
ATOM      7  C   UNL d   1     -56.722 -98.772 -45.426  0.00  0.00     0.108 A 
ATOM      8  C   UNL d   1     -57.854 -98.773 -43.221  0.00  0.00     0.006 A 
ATOM      9  C   UNL d   1     -59.118 -98.762 -43.882  0.00  0.00     0.059 A 
ATOM     10  C   UNL d   1     -58.673 -98.767 -43.192  0.00  0.00     0.012 A 
ATOM     11  O   UNL d   1     -56.212 -98.784 -43.304  0.00  0.00    -0.286 OA
ATOM     12 CL   UNL d   1     -59.951 -98.756 -43.835  0.00  0.00    -0.082 Cl
ATOM     13  C   UNL d   1     -59.207 -98.756 -45.314  0.00  0.00     0.002 C 
ENDROOT
BRANCH   1  14
ATOM     14  C   UNL d   1     -55.441 -98.784 -44.763  0.00  0.00     0.216 C 
ATOM     15  O   UNL d   1     -54.991 -98.756 -44.069  0.00  0.00    -0.644 OA
ATOM     16  O   UNL d   1     -55.058 -98.818 -45.501  0.00  0.00    -0.644 OA
ENDBRANCH   1  14
TORSDOF 1
ENDMDL
