MODEL 1
REMARK VINA RESULT:      29.2      0.000      0.000
REMARK  1 active torsions:
REMARK  status: ('A' for Active; 'I' for Inactive)
REMARK    1  A    between atoms: C_9  and  C_1 
ROOT
ATOM      1  C   UNL d   1      13.687  12.592  -3.119  0.00  0.00     0.087 A 
ATOM      2  N   UNL d   1      13.387  12.017  -3.663  0.00  0.00    -0.191 NA
ATOM      3  C   UNL d   1      13.703  13.383  -3.323  0.00  0.00     0.036 A 
ATOM      4  C   UNL d   1      13.105  12.300  -4.428  0.00  0.00     0.369 A 
ATOM      5  N   UNL d   1      13.145  13.135  -4.587  0.00  0.00    -0.191 NA
ATOM      6  C   UNL d   1      13.435  13.652  -4.050  0.00  0.00     0.088 A 
ATOM      7  C   UNL d   1      14.011  13.919  -2.748  0.00  0.00     0.014 A 
ATOM      8  O   UNL d   1      12.781  11.780  -5.046  0.00  0.00    -0.242 OA
ATOM      9  C   UNL d   1      13.469  14.462  -4.216  0.00  0.00     0.020 A 
ATOM     10  C   UNL d   1      14.046  14.716  -2.908  0.00  0.00     0.058 A 
ATOM     11  C   UNL d   1      13.763  14.999  -3.673  0.00  0.00     0.013 A 
ATOM     12 CL   UNL d   1      14.361  15.245  -2.314  0.00  0.00    -0.082 Cl
ENDROOT
BRANCH   1  13
ATOM     13  C   UNL d   1      13.945  12.333  -2.421  0.00  0.00     0.018 A 
ATOM     14  C   UNL d   1      13.405  12.057  -1.870  0.00  0.00     0.002 A 
ATOM     15  C   UNL d   1      13.634  11.779  -1.131  0.00  0.00     0.000 A 
ATOM     16  C   UNL d   1      14.498  11.780  -0.924  0.00  0.00     0.000 A 
ATOM     17  C   UNL d   1      15.025  12.062  -1.492  0.00  0.00     0.000 A 
ATOM     18  C   UNL d   1      14.753  12.335  -2.229  0.00  0.00     0.002 A 
ENDBRANCH   1  13
TORSDOF 1
ENDMDL
