MODEL 1
REMARK VINA RESULT:      -9.7      0.000      0.000
REMARK  5 active torsions:
REMARK  status: ('A' for Active; 'I' for Inactive)
REMARK    1  A    between atoms: C_12  and  N_3 
REMARK    2  A    between atoms: C_11  and  C_5 
REMARK       I    between atoms: N_16  and  C_11 
REMARK    3  A    between atoms: C_15  and  C_12 
REMARK    4  A    between atoms: C_26  and  N_16 
REMARK    5  A    between atoms: C_27  and  C_26 
ROOT
ATOM      1  C   UNL d   1      52.607  33.213  53.831  0.00  0.00     0.155 A 
ATOM      2  C   UNL d   1      52.587  34.036  53.693  0.00  0.00     0.091 A 
ATOM      3  N   UNL d   1      52.037  32.731  53.488  0.00  0.00    -0.272 N 
ATOM      4  N   UNL d   1      53.195  32.896  54.308  0.00  0.00    -0.210 NA
ATOM      5  C   UNL d   1      51.426  33.871  52.872  0.00  0.00     0.094 A 
ATOM      6  C   UNL d   1      51.446  33.056  53.008  0.00  0.00     0.175 A 
ATOM      7  C   UNL d   1      53.156  34.526  54.035  0.00  0.00     0.269 A 
ATOM      8  N   UNL d   1      53.745  34.194  54.514  0.00  0.00    -0.258 N 
ATOM      9  C   UNL d   1      53.761  33.378  54.648  0.00  0.00     0.152 A 
ATOM     10  C   UNL d   1      51.998  34.361  53.216  0.00  0.00     0.016 A 
ATOM     11  N   UNL d   1      50.876  32.566  52.667  0.00  0.00    -0.128 N 
ATOM     12  C   UNL d   1      54.314  34.691  54.855  0.00  0.00     0.084 A 
ATOM     13  O   UNL d   1      53.143  35.342  53.903  0.00  0.00    -0.266 OA
ATOM     14  C   UNL d   1      54.353  33.061  55.127  0.00  0.00     0.038 A 
ATOM     15  C   UNL d   1      54.899  34.358  55.331  0.00  0.00     0.019 A 
ATOM     16  C   UNL d   1      54.919  33.543  55.468  0.00  0.00     0.005 A 
ENDROOT
BRANCH   5  17
ATOM     17  C   UNL d   1      50.837  34.196  52.394  0.00  0.00     0.282 C 
ATOM     18  N   UNL d   1      50.167  34.532  52.738  0.00  0.00    -0.206 NA
ATOM     19  O   UNL d   1      50.919  34.184  51.571  0.00  0.00    -0.265 OA
BRANCH  18  20
ATOM     20  C   UNL d   1      49.572  34.861  52.259  0.00  0.00     0.102 C 
BRANCH  20  21
ATOM     21  C   UNL d   1      48.946  35.276  52.601  0.00  0.00     0.019 A 
ATOM     22  C   UNL d   1      48.998  35.529  53.387  0.00  0.00     0.002 A 
ATOM     23  C   UNL d   1      48.373  35.944  53.729  0.00  0.00     0.000 A 
ATOM     24  C   UNL d   1      47.692  36.108  53.287  0.00  0.00     0.000 A 
ATOM     25  C   UNL d   1      47.644  35.853  52.501  0.00  0.00     0.000 A 
ATOM     26  C   UNL d   1      47.067  36.523  53.629  0.00  0.00     0.000 C 
ATOM     27  C   UNL d   1      48.269  35.438  52.159  0.00  0.00     0.002 A 
ENDBRANCH  20  21
ENDBRANCH  18  20
ENDBRANCH   5  17
BRANCH   3  28
ATOM     28  C   UNL d   1      52.057  31.916  53.625  0.00  0.00     0.107 C 
BRANCH  28  29
ATOM     29  C   UNL d   1      52.452  31.418  53.099  0.00  0.00     0.118 A 
ATOM     30  O   UNL d   1      52.870  31.349  52.398  0.00  0.00    -0.304 OA
ATOM     31  C   UNL d   1      53.076  30.561  52.289  0.00  0.00     0.123 A 
ATOM     32  C   UNL d   1      52.781  30.133  52.930  0.00  0.00     0.029 A 
ATOM     33  C   UNL d   1      52.395  30.661  53.432  0.00  0.00     0.028 A 
ENDBRANCH  28  29
ENDBRANCH   3  28
TORSDOF 5
ENDMDL
MODEL 2
REMARK VINA RESULT:      -8.5      1.139      3.062
REMARK  5 active torsions:
REMARK  status: ('A' for Active; 'I' for Inactive)
REMARK    1  A    between atoms: C_12  and  N_3 
REMARK    2  A    between atoms: C_11  and  C_5 
REMARK       I    between atoms: N_16  and  C_11 
REMARK    3  A    between atoms: C_15  and  C_12 
REMARK    4  A    between atoms: C_26  and  N_16 
REMARK    5  A    between atoms: C_27  and  C_26 
ROOT
ATOM      1  C   UNL d   1      53.018  32.432  53.438  0.00  0.00     0.155 A 
ATOM      2  C   UNL d   1      52.204  32.278  53.329  0.00  0.00     0.091 A 
ATOM      3  N   UNL d   1      53.278  33.207  53.505  0.00  0.00    -0.272 N 
ATOM      4  N   UNL d   1      53.546  31.805  53.478  0.00  0.00    -0.210 NA
ATOM      5  C   UNL d   1      51.935  33.684  53.356  0.00  0.00     0.094 A 
ATOM      6  C   UNL d   1      52.741  33.836  53.465  0.00  0.00     0.175 A 
ATOM      7  C   UNL d   1      51.936  31.501  53.261  0.00  0.00     0.269 A 
ATOM      8  N   UNL d   1      52.480  30.877  53.303  0.00  0.00    -0.258 N 
ATOM      9  C   UNL d   1      53.285  31.033  53.412  0.00  0.00     0.152 A 
ATOM     10  C   UNL d   1      51.668  32.903  53.288  0.00  0.00     0.016 A 
ATOM     11  N   UNL d   1      53.009  34.614  53.532  0.00  0.00    -0.128 N 
ATOM     12  C   UNL d   1      52.205  30.099  53.234  0.00  0.00     0.084 A 
ATOM     13  O   UNL d   1      51.132  31.341  53.153  0.00  0.00    -0.266 OA
ATOM     14  C   UNL d   1      53.815  30.403  53.451  0.00  0.00     0.038 A 
ATOM     15  C   UNL d   1      52.748  29.479  53.276  0.00  0.00     0.019 A 
ATOM     16  C   UNL d   1      53.554  29.631  53.385  0.00  0.00     0.005 A 
ENDROOT
BRANCH   5  17
ATOM     17  C   UNL d   1      51.399  34.310  53.315  0.00  0.00     0.282 C 
ATOM     18  N   UNL d   1      50.714  34.235  52.861  0.00  0.00    -0.206 NA
ATOM     19  O   UNL d   1      51.547  35.010  53.730  0.00  0.00    -0.265 OA
BRANCH  18  20
ATOM     20  C   UNL d   1      50.171  34.864  52.817  0.00  0.00     0.102 C 
BRANCH  20  21
ATOM     21  C   UNL d   1      49.545  34.834  52.281  0.00  0.00     0.019 A 
ATOM     22  C   UNL d   1      49.640  34.453  51.554  0.00  0.00     0.002 A 
ATOM     23  C   UNL d   1      49.014  34.423  51.018  0.00  0.00     0.000 A 
ATOM     24  C   UNL d   1      48.289  34.775  51.208  0.00  0.00     0.000 A 
ATOM     25  C   UNL d   1      48.197  35.155  51.936  0.00  0.00     0.000 A 
ATOM     26  C   UNL d   1      47.662  34.745  50.672  0.00  0.00     0.000 C 
ATOM     27  C   UNL d   1      48.823  35.185  52.472  0.00  0.00     0.002 A 
ENDBRANCH  20  21
ENDBRANCH  18  20
ENDBRANCH   5  17
BRANCH   3  28
ATOM     28  C   UNL d   1      54.084  33.359  53.614  0.00  0.00     0.107 C 
BRANCH  28  29
ATOM     29  C   UNL d   1      54.381  33.488  54.372  0.00  0.00     0.118 A 
ATOM     30  O   UNL d   1      54.229  33.517  55.176  0.00  0.00    -0.304 OA
ATOM     31  C   UNL d   1      54.924  33.709  55.571  0.00  0.00     0.123 A 
ATOM     32  C   UNL d   1      55.518  33.801  55.005  0.00  0.00     0.029 A 
ATOM     33  C   UNL d   1      55.185  33.665  54.263  0.00  0.00     0.028 A 
ENDBRANCH  28  29
ENDBRANCH   3  28
TORSDOF 5
ENDMDL
