MODEL 1
REMARK VINA RESULT:      10.5      0.000      0.000
REMARK  2 active torsions:
REMARK  status: ('A' for Active; 'I' for Inactive)
REMARK    1  A    between atoms: C_2  and  S_1 
REMARK    2  A    between atoms: N_4  and  S_1 
ROOT
ATOM      1  S   UNL d   1     -51.790  25.154  33.329  0.00  0.00     0.275 S 
ATOM      2  O   UNL d   1     -52.457  25.632  33.351  0.00  0.00    -0.199 OA
ATOM      3  O   UNL d   1     -51.121  24.680  33.307  0.00  0.00    -0.199 OA
ENDROOT
BRANCH   1   4
ATOM      4  C   UNL d   1     -52.254  24.477  33.328  0.00  0.00     0.143 A 
ATOM      5  C   UNL d   1     -51.968  23.703  33.337  0.00  0.00     0.117 A 
ATOM      6  N   UNL d   1     -52.618  23.196  33.332  0.00  0.00    -0.147 NA
ATOM      7  C   UNL d   1     -51.176  23.472  33.348  0.00  0.00     0.023 C 
ATOM      8  N   UNL d   1     -53.302  23.661  33.321  0.00  0.00    -0.147 NA
ATOM      9  C   UNL d   1     -53.070  24.447  33.318  0.00  0.00     0.117 A 
ATOM     10  C   UNL d   1     -53.576  25.097  33.308  0.00  0.00     0.023 C 
ENDBRANCH   1   4
BRANCH   1  11
ATOM     11  N   UNL d   1     -51.293  25.816  33.329  0.00  0.00    -0.225 N 
ATOM     12  C   UNL d   1     -50.465  25.715  33.348  0.00  0.00     0.118 A 
ATOM     13  C   UNL d   1     -49.969  26.378  33.348  0.00  0.00     0.142 A 
ATOM     14  O   UNL d   1     -50.289  27.136  33.329  0.00  0.00    -0.300 OA
ATOM     15  C   UNL d   1     -51.109  27.238  33.310  0.00  0.00     0.142 A 
ATOM     16  C   UNL d   1     -51.613  26.578  33.310  0.00  0.00     0.118 A 
ENDBRANCH   1  11
TORSDOF 2
ENDMDL
MODEL 2
REMARK VINA RESULT:      10.5      0.461      1.439
REMARK  2 active torsions:
REMARK  status: ('A' for Active; 'I' for Inactive)
REMARK    1  A    between atoms: C_2  and  S_1 
REMARK    2  A    between atoms: N_4  and  S_1 
ROOT
ATOM      1  S   UNL d   1     -52.104  24.954  33.332  0.00  0.00     0.275 S 
ATOM      2  O   UNL d   1     -52.674  25.544  33.306  0.00  0.00    -0.199 OA
ATOM      3  O   UNL d   1     -51.531  24.366  33.357  0.00  0.00    -0.199 OA
ENDROOT
BRANCH   1   4
ATOM      4  C   UNL d   1     -52.682  24.371  33.328  0.00  0.00     0.143 A 
ATOM      5  C   UNL d   1     -53.497  24.508  33.319  0.00  0.00     0.117 A 
ATOM      6  N   UNL d   1     -53.873  23.775  33.318  0.00  0.00    -0.147 NA
ATOM      7  C   UNL d   1     -53.872  25.243  33.313  0.00  0.00     0.023 C 
ATOM      8  N   UNL d   1     -53.288  23.190  33.325  0.00  0.00    -0.147 NA
ATOM      9  C   UNL d   1     -52.559  23.564  33.331  0.00  0.00     0.117 A 
ATOM     10  C   UNL d   1     -51.826  23.188  33.339  0.00  0.00     0.023 C 
ENDBRANCH   1   4
BRANCH   1  11
ATOM     11  N   UNL d   1     -51.496  25.515  33.337  0.00  0.00    -0.225 N 
ATOM     12  C   UNL d   1     -51.680  26.328  33.374  0.00  0.00     0.118 A 
ATOM     13  C   UNL d   1     -51.072  26.889  33.379  0.00  0.00     0.142 A 
ATOM     14  O   UNL d   1     -50.285  26.648  33.348  0.00  0.00    -0.300 OA
ATOM     15  C   UNL d   1     -50.101  25.844  33.312  0.00  0.00     0.142 A 
ATOM     16  C   UNL d   1     -50.705  25.275  33.306  0.00  0.00     0.118 A 
ENDBRANCH   1  11
TORSDOF 2
ENDMDL
