MODEL 1
REMARK VINA RESULT:      54.0      0.000      0.000
REMARK  5 active torsions:
REMARK  status: ('A' for Active; 'I' for Inactive)
REMARK    1  A    between atoms: N_2  and  S_1 
REMARK    2  A    between atoms: C_5  and  S_1 
REMARK    3  A    between atoms: C_3  and  N_2 
REMARK    4  A    between atoms: C_4  and  C_3 
REMARK       I    between atoms: N_8  and  C_4 
REMARK    5  A    between atoms: C_12  and  N_8 
ROOT
ATOM      1  N   UNL d   1     -49.634  27.260  33.832  0.00  0.00    -0.223 N 
ATOM      2  C   UNL d   1     -49.987  27.890  33.429  0.00  0.00     0.112 C 
ENDROOT
BRANCH   1   3
ATOM      3  S   UNL d   1     -49.725  26.493  33.544  0.00  0.00     0.272 S 
ATOM      4  O   UNL d   1     -49.062  26.057  33.313  0.00  0.00    -0.200 OA
ATOM      5  O   UNL d   1     -50.240  27.073  33.817  0.00  0.00    -0.200 OA
BRANCH   3   6
ATOM      6  C   UNL d   1     -50.478  26.157  33.484  0.00  0.00     0.104 A 
ATOM      7  C   UNL d   1     -51.150  26.638  33.459  0.00  0.00     0.013 A 
ATOM      8  C   UNL d   1     -51.904  26.293  33.399  0.00  0.00     0.001 A 
ATOM      9  C   UNL d   1     -51.983  25.472  33.366  0.00  0.00     0.000 A 
ATOM     10  C   UNL d   1     -51.311  24.990  33.391  0.00  0.00     0.001 A 
ATOM     11  C   UNL d   1     -52.733  25.133  33.307  0.00  0.00     0.000 C 
ATOM     12  C   UNL d   1     -50.562  25.330  33.450  0.00  0.00     0.013 A 
ENDBRANCH   3   6
ENDBRANCH   1   3
BRANCH   1  13
ATOM     13  C   UNL d   1     -49.196  27.401  34.517  0.00  0.00     0.154 C 
BRANCH  13  14
ATOM     14  C   UNL d   1     -48.832  28.132  34.628  0.00  0.00     0.298 C 
ATOM     15  N   UNL d   1     -48.389  28.269  35.313  0.00  0.00    -0.207 NA
ATOM     16  O   UNL d   1     -48.910  28.725  34.057  0.00  0.00    -0.264 OA
BRANCH  15  17
ATOM     17  C   UNL d   1     -48.025  29.000  35.425  0.00  0.00     0.085 A 
ATOM     18  C   UNL d   1     -47.211  29.068  35.356  0.00  0.00     0.019 A 
ATOM     19  C   UNL d   1     -46.847  29.800  35.467  0.00  0.00     0.002 A 
ATOM     20  C   UNL d   1     -47.303  30.463  35.648  0.00  0.00     0.000 A 
ATOM     21  C   UNL d   1     -48.124  30.391  35.717  0.00  0.00     0.002 A 
ATOM     22  C   UNL d   1     -48.480  29.660  35.605  0.00  0.00     0.019 A 
ENDBRANCH  15  17
ENDBRANCH  13  14
ENDBRANCH   1  13
TORSDOF 5
ENDMDL
