MODEL 1
REMARK VINA RESULT:      40.0      0.000      0.000
REMARK  3 active torsions:
REMARK  status: ('A' for Active; 'I' for Inactive)
REMARK    1  A    between atoms: C_6  and  C_16 
REMARK    2  A    between atoms: S_14  and  C_8 
REMARK    3  A    between atoms: C_16  and  S_14 
ROOT
ATOM      1  C   UNL d   1      13.197  13.201  -4.217  0.00  0.00     0.141 A 
ATOM      2  O   UNL d   1      13.169  13.936  -3.844  0.00  0.00    -0.303 OA
ATOM      3  C   UNL d   1      13.433  13.319  -4.998  0.00  0.00     0.110 A 
ATOM      4  C   UNL d   1      13.551  14.128  -5.109  0.00  0.00     0.043 A 
ATOM      5  C   UNL d   1      13.038  12.436  -3.946  0.00  0.00     0.137 A 
ATOM      6  C   UNL d   1      13.388  14.509  -4.396  0.00  0.00     0.102 A 
ATOM      7  N   UNL d   1      13.116  11.793  -4.457  0.00  0.00    -0.215 NA
ATOM      8  N   UNL d   1      13.511  12.676  -5.510  0.00  0.00    -0.222 NA
ATOM      9  C   UNL d   1      13.352  11.912  -5.238  0.00  0.00     0.200 A 
ATOM     10  C   UNL d   1      13.787  14.567  -5.767  0.00  0.00     0.004 A 
ATOM     11  C   UNL d   1      13.460  15.330  -4.341  0.00  0.00     0.025 A 
ATOM     12  C   UNL d   1      13.858  15.388  -5.712  0.00  0.00     0.000 A 
ATOM     13  C   UNL d   1      13.695  15.769  -4.998  0.00  0.00     0.002 A 
ENDROOT
BRANCH   5  14
ATOM     14  S   UNL d   1      12.802  12.318  -3.164  0.00  0.00    -0.062 SA
BRANCH  14  15
ATOM     15  C   UNL d   1      13.210  11.782  -2.687  0.00  0.00     0.076 C 
BRANCH  15  16
ATOM     16  C   UNL d   1      13.736  12.058  -2.116  0.00  0.00     0.169 A 
ATOM     17  N   UNL d   1      14.560  12.013  -2.150  0.00  0.00    -0.225 NA
ATOM     18  C   UNL d   1      14.864  12.355  -1.465  0.00  0.00     0.101 A 
ATOM     19  C   UNL d   1      15.636  12.466  -1.199  0.00  0.00     0.021 A 
ATOM     20  C   UNL d   1      14.229  12.614  -1.005  0.00  0.00     0.101 A 
ATOM     21  C   UNL d   1      15.774  12.836  -0.473  0.00  0.00     0.002 A 
ATOM     22  C   UNL d   1      15.140  13.093  -0.015  0.00  0.00     0.002 A 
ATOM     23  C   UNL d   1      14.367  12.982  -0.281  0.00  0.00     0.021 A 
ATOM     24  N   UNL d   1      13.532  12.430  -1.408  0.00  0.00    -0.225 NA
ENDBRANCH  15  16
ENDBRANCH  14  15
ENDBRANCH   5  14
TORSDOF 3
ENDMDL
