MODEL 1
REMARK VINA RESULT:      -3.2      0.000      0.000
REMARK  5 active torsions:
REMARK  status: ('A' for Active; 'I' for Inactive)
REMARK    1  A    between atoms: C_2  and  S_1 
REMARK    2  A    between atoms: N_3  and  S_1 
REMARK    3  A    between atoms: C_4  and  N_3 
REMARK    4  A    between atoms: O_16  and  C_9 
REMARK    5  A    between atoms: O_17  and  C_14 
ROOT
ATOM      1  C   UNL d   1     -41.557-122.935 -51.494  0.00  0.00     0.118 A 
ATOM      2  C   UNL d   1     -41.451-122.198 -51.140  0.00  0.00     0.046 A 
ATOM      3  C   UNL d   1     -41.445-123.023 -52.305  0.00  0.00     0.113 A 
ATOM      4  C   UNL d   1     -41.228-122.371 -52.765  0.00  0.00     0.028 A 
ATOM      5  C   UNL d   1     -41.235-121.548 -51.596  0.00  0.00     0.096 A 
ATOM      6  C   UNL d   1     -41.123-121.634 -52.411  0.00  0.00     0.026 A 
ENDROOT
BRANCH   1   7
ATOM      7  N   UNL d   1     -41.777-123.600 -51.036  0.00  0.00    -0.156 NA
BRANCH   7   8
ATOM      8  S   UNL d   1     -41.943-123.509 -50.220  0.00  0.00     0.291 S 
ATOM      9  O   UNL d   1     -41.199-123.817 -50.042  0.00  0.00    -0.198 OA
ATOM     10  O   UNL d   1     -42.685-123.200 -50.406  0.00  0.00    -0.198 OA
BRANCH   8  11
ATOM     11  C   UNL d   1     -42.104-123.420 -49.416  0.00  0.00     0.135 A 
ATOM     12  S   UNL d   1     -42.750-123.621 -49.160  0.00  0.00    -0.073 SA
ATOM     13  C   UNL d   1     -42.879-123.538 -48.452  0.00  0.00     0.036 A 
ATOM     14  C   UNL d   1     -42.377-123.261 -48.013  0.00  0.00     0.008 A 
ATOM     15  C   UNL d   1     -41.608-123.146 -48.978  0.00  0.00     0.020 A 
ENDBRANCH   8  11
ENDBRANCH   7   8
ENDBRANCH   1   7
BRANCH   3  16
ATOM     16  O   UNL d   1     -41.551-123.760 -52.659  0.00  0.00    -0.327 OA
ATOM     17  C   UNL d   1     -41.635-123.817 -53.476  0.00  0.00     0.181 C 
ENDBRANCH   3  16
BRANCH   5  18
ATOM     18  O   UNL d   1     -41.129-120.810 -51.241  0.00  0.00    -0.328 OA
ATOM     19  C   UNL d   1     -41.129-120.128 -51.701  0.00  0.00     0.181 C 
ENDBRANCH   5  18
TORSDOF 5
ENDMDL
MODEL 2
REMARK VINA RESULT:      -2.3      0.757      1.987
REMARK  5 active torsions:
REMARK  status: ('A' for Active; 'I' for Inactive)
REMARK    1  A    between atoms: C_2  and  S_1 
REMARK    2  A    between atoms: N_3  and  S_1 
REMARK    3  A    between atoms: C_4  and  N_3 
REMARK    4  A    between atoms: O_16  and  C_9 
REMARK    5  A    between atoms: O_17  and  C_14 
ROOT
ATOM      1  C   UNL d   1     -41.197-122.347 -51.485  0.00  0.00     0.118 A 
ATOM      2  C   UNL d   1     -41.246-123.060 -51.897  0.00  0.00     0.046 A 
ATOM      3  C   UNL d   1     -41.211-121.633 -51.894  0.00  0.00     0.113 A 
ATOM      4  C   UNL d   1     -41.275-121.630 -52.718  0.00  0.00     0.028 A 
ATOM      5  C   UNL d   1     -41.310-123.060 -52.717  0.00  0.00     0.096 A 
ATOM      6  C   UNL d   1     -41.325-122.343 -53.130  0.00  0.00     0.026 A 
ENDROOT
BRANCH   1   7
ATOM      7  N   UNL d   1     -41.132-122.341 -50.650  0.00  0.00    -0.156 NA
BRANCH   7   8
ATOM      8  S   UNL d   1     -41.709-122.728 -50.184  0.00  0.00     0.291 S 
ATOM      9  O   UNL d   1     -41.233-123.402 -50.167  0.00  0.00    -0.198 OA
ATOM     10  O   UNL d   1     -42.180-122.051 -50.205  0.00  0.00    -0.198 OA
BRANCH   8  11
ATOM     11  C   UNL d   1     -42.277-123.111 -49.723  0.00  0.00     0.135 A 
ATOM     12  S   UNL d   1     -42.817-122.727 -49.435  0.00  0.00    -0.073 SA
ATOM     13  C   UNL d   1     -43.309-123.075 -49.032  0.00  0.00     0.036 A 
ATOM     14  C   UNL d   1     -43.261-123.787 -48.922  0.00  0.00     0.008 A 
ATOM     15  C   UNL d   1     -42.232-123.817 -49.612  0.00  0.00     0.020 A 
ENDBRANCH   8  11
ENDBRANCH   7   8
ENDBRANCH   1   7
BRANCH   3  16
ATOM     16  O   UNL d   1     -41.162-120.920 -51.482  0.00  0.00    -0.327 OA
ATOM     17  C   UNL d   1     -41.156-120.206 -51.892  0.00  0.00     0.181 C 
ENDBRANCH   3  16
BRANCH   5  18
ATOM     18  O   UNL d   1     -41.359-123.773 -53.129  0.00  0.00    -0.328 OA
ATOM     19  C   UNL d   1     -41.126-123.811 -53.917  0.00  0.00     0.181 C 
ENDBRANCH   5  18
TORSDOF 5
ENDMDL
MODEL 3
REMARK VINA RESULT:      -2.1      1.235      3.634
REMARK  5 active torsions:
REMARK  status: ('A' for Active; 'I' for Inactive)
REMARK    1  A    between atoms: C_2  and  S_1 
REMARK    2  A    between atoms: N_3  and  S_1 
REMARK    3  A    between atoms: C_4  and  N_3 
REMARK    4  A    between atoms: O_16  and  C_9 
REMARK    5  A    between atoms: O_17  and  C_14 
ROOT
ATOM      1  C   UNL d   1     -41.877-122.954 -49.549  0.00  0.00     0.118 A 
ATOM      2  C   UNL d   1     -42.596-122.938 -49.951  0.00  0.00     0.046 A 
ATOM      3  C   UNL d   1     -41.860-123.099 -48.739  0.00  0.00     0.113 A 
ATOM      4  C   UNL d   1     -42.565-123.230 -48.328  0.00  0.00     0.028 A 
ATOM      5  C   UNL d   1     -43.300-123.068 -49.545  0.00  0.00     0.096 A 
ATOM      6  C   UNL d   1     -43.285-123.214 -48.730  0.00  0.00     0.026 A 
ENDROOT
BRANCH   1   7
ATOM      7  N   UNL d   1     -41.158-122.822 -49.957  0.00  0.00    -0.156 NA
BRANCH   7   8
ATOM      8  S   UNL d   1     -41.151-122.798 -50.794  0.00  0.00     0.291 S 
ATOM      9  O   UNL d   1     -41.145-121.974 -50.762  0.00  0.00    -0.198 OA
ATOM     10  O   UNL d   1     -41.158-123.623 -50.818  0.00  0.00    -0.198 OA
BRANCH   8  11
ATOM     11  C   UNL d   1     -41.145-122.771 -51.619  0.00  0.00     0.135 A 
ATOM     12  S   UNL d   1     -41.161-122.129 -51.952  0.00  0.00    -0.073 SA
ATOM     13  C   UNL d   1     -41.155-122.119 -52.677  0.00  0.00     0.036 A 
ATOM     14  C   UNL d   1     -41.133-122.733 -53.056  0.00  0.00     0.008 A 
ATOM     15  C   UNL d   1     -41.123-123.378 -51.998  0.00  0.00     0.020 A 
ENDBRANCH   8  11
ENDBRANCH   7   8
ENDBRANCH   1   7
BRANCH   3  16
ATOM     16  O   UNL d   1     -41.140-123.114 -48.337  0.00  0.00    -0.327 OA
ATOM     17  C   UNL d   1     -41.123-123.260 -47.527  0.00  0.00     0.181 C 
ENDBRANCH   3  16
BRANCH   5  18
ATOM     18  O   UNL d   1     -44.020-123.052 -49.947  0.00  0.00    -0.328 OA
ATOM     19  C   UNL d   1     -44.419-122.341 -50.051  0.00  0.00     0.181 C 
ENDBRANCH   5  18
TORSDOF 5
ENDMDL
MODEL 4
REMARK VINA RESULT:      -2.1      1.833      3.671
REMARK  5 active torsions:
REMARK  status: ('A' for Active; 'I' for Inactive)
REMARK    1  A    between atoms: C_2  and  S_1 
REMARK    2  A    between atoms: N_3  and  S_1 
REMARK    3  A    between atoms: C_4  and  N_3 
REMARK    4  A    between atoms: O_16  and  C_9 
REMARK    5  A    between atoms: O_17  and  C_14 
ROOT
ATOM      1  C   UNL d   1     -41.654-122.475 -52.057  0.00  0.00     0.118 A 
ATOM      2  C   UNL d   1     -41.463-121.693 -52.235  0.00  0.00     0.046 A 
ATOM      3  C   UNL d   1     -41.697-122.721 -51.273  0.00  0.00     0.113 A 
ATOM      4  C   UNL d   1     -41.549-122.183 -50.662  0.00  0.00     0.028 A 
ATOM      5  C   UNL d   1     -41.314-121.156 -51.630  0.00  0.00     0.096 A 
ATOM      6  C   UNL d   1     -41.357-121.401 -50.840  0.00  0.00     0.026 A 
ENDROOT
BRANCH   1   7
ATOM      7  N   UNL d   1     -41.806-123.026 -52.669  0.00  0.00    -0.156 NA
BRANCH   7   8
ATOM      8  S   UNL d   1     -41.814-122.773 -53.467  0.00  0.00     0.291 S 
ATOM      9  O   UNL d   1     -41.123-123.203 -53.602  0.00  0.00    -0.198 OA
ATOM     10  O   UNL d   1     -42.505-122.345 -53.324  0.00  0.00    -0.198 OA
BRANCH   8  11
ATOM     11  C   UNL d   1     -41.819-122.525 -54.253  0.00  0.00     0.135 A 
ATOM     12  S   UNL d   1     -42.445-122.511 -54.616  0.00  0.00    -0.073 SA
ATOM     13  C   UNL d   1     -42.436-122.291 -55.307  0.00  0.00     0.036 A 
ATOM     14  C   UNL d   1     -41.819-122.091 -55.625  0.00  0.00     0.008 A 
ATOM     15  C   UNL d   1     -41.209-122.325 -54.571  0.00  0.00     0.020 A 
ENDBRANCH   8  11
ENDBRANCH   7   8
ENDBRANCH   1   7
BRANCH   3  16
ATOM     16  O   UNL d   1     -41.889-123.503 -51.095  0.00  0.00    -0.327 OA
ATOM     17  C   UNL d   1     -41.702-123.816 -50.356  0.00  0.00     0.181 C 
ENDBRANCH   3  16
BRANCH   5  18
ATOM     18  O   UNL d   1     -41.123-120.373 -51.808  0.00  0.00    -0.328 OA
ATOM     19  C   UNL d   1     -41.183-119.792 -51.229  0.00  0.00     0.181 C 
ENDBRANCH   5  18
TORSDOF 5
ENDMDL
MODEL 5
REMARK VINA RESULT:      -1.2      1.956      4.091
REMARK  5 active torsions:
REMARK  status: ('A' for Active; 'I' for Inactive)
REMARK    1  A    between atoms: C_2  and  S_1 
REMARK    2  A    between atoms: N_3  and  S_1 
REMARK    3  A    between atoms: C_4  and  N_3 
REMARK    4  A    between atoms: O_16  and  C_9 
REMARK    5  A    between atoms: O_17  and  C_14 
ROOT
ATOM      1  C   UNL d   1     -41.754-121.815 -52.125  0.00  0.00     0.118 A 
ATOM      2  C   UNL d   1     -41.967-122.588 -51.933  0.00  0.00     0.046 A 
ATOM      3  C   UNL d   1     -41.336-121.356 -51.585  0.00  0.00     0.113 A 
ATOM      4  C   UNL d   1     -41.129-121.670 -50.848  0.00  0.00     0.028 A 
ATOM      5  C   UNL d   1     -41.763-122.903 -51.201  0.00  0.00     0.096 A 
ATOM      6  C   UNL d   1     -41.343-122.443 -50.656  0.00  0.00     0.026 A 
ENDROOT
BRANCH   1   7
ATOM      7  N   UNL d   1     -41.959-121.490 -52.869  0.00  0.00    -0.156 NA
BRANCH   7   8
ATOM      8  S   UNL d   1     -41.925-121.965 -53.557  0.00  0.00     0.291 S 
ATOM      9  O   UNL d   1     -42.727-122.137 -53.468  0.00  0.00    -0.198 OA
ATOM     10  O   UNL d   1     -41.123-121.788 -53.639  0.00  0.00    -0.198 OA
BRANCH   8  11
ATOM     11  C   UNL d   1     -41.893-122.434 -54.235  0.00  0.00     0.135 A 
ATOM     12  S   UNL d   1     -42.225-122.208 -54.837  0.00  0.00    -0.073 SA
ATOM     13  C   UNL d   1     -42.190-122.629 -55.426  0.00  0.00     0.036 A 
ATOM     14  C   UNL d   1     -41.834-123.257 -55.412  0.00  0.00     0.008 A 
ATOM     15  C   UNL d   1     -41.541-123.057 -54.225  0.00  0.00     0.020 A 
ENDBRANCH   8  11
ENDBRANCH   7   8
ENDBRANCH   1   7
BRANCH   3  16
ATOM     16  O   UNL d   1     -41.123-120.583 -51.777  0.00  0.00    -0.327 OA
ATOM     17  C   UNL d   1     -41.123-119.999 -51.197  0.00  0.00     0.181 C 
ENDBRANCH   3  16
BRANCH   5  18
ATOM     18  O   UNL d   1     -41.976-123.677 -51.009  0.00  0.00    -0.328 OA
ATOM     19  C   UNL d   1     -42.611-123.816 -50.505  0.00  0.00     0.181 C 
ENDBRANCH   5  18
TORSDOF 5
ENDMDL
MODEL 6
REMARK VINA RESULT:      -1.0      1.169      3.590
REMARK  5 active torsions:
REMARK  status: ('A' for Active; 'I' for Inactive)
REMARK    1  A    between atoms: C_2  and  S_1 
REMARK    2  A    between atoms: N_3  and  S_1 
REMARK    3  A    between atoms: C_4  and  N_3 
REMARK    4  A    between atoms: O_16  and  C_9 
REMARK    5  A    between atoms: O_17  and  C_14 
ROOT
ATOM      1  C   UNL d   1     -42.468-123.613 -49.651  0.00  0.00     0.118 A 
ATOM      2  C   UNL d   1     -41.787-123.570 -49.187  0.00  0.00     0.046 A 
ATOM      3  C   UNL d   1     -43.208-123.652 -49.294  0.00  0.00     0.113 A 
ATOM      4  C   UNL d   1     -43.271-123.648 -48.470  0.00  0.00     0.028 A 
ATOM      5  C   UNL d   1     -41.847-123.566 -48.366  0.00  0.00     0.096 A 
ATOM      6  C   UNL d   1     -42.590-123.605 -48.006  0.00  0.00     0.026 A 
ENDROOT
BRANCH   1   7
ATOM      7  N   UNL d   1     -42.413-123.617 -50.486  0.00  0.00    -0.156 NA
BRANCH   7   8
ATOM      8  S   UNL d   1     -42.063-122.970 -50.886  0.00  0.00     0.291 S 
ATOM      9  O   UNL d   1     -42.743-122.525 -50.746  0.00  0.00    -0.198 OA
ATOM     10  O   UNL d   1     -41.386-123.421 -51.022  0.00  0.00    -0.198 OA
BRANCH   8  11
ATOM     11  C   UNL d   1     -41.720-122.331 -51.279  0.00  0.00     0.135 A 
ATOM     12  S   UNL d   1     -41.486-122.418 -51.958  0.00  0.00    -0.073 SA
ATOM     13  C   UNL d   1     -41.186-121.849 -52.293  0.00  0.00     0.036 A 
ATOM     14  C   UNL d   1     -41.123-121.212 -51.958  0.00  0.00     0.008 A 
ATOM     15  C   UNL d   1     -41.656-121.699 -50.950  0.00  0.00     0.020 A 
ENDBRANCH   8  11
ENDBRANCH   7   8
ENDBRANCH   1   7
BRANCH   3  16
ATOM     16  O   UNL d   1     -43.889-123.695 -49.758  0.00  0.00    -0.327 OA
ATOM     17  C   UNL d   1     -44.622-123.816 -49.405  0.00  0.00     0.181 C 
ENDBRANCH   3  16
BRANCH   5  18
ATOM     18  O   UNL d   1     -41.166-123.523 -47.902  0.00  0.00    -0.328 OA
ATOM     19  C   UNL d   1     -41.125-122.987 -47.280  0.00  0.00     0.181 C 
ENDBRANCH   5  18
TORSDOF 5
ENDMDL
