MODEL 1
REMARK VINA RESULT:      -5.5      0.000      0.000
REMARK  4 active torsions:
REMARK  status: ('A' for Active; 'I' for Inactive)
REMARK    1  A    between atoms: N_10  and  C_1 
REMARK       I    between atoms: C_12  and  N_10 
REMARK    2  A    between atoms: C_17  and  C_12 
REMARK    3  A    between atoms: C_18  and  C_17 
REMARK    4  A    between atoms: C_19  and  C_18 
ROOT
ATOM      1  C   UNL d   1      57.457   0.211  31.340  0.00  0.00     0.197 A 
ATOM      2  C   UNL d   1      56.556  -0.027  32.270  0.00  0.00     0.057 A 
ATOM      3  C   UNL d   1      56.014  -0.001  32.855  0.00  0.00     0.056 A 
ATOM      4  N   UNL d   1      57.345  -0.577  31.339  0.00  0.00    -0.221 NA
ATOM      5  S   UNL d   1      56.982   0.590  31.908  0.00  0.00    -0.046 SA
ATOM      6  N   UNL d   1      55.146  -0.499  33.710  0.00  0.00    -0.238 NA
ATOM      7  S   UNL d   1      55.698   0.602  33.286  0.00  0.00    -0.066 SA
ATOM      8  C   UNL d   1      56.776  -0.734  31.925  0.00  0.00     0.090 A 
ATOM      9  C   UNL d   1      55.659  -0.694  33.129  0.00  0.00     0.088 A 
ATOM     10  C   UNL d   1      55.134   0.274  33.841  0.00  0.00     0.111 A 
ATOM     11  C   UNL d   1      55.862  -1.413  32.801  0.00  0.00     0.021 A 
ATOM     12  C   UNL d   1      56.433  -1.432  32.186  0.00  0.00     0.021 A 
ATOM     13  C   UNL d   1      54.671   0.682  34.401  0.00  0.00     0.028 C 
ENDROOT
BRANCH   1  14
ATOM     14  N   UNL d   1      57.994   0.628  30.828  0.00  0.00    -0.183 NA
ATOM     15  C   UNL d   1      58.187   0.293  30.112  0.00  0.00     0.281 C 
ATOM     16  O   UNL d   1      57.827  -0.457  29.939  0.00  0.00    -0.265 OA
BRANCH  15  17
ATOM     17  C   UNL d   1      58.680   0.676  29.642  0.00  0.00     0.063 C 
BRANCH  17  18
ATOM     18  C   UNL d   1      59.245   0.180  29.061  0.00  0.00     0.005 C 
BRANCH  18  19
ATOM     19  C   UNL d   1      60.035   0.583  28.731  0.00  0.00     0.000 C 
ATOM     20  C   UNL d   1      60.745   0.230  28.497  0.00  0.00     0.000 C 
ENDBRANCH  18  19
ENDBRANCH  17  18
ENDBRANCH  15  17
ENDBRANCH   1  14
TORSDOF 4
ENDMDL
MODEL 2
REMARK VINA RESULT:      -4.8      1.560      4.956
REMARK  4 active torsions:
REMARK  status: ('A' for Active; 'I' for Inactive)
REMARK    1  A    between atoms: N_10  and  C_1 
REMARK       I    between atoms: C_12  and  N_10 
REMARK    2  A    between atoms: C_17  and  C_12 
REMARK    3  A    between atoms: C_18  and  C_17 
REMARK    4  A    between atoms: C_19  and  C_18 
ROOT
ATOM      1  C   UNL d   1      57.595   0.136  30.600  0.00  0.00     0.197 A 
ATOM      2  C   UNL d   1      58.660  -0.071  29.853  0.00  0.00     0.057 A 
ATOM      3  C   UNL d   1      59.333  -0.030  29.428  0.00  0.00     0.056 A 
ATOM      4  N   UNL d   1      57.576  -0.635  30.402  0.00  0.00    -0.221 NA
ATOM      5  S   UNL d   1      58.257   0.522  30.276  0.00  0.00    -0.046 SA
ATOM      6  N   UNL d   1      60.305  -0.493  28.671  0.00  0.00    -0.238 NA
ATOM      7  S   UNL d   1      59.843   0.573  29.261  0.00  0.00    -0.066 SA
ATOM      8  C   UNL d   1      58.248  -0.772  29.930  0.00  0.00     0.090 A 
ATOM      9  C   UNL d   1      59.633  -0.699  29.051  0.00  0.00     0.088 A 
ATOM     10  C   UNL d   1      60.474   0.267  28.769  0.00  0.00     0.111 A 
ATOM     11  C   UNL d   1      59.240  -1.412  29.112  0.00  0.00     0.021 A 
ATOM     12  C   UNL d   1      58.532  -1.447  29.561  0.00  0.00     0.021 A 
ATOM     13  C   UNL d   1      61.126   0.682  28.458  0.00  0.00     0.028 C 
ENDROOT
BRANCH   1  14
ATOM     14  N   UNL d   1      57.016   0.529  31.083  0.00  0.00    -0.183 NA
ATOM     15  C   UNL d   1      56.905   0.269  31.846  0.00  0.00     0.281 C 
ATOM     16  O   UNL d   1      57.388  -0.384  32.095  0.00  0.00    -0.265 OA
BRANCH  15  17
ATOM     17  C   UNL d   1      56.372   0.631  32.290  0.00  0.00     0.063 C 
BRANCH  17  18
ATOM     18  C   UNL d   1      55.932   0.141  32.975  0.00  0.00     0.005 C 
BRANCH  18  19
ATOM     19  C   UNL d   1      55.152   0.502  33.371  0.00  0.00     0.000 C 
ATOM     20  C   UNL d   1      54.870   0.420  34.144  0.00  0.00     0.000 C 
ENDBRANCH  18  19
ENDBRANCH  17  18
ENDBRANCH  15  17
ENDBRANCH   1  14
TORSDOF 4
ENDMDL
MODEL 3
REMARK VINA RESULT:      -4.5      1.853      5.202
REMARK  4 active torsions:
REMARK  status: ('A' for Active; 'I' for Inactive)
REMARK    1  A    between atoms: N_10  and  C_1 
REMARK       I    between atoms: C_12  and  N_10 
REMARK    2  A    between atoms: C_17  and  C_12 
REMARK    3  A    between atoms: C_18  and  C_17 
REMARK    4  A    between atoms: C_19  and  C_18 
ROOT
ATOM      1  C   UNL d   1      58.110   0.083  30.171  0.00  0.00     0.197 A 
ATOM      2  C   UNL d   1      59.143  -0.466  29.566  0.00  0.00     0.057 A 
ATOM      3  C   UNL d   1      59.681  -0.945  29.224  0.00  0.00     0.056 A 
ATOM      4  N   UNL d   1      58.607   0.682  29.999  0.00  0.00    -0.221 NA
ATOM      5  S   UNL d   1      58.410  -0.649  29.916  0.00  0.00    -0.046 SA
ATOM      6  N   UNL d   1      60.806  -1.239  28.607  0.00  0.00    -0.238 NA
ATOM      7  S   UNL d   1      59.709  -1.742  29.100  0.00  0.00    -0.066 SA
ATOM      8  C   UNL d   1      59.262   0.340  29.616  0.00  0.00     0.090 A 
ATOM      9  C   UNL d   1      60.378  -0.636  28.910  0.00  0.00     0.088 A 
ATOM     10  C   UNL d   1      60.443  -1.928  28.698  0.00  0.00     0.111 A 
ATOM     11  C   UNL d   1      60.521   0.167  28.947  0.00  0.00     0.021 A 
ATOM     12  C   UNL d   1      59.950   0.664  29.309  0.00  0.00     0.021 A 
ATOM     13  C   UNL d   1      60.716  -2.677  28.455  0.00  0.00     0.028 C 
ENDROOT
BRANCH   1  14
ATOM     14  N   UNL d   1      57.362   0.170  30.566  0.00  0.00    -0.183 NA
ATOM     15  C   UNL d   1      57.358   0.264  31.374  0.00  0.00     0.281 C 
ATOM     16  O   UNL d   1      58.117   0.268  31.756  0.00  0.00    -0.265 OA
BRANCH  15  17
ATOM     17  C   UNL d   1      56.670   0.343  31.738  0.00  0.00     0.063 C 
BRANCH  17  18
ATOM     18  C   UNL d   1      56.578   0.025  32.628  0.00  0.00     0.005 C 
BRANCH  18  19
ATOM     19  C   UNL d   1      55.723  -0.236  32.938  0.00  0.00     0.000 C 
ATOM     20  C   UNL d   1      55.353  -0.068  33.659  0.00  0.00     0.000 C 
ENDBRANCH  18  19
ENDBRANCH  17  18
ENDBRANCH  15  17
ENDBRANCH   1  14
TORSDOF 4
ENDMDL
MODEL 4
REMARK VINA RESULT:      -3.0      9.572     10.404
REMARK  4 active torsions:
REMARK  status: ('A' for Active; 'I' for Inactive)
REMARK    1  A    between atoms: N_10  and  C_1 
REMARK       I    between atoms: C_12  and  N_10 
REMARK    2  A    between atoms: C_17  and  C_12 
REMARK    3  A    between atoms: C_18  and  C_17 
REMARK    4  A    between atoms: C_19  and  C_18 
ROOT
ATOM      1  C   UNL d   1      58.960  -9.818  32.489  0.00  0.00     0.197 A 
ATOM      2  C   UNL d   1      58.496  -9.818  31.257  0.00  0.00     0.057 A 
ATOM      3  C   UNL d   1      58.063  -9.818  30.588  0.00  0.00     0.056 A 
ATOM      4  N   UNL d   1      59.600  -9.818  32.015  0.00  0.00    -0.221 NA
ATOM      5  S   UNL d   1      58.253  -9.818  32.053  0.00  0.00    -0.046 SA
ATOM      6  N   UNL d   1      57.862  -9.818  29.287  0.00  0.00    -0.238 NA
ATOM      7  S   UNL d   1      57.268  -9.818  30.447  0.00  0.00    -0.066 SA
ATOM      8  C   UNL d   1      59.313  -9.818  31.234  0.00  0.00     0.090 A 
ATOM      9  C   UNL d   1      58.430  -9.818  29.849  0.00  0.00     0.088 A 
ATOM     10  C   UNL d   1      57.143  -9.818  29.599  0.00  0.00     0.111 A 
ATOM     11  C   UNL d   1      59.245  -9.817  29.799  0.00  0.00     0.021 A 
ATOM     12  C   UNL d   1      59.694  -9.818  30.508  0.00  0.00     0.021 A 
ATOM     13  C   UNL d   1      56.417  -9.818  29.190  0.00  0.00     0.028 C 
ENDROOT
BRANCH   1  14
ATOM     14  N   UNL d   1      58.984  -9.818  33.340  0.00  0.00    -0.183 NA
ATOM     15  C   UNL d   1      59.416  -9.240  33.716  0.00  0.00     0.281 C 
ATOM     16  O   UNL d   1      59.811  -8.680  33.215  0.00  0.00    -0.265 OA
BRANCH  15  17
ATOM     17  C   UNL d   1      59.438  -9.240  34.498  0.00  0.00     0.063 C 
BRANCH  17  18
ATOM     18  C   UNL d   1      59.758  -8.469  34.952  0.00  0.00     0.005 C 
BRANCH  18  19
ATOM     19  C   UNL d   1      59.502  -8.325  35.852  0.00  0.00     0.000 C 
ATOM     20  C   UNL d   1      59.234  -7.633  36.216  0.00  0.00     0.000 C 
ENDBRANCH  18  19
ENDBRANCH  17  18
ENDBRANCH  15  17
ENDBRANCH   1  14
TORSDOF 4
ENDMDL
MODEL 5
REMARK VINA RESULT:      -2.9      1.404      4.801
REMARK  4 active torsions:
REMARK  status: ('A' for Active; 'I' for Inactive)
REMARK    1  A    between atoms: N_10  and  C_1 
REMARK       I    between atoms: C_12  and  N_10 
REMARK    2  A    between atoms: C_17  and  C_12 
REMARK    3  A    between atoms: C_18  and  C_17 
REMARK    4  A    between atoms: C_19  and  C_18 
ROOT
ATOM      1  C   UNL d   1      57.161   0.515  32.037  0.00  0.00     0.197 A 
ATOM      2  C   UNL d   1      58.126   0.460  31.142  0.00  0.00     0.057 A 
ATOM      3  C   UNL d   1      58.581   0.399  30.490  0.00  0.00     0.056 A 
ATOM      4  N   UNL d   1      57.839   0.635  32.438  0.00  0.00    -0.221 NA
ATOM      5  S   UNL d   1      57.299   0.402  31.225  0.00  0.00    -0.046 SA
ATOM      6  N   UNL d   1      59.707   0.390  29.809  0.00  0.00    -0.238 NA
ATOM      7  S   UNL d   1      58.414   0.265  29.712  0.00  0.00    -0.066 SA
ATOM      8  C   UNL d   1      58.453   0.602  31.877  0.00  0.00     0.090 A 
ATOM      9  C   UNL d   1      59.401   0.477  30.542  0.00  0.00     0.088 A 
ATOM     10  C   UNL d   1      59.150   0.260  29.273  0.00  0.00     0.111 A 
ATOM     11  C   UNL d   1      59.752   0.619  31.265  0.00  0.00     0.021 A 
ATOM     12  C   UNL d   1      59.266   0.682  31.946  0.00  0.00     0.021 A 
ATOM     13  C   UNL d   1      59.255   0.143  28.455  0.00  0.00     0.028 C 
ENDROOT
BRANCH   1  14
ATOM     14  N   UNL d   1      56.385   0.502  32.385  0.00  0.00    -0.183 NA
ATOM     15  C   UNL d   1      56.095  -0.206  32.662  0.00  0.00     0.281 C 
ATOM     16  O   UNL d   1      56.605  -0.880  32.576  0.00  0.00    -0.265 OA
BRANCH  15  17
ATOM     17  C   UNL d   1      55.382  -0.218  32.981  0.00  0.00     0.063 C 
BRANCH  17  18
ATOM     18  C   UNL d   1      55.286  -0.024  33.907  0.00  0.00     0.005 C 
BRANCH  18  19
ATOM     19  C   UNL d   1      54.651   0.623  34.178  0.00  0.00     0.000 C 
ATOM     20  C   UNL d   1      54.227   0.675  34.887  0.00  0.00     0.000 C 
ENDBRANCH  18  19
ENDBRANCH  17  18
ENDBRANCH  15  17
ENDBRANCH   1  14
TORSDOF 4
ENDMDL
