MODEL 1
REMARK VINA RESULT:      -5.2      0.000      0.000
REMARK  5 active torsions:
REMARK  status: ('A' for Active; 'I' for Inactive)
REMARK    1  A    between atoms: N_6  and  C_1 
REMARK    2  A    between atoms: C_8  and  C_2 
REMARK    3  A    between atoms: C_11  and  C_3 
REMARK       I    between atoms: C_7  and  N_6 
REMARK    4  A    between atoms: C_9  and  C_7 
REMARK    5  A    between atoms: C_20  and  C_11 
ROOT
ATOM      1  C   UNL d   1      58.678  -0.373  30.260  0.00  0.00     0.119 A 
ATOM      2  C   UNL d   1      59.471  -0.172  30.218  0.00  0.00     0.084 A 
ATOM      3  C   UNL d   1      59.181  -0.948  29.165  0.00  0.00     0.031 A 
ATOM      4  S   UNL d   1      58.489  -0.854  29.612  0.00  0.00    -0.068 SA
ATOM      5  C   UNL d   1      59.784  -0.529  29.538  0.00  0.00     0.013 A 
ATOM      6  C   UNL d   1      60.566  -0.478  29.272  0.00  0.00     0.001 C 
ENDROOT
BRANCH   1   7
ATOM      7  N   UNL d   1      58.143  -0.132  30.861  0.00  0.00    -0.201 NA
ATOM      8  C   UNL d   1      57.495  -0.617  31.061  0.00  0.00     0.280 C 
ATOM      9  O   UNL d   1      57.374  -1.334  30.674  0.00  0.00    -0.265 OA
BRANCH   8  10
ATOM     10  C   UNL d   1      56.971  -0.373  31.656  0.00  0.00     0.058 A 
ATOM     11  C   UNL d   1      56.658  -0.928  32.186  0.00  0.00     0.005 A 
ATOM     12  C   UNL d   1      56.151  -0.687  32.760  0.00  0.00     0.000 A 
ATOM     13  C   UNL d   1      55.854  -1.271  33.279  0.00  0.00     0.000 A 
ATOM     14  C   UNL d   1      55.924   0.088  32.848  0.00  0.00     0.000 A 
ATOM     15  C   UNL d   1      55.338  -1.055  33.870  0.00  0.00     0.000 A 
ATOM     16  C   UNL d   1      55.106  -0.270  33.963  0.00  0.00     0.000 A 
ATOM     17  C   UNL d   1      55.406   0.302  33.443  0.00  0.00     0.000 A 
ATOM     18  C   UNL d   1      56.239   0.666  32.309  0.00  0.00     0.000 A 
ATOM     19  C   UNL d   1      56.761   0.421  31.718  0.00  0.00     0.005 A 
ENDBRANCH   8  10
ENDBRANCH   1   7
BRANCH   2  20
ATOM     20  C   UNL d   1      59.894   0.298  30.747  0.00  0.00     0.299 C 
ATOM     21  O   UNL d   1      60.655   0.667  30.482  0.00  0.00    -0.264 OA
ATOM     22  N   UNL d   1      59.640   0.418  31.460  0.00  0.00    -0.102 N 
ENDBRANCH   2  20
BRANCH   3  23
ATOM     23  C   UNL d   1      59.335  -1.367  28.460  0.00  0.00     0.007 C 
BRANCH  23  24
ATOM     24  C   UNL d   1      59.359  -2.199  28.473  0.00  0.00     0.003 A 
ATOM     25  C   UNL d   1      58.650  -2.629  28.455  0.00  0.00     0.026 A 
ATOM     26  C   UNL d   1      58.665  -3.451  28.467  0.00  0.00     0.119 A 
ATOM     27  O   UNL d   1      58.066  -4.008  28.455  0.00  0.00    -0.300 OA
ATOM     28  C   UNL d   1      59.385  -3.851  28.497  0.00  0.00     0.119 A 
ATOM     29  C   UNL d   1      58.410  -4.752  28.477  0.00  0.00     0.304 A 
ATOM     30  O   UNL d   1      59.226  -4.652  28.503  0.00  0.00    -0.300 OA
ATOM     31  C   UNL d   1      60.090  -3.428  28.514  0.00  0.00     0.026 A 
ATOM     32  C   UNL d   1      60.079  -2.598  28.502  0.00  0.00     0.002 A 
ENDBRANCH  23  24
ENDBRANCH   3  23
TORSDOF 5
ENDMDL
