MODEL 1
REMARK VINA RESULT:      62.6      0.000      0.000
REMARK  2 active torsions:
REMARK  status: ('A' for Active; 'I' for Inactive)
REMARK    1  A    between atoms: C_4  and  C_1 
REMARK       I    between atoms: N_7  and  C_4 
REMARK    2  A    between atoms: C_17  and  N_8 
ROOT
ATOM      1  C   UNL d   1     -51.499  26.315  33.511  0.00  0.00     0.248 C 
ATOM      2  N   UNL d   1     -50.867  26.827  33.792  0.00  0.00    -0.272 N 
ATOM      3  N   UNL d   1     -49.609  27.851  34.353  0.00  0.00    -0.301 N 
ATOM      4  O   UNL d   1     -52.219  26.631  33.306  0.00  0.00    -0.271 OA
ATOM      5  C   UNL d   1     -50.997  27.677  33.857  0.00  0.00     0.102 A 
ATOM      6  C   UNL d   1     -50.117  26.475  34.003  0.00  0.00     0.102 A 
ATOM      7  C   UNL d   1     -50.378  28.184  34.133  0.00  0.00     0.100 A 
ATOM      8  C   UNL d   1     -49.479  27.002  34.288  0.00  0.00     0.100 A 
ENDROOT
BRANCH   1   9
ATOM      9  C   UNL d   1     -51.380  25.516  33.448  0.00  0.00     0.112 A 
ATOM     10  C   UNL d   1     -51.757  24.045  33.391  0.00  0.00     0.025 A 
ATOM     11  C   UNL d   1     -51.270  24.712  33.386  0.00  0.00     0.074 A 
ATOM     12  C   UNL d   1     -51.432  23.305  33.312  0.00  0.00     0.002 C 
ATOM     13  C   UNL d   1     -52.553  23.918  33.459  0.00  0.00     0.002 C 
ATOM     14  C   UNL d   1     -50.954  23.963  33.308  0.00  0.00     0.012 C 
ATOM     15  C   UNL d   1     -50.469  24.840  33.317  0.00  0.00    -0.023 A 
ATOM     16  C   UNL d   1     -52.021  25.000  33.477  0.00  0.00     0.172 A 
ATOM     17  C   UNL d   1     -50.583  25.639  33.379  0.00  0.00    -0.018 A 
ATOM     18  C   UNL d   1     -52.135  25.804  33.539  0.00  0.00     0.024 A 
ATOM     19  O   UNL d   1     -52.762  24.676  33.528  0.00  0.00    -0.291 OA
ENDBRANCH   1   9
BRANCH   3  20
ATOM     20  C   UNL d   1     -48.974  28.364  34.636  0.00  0.00     0.064 A 
ATOM     21  C   UNL d   1     -48.514  28.135  35.321  0.00  0.00     0.018 A 
ATOM     22  C   UNL d   1     -47.882  28.644  35.603  0.00  0.00     0.002 A 
ATOM     23  C   UNL d   1     -47.710  29.388  35.195  0.00  0.00     0.000 A 
ATOM     24  C   UNL d   1     -48.176  29.616  34.504  0.00  0.00     0.002 A 
ATOM     25  C   UNL d   1     -48.808  29.104  34.225  0.00  0.00     0.018 A 
ENDBRANCH   3  20
TORSDOF 2
ENDMDL
