MODEL 1
REMARK VINA RESULT:       4.4      0.000      0.000
REMARK  7 active torsions:
REMARK  status: ('A' for Active; 'I' for Inactive)
REMARK    1  A    between atoms: C_7  and  N_2 
REMARK    2  A    between atoms: C_21  and  C_7 
REMARK    3  A    between atoms: C_8  and  C_19 
REMARK       I    between atoms: N_13  and  C_8 
REMARK    4  A    between atoms: C_9  and  C_20 
REMARK    5  A    between atoms: O_14  and  C_11 
REMARK    6  A    between atoms: C_20  and  N_13 
REMARK    7  A    between atoms: C_19  and  O_14 
ROOT
ATOM      1  C   UNL d   1     -41.350-121.084 -53.081  0.00  0.00     0.265 A 
ATOM      2  N   UNL d   1     -41.453-121.653 -53.675  0.00  0.00    -0.272 N 
ATOM      3  C   UNL d   1     -41.328-121.335 -52.292  0.00  0.00     0.059 A 
ATOM      4  C   UNL d   1     -41.408-122.134 -52.103  0.00  0.00     0.029 A 
ATOM      5  C   UNL d   1     -41.510-122.690 -52.698  0.00  0.00     0.021 A 
ATOM      6  C   UNL d   1     -41.533-122.452 -53.487  0.00  0.00     0.083 A 
ATOM      7  O   UNL d   1     -41.270-120.293 -53.268  0.00  0.00    -0.267 OA
ATOM      8  C   UNL d   1     -41.386-122.381 -51.315  0.00  0.00     0.100 A 
ATOM      9  C   UNL d   1     -41.225-120.770 -51.696  0.00  0.00     0.005 A 
ATOM     10  C   UNL d   1     -41.203-121.021 -50.908  0.00  0.00     0.002 A 
ATOM     11  C   UNL d   1     -41.283-121.824 -50.718  0.00  0.00     0.025 A 
ENDROOT
BRANCH   8  12
ATOM     12  O   UNL d   1     -41.465-123.176 -51.128  0.00  0.00    -0.300 OA
BRANCH  12  13
ATOM     13  C   UNL d   1     -41.137-123.460 -50.425  0.00  0.00     0.185 C 
BRANCH  13  14
ATOM     14  C   UNL d   1     -41.623-123.636 -49.781  0.00  0.00     0.304 C 
ATOM     15  N   UNL d   1     -41.320-123.640 -49.014  0.00  0.00    -0.203 NA
ATOM     16  O   UNL d   1     -42.423-123.810 -49.908  0.00  0.00    -0.263 OA
BRANCH  15  17
ATOM     17  C   UNL d   1     -41.816-123.817 -48.379  0.00  0.00     0.127 C 
BRANCH  17  18
ATOM     18  C   UNL d   1     -41.802-123.344 -47.711  0.00  0.00     0.119 A 
ATOM     19  O   UNL d   1     -42.450-123.040 -47.312  0.00  0.00    -0.304 OA
ATOM     20  C   UNL d   1     -42.188-122.600 -46.680  0.00  0.00     0.123 A 
ATOM     21  C   UNL d   1     -41.364-122.624 -46.677  0.00  0.00     0.029 A 
ATOM     22  C   UNL d   1     -41.131-123.088 -47.320  0.00  0.00     0.028 A 
ENDBRANCH  17  18
ENDBRANCH  15  17
ENDBRANCH  13  14
ENDBRANCH  12  13
ENDBRANCH   8  12
BRANCH   2  23
ATOM     23  C   UNL d   1     -41.476-121.419 -54.460  0.00  0.00     0.083 C 
BRANCH  23  24
ATOM     24  C   UNL d   1     -42.010-121.767 -54.978  0.00  0.00     0.018 A 
ATOM     25  C   UNL d   1     -42.819-121.757 -54.791  0.00  0.00     0.002 A 
ATOM     26  C   UNL d   1     -43.349-122.109 -55.316  0.00  0.00     0.007 A 
ATOM     27  C   UNL d   1     -43.073-122.460 -56.008  0.00  0.00     0.035 A 
ATOM     28  C   UNL d   1     -42.266-122.458 -56.175  0.00  0.00     0.007 A 
ATOM     29 BR   UNL d   1     -43.609-122.807 -56.524  0.00  0.00    -0.049 Br
ATOM     30  C   UNL d   1     -41.738-122.111 -55.657  0.00  0.00     0.002 A 
ENDBRANCH  23  24
ENDBRANCH   2  23
TORSDOF 7
ENDMDL
