MODEL 1
REMARK VINA RESULT:      60.4      0.000      0.000
REMARK  3 active torsions:
REMARK  status: ('A' for Active; 'I' for Inactive)
REMARK    1  A    between atoms: N_3  and  C_1 
REMARK       I    between atoms: C_5  and  N_3 
REMARK    2  A    between atoms: C_9  and  C_5 
REMARK    3  A    between atoms: O_22  and  C_20 
ROOT
ATOM      1  N   UNL d   1     -49.764  27.269  33.789  0.00  0.00    -0.183 NA
ATOM      2  C   UNL d   1     -49.567  27.534  34.546  0.00  0.00     0.281 C 
ATOM      3  O   UNL d   1     -49.828  27.100  35.220  0.00  0.00    -0.265 OA
ENDROOT
BRANCH   1   4
ATOM      4  C   UNL d   1     -50.213  26.586  33.685  0.00  0.00     0.197 A 
ATOM      5  N   UNL d   1     -49.900  25.826  33.566  0.00  0.00    -0.221 NA
ATOM      6  C   UNL d   1     -50.545  25.308  33.487  0.00  0.00     0.090 A 
ATOM      7  C   UNL d   1     -50.576  24.494  33.361  0.00  0.00     0.022 A 
ATOM      8  C   UNL d   1     -51.237  25.752  33.558  0.00  0.00     0.052 A 
ATOM      9  C   UNL d   1     -51.320  24.126  33.306  0.00  0.00     0.026 A 
ATOM     10  C   UNL d   1     -52.004  24.565  33.376  0.00  0.00     0.095 A 
ATOM     11  C   UNL d   1     -51.981  25.385  33.503  0.00  0.00     0.032 A 
ATOM     12  S   UNL d   1     -51.022  26.531  33.678  0.00  0.00    -0.047 SA
BRANCH  10  13
ATOM     13  O   UNL d   1     -52.773  24.193  33.320  0.00  0.00    -0.328 OA
ATOM     14  C   UNL d   1     -52.917  23.489  33.755  0.00  0.00     0.181 C 
ENDBRANCH  10  13
ENDBRANCH   1   4
BRANCH   2  15
ATOM     15  C   UNL d   1     -49.117  28.218  34.651  0.00  0.00     0.059 A 
ATOM     16  C   UNL d   1     -48.558  28.247  35.252  0.00  0.00     0.013 A 
ATOM     17  C   UNL d   1     -48.106  28.920  35.367  0.00  0.00     0.049 A 
ATOM     18  S   UNL d   1     -47.512  29.106  35.918  0.00  0.00    -0.064 SA
ATOM     19  C   UNL d   1     -48.214  29.586  34.866  0.00  0.00     0.088 A 
ATOM     20  C   UNL d   1     -47.262  29.880  35.750  0.00  0.00     0.135 A 
ATOM     21  N   UNL d   1     -47.682  30.181  35.112  0.00  0.00    -0.236 NA
ATOM     22  C   UNL d   1     -48.775  29.568  34.255  0.00  0.00     0.020 A 
ATOM     23  C   UNL d   1     -49.224  28.883  34.150  0.00  0.00     0.006 A 
ENDBRANCH   2  15
TORSDOF 3
ENDMDL
MODEL 2
REMARK VINA RESULT:      63.2      0.880      1.215
REMARK  3 active torsions:
REMARK  status: ('A' for Active; 'I' for Inactive)
REMARK    1  A    between atoms: N_3  and  C_1 
REMARK       I    between atoms: C_5  and  N_3 
REMARK    2  A    between atoms: C_9  and  C_5 
REMARK    3  A    between atoms: O_22  and  C_20 
ROOT
ATOM      1  N   UNL d   1     -49.452  28.033  34.146  0.00  0.00    -0.183 NA
ATOM      2  C   UNL d   1     -48.916  28.048  34.773  0.00  0.00     0.281 C 
ATOM      3  O   UNL d   1     -48.794  27.351  35.233  0.00  0.00    -0.265 OA
ENDROOT
BRANCH   1   4
ATOM      4  C   UNL d   1     -49.869  27.346  33.962  0.00  0.00     0.197 A 
ATOM      5  N   UNL d   1     -49.521  26.618  33.765  0.00  0.00    -0.221 NA
ATOM      6  C   UNL d   1     -50.141  26.083  33.624  0.00  0.00     0.090 A 
ATOM      7  C   UNL d   1     -50.135  25.287  33.409  0.00  0.00     0.022 A 
ATOM      8  C   UNL d   1     -50.853  26.486  33.734  0.00  0.00     0.052 A 
ATOM      9  C   UNL d   1     -50.860  24.895  33.306  0.00  0.00     0.026 A 
ATOM     10  C   UNL d   1     -51.565  25.293  33.416  0.00  0.00     0.095 A 
ATOM     11  C   UNL d   1     -51.579  26.095  33.631  0.00  0.00     0.032 A 
ATOM     12  S   UNL d   1     -50.674  27.256  33.941  0.00  0.00    -0.047 SA
BRANCH  10  13
ATOM     13  O   UNL d   1     -52.316  24.895  33.311  0.00  0.00    -0.328 OA
ATOM     14  C   UNL d   1     -52.338  24.056  33.333  0.00  0.00     0.181 C 
ENDBRANCH  10  13
ENDBRANCH   1   4
BRANCH   2  15
ATOM     15  C   UNL d   1     -48.499  28.735  34.957  0.00  0.00     0.059 A 
ATOM     16  C   UNL d   1     -48.620  29.415  34.510  0.00  0.00     0.013 A 
ATOM     17  C   UNL d   1     -48.213  30.104  34.682  0.00  0.00     0.049 A 
ATOM     18  S   UNL d   1     -48.220  30.859  34.334  0.00  0.00    -0.064 SA
ATOM     19  C   UNL d   1     -47.666  30.117  35.320  0.00  0.00     0.088 A 
ATOM     20  C   UNL d   1     -47.682  31.325  34.760  0.00  0.00     0.135 A 
ATOM     21  N   UNL d   1     -47.338  30.884  35.362  0.00  0.00    -0.236 NA
ATOM     22  C   UNL d   1     -47.535  29.437  35.778  0.00  0.00     0.020 A 
ATOM     23  C   UNL d   1     -47.953  28.750  35.594  0.00  0.00     0.006 A 
ENDBRANCH   2  15
TORSDOF 3
ENDMDL
