MODEL 1
REMARK VINA RESULT:      62.6      0.000      0.000
REMARK  5 active torsions:
REMARK  status: ('A' for Active; 'I' for Inactive)
REMARK    1  A    between atoms: N_6  and  C_1 
REMARK    2  A    between atoms: C_7  and  C_2 
REMARK       I    between atoms: C_8  and  N_6 
REMARK       I    between atoms: N_13  and  C_7 
REMARK    3  A    between atoms: C_9  and  C_8 
REMARK    4  A    between atoms: C_10  and  C_9 
REMARK    5  A    between atoms: C_15  and  C_10 
ROOT
ATOM      1  C   UNL d   1      60.079  48.993  50.809  0.00  0.00     0.119 A 
ATOM      2  C   UNL d   1      60.564  48.439  51.055  0.00  0.00     0.082 A 
ATOM      3  S   UNL d   1      60.295  49.679  51.143  0.00  0.00    -0.068 SA
ATOM      4  C   UNL d   1      61.090  48.767  51.546  0.00  0.00     0.013 A 
ATOM      5  C   UNL d   1      60.920  49.539  51.598  0.00  0.00     0.031 A 
ATOM      6  C   UNL d   1      61.700  48.468  51.951  0.00  0.00     0.001 A 
ATOM      7  C   UNL d   1      61.968  49.707  52.458  0.00  0.00     0.006 A 
ATOM      8  C   UNL d   1      62.137  48.941  52.406  0.00  0.00     0.001 A 
ENDROOT
BRANCH   1   9
ATOM      9  N   UNL d   1      59.494  49.155  50.390  0.00  0.00    -0.201 NA
ATOM     10  C   UNL d   1      58.798  49.511  50.951  0.00  0.00     0.280 C 
ATOM     11  O   UNL d   1      58.724  49.643  51.617  0.00  0.00    -0.265 OA
BRANCH  10  12
ATOM     12  C   UNL d   1      58.121  49.707  50.523  0.00  0.00     0.062 C 
BRANCH  12  13
ATOM     13  C   UNL d   1      58.026  49.430  49.745  0.00  0.00     0.005 C 
BRANCH  13  14
ATOM     14  C   UNL d   1      57.364  48.980  49.544  0.00  0.00     0.000 A 
ATOM     15  C   UNL d   1      57.267  48.219  49.857  0.00  0.00     0.000 A 
ATOM     16  C   UNL d   1      56.609  47.763  49.661  0.00  0.00     0.000 A 
ATOM     17  C   UNL d   1      56.035  48.064  49.147  0.00  0.00     0.000 A 
ATOM     18  C   UNL d   1      56.130  48.831  48.830  0.00  0.00     0.000 A 
ATOM     19  C   UNL d   1      56.792  49.281  49.031  0.00  0.00     0.000 A 
ENDBRANCH  13  14
ENDBRANCH  12  13
ENDBRANCH  10  12
ENDBRANCH   1   9
BRANCH   2  20
ATOM     20  C   UNL d   1      60.537  47.678  50.851  0.00  0.00     0.281 C 
ATOM     21  O   UNL d   1      60.043  47.186  51.227  0.00  0.00    -0.265 OA
ATOM     22  N   UNL d   1      61.002  47.403  50.272  0.00  0.00    -0.205 NA
ATOM     23  C   UNL d   1      60.971  46.606  50.062  0.00  0.00     0.123 C 
ENDBRANCH   2  20
TORSDOF 5
ENDMDL
