MODEL 1
REMARK VINA RESULT:      -3.2      0.000      0.000
REMARK  5 active torsions:
REMARK  status: ('A' for Active; 'I' for Inactive)
REMARK    1  A    between atoms: N_4  and  C_1 
REMARK    2  A    between atoms: C_8  and  C_3 
REMARK       I    between atoms: C_7  and  N_4 
REMARK    3  A    between atoms: C_11  and  C_7 
REMARK    4  A    between atoms: C_12  and  C_11 
REMARK    5  A    between atoms: O_18  and  C_13 
ROOT
ATOM      1  N   UNL d   1      32.910  18.875 -22.352  0.00  0.00    -0.183 NA
ATOM      2  C   UNL d   1      33.055  19.686 -22.372  0.00  0.00     0.281 C 
ATOM      3  O   UNL d   1      33.016  20.092 -23.096  0.00  0.00    -0.265 OA
ENDROOT
BRANCH   1   4
ATOM      4  C   UNL d   1      32.727  18.471 -23.051  0.00  0.00     0.197 A 
ATOM      5  N   UNL d   1      32.036  18.069 -23.207  0.00  0.00    -0.221 NA
ATOM      6  C   UNL d   1      32.085  17.751 -23.964  0.00  0.00     0.090 A 
ATOM      7  C   UNL d   1      32.820  17.963 -24.275  0.00  0.00     0.058 A 
ATOM      8  S   UNL d   1      33.214  18.414 -23.697  0.00  0.00    -0.046 SA
BRANCH   6   9
ATOM      9  C   UNL d   1      31.518  17.310 -24.338  0.00  0.00     0.021 A 
ATOM     10  C   UNL d   1      30.754  17.618 -24.421  0.00  0.00     0.022 A 
ATOM     11  C   UNL d   1      30.173  17.167 -24.804  0.00  0.00     0.099 A 
ATOM     12  N   UNL d   1      30.363  16.417 -25.096  0.00  0.00    -0.242 NA
ATOM     13  C   UNL d   1      31.116  16.114 -25.013  0.00  0.00     0.099 A 
ATOM     14  C   UNL d   1      31.705  16.560 -24.631  0.00  0.00     0.022 A 
ENDBRANCH   6   9
ENDBRANCH   1   4
BRANCH   2  15
ATOM     15  C   UNL d   1      33.237  20.093 -21.680  0.00  0.00     0.063 C 
BRANCH  15  16
ATOM     16  C   UNL d   1      32.870  20.811 -21.521  0.00  0.00     0.005 A 
ATOM     17  C   UNL d   1      33.068  21.490 -21.967  0.00  0.00     0.002 A 
ATOM     18  C   UNL d   1      32.696  22.203 -21.802  0.00  0.00     0.024 A 
ATOM     19  C   UNL d   1      32.135  22.258 -21.210  0.00  0.00     0.094 A 
ATOM     20  C   UNL d   1      31.937  21.579 -20.765  0.00  0.00     0.024 A 
ATOM     21  C   UNL d   1      32.304  20.862 -20.923  0.00  0.00     0.002 A 
BRANCH  19  22
ATOM     22  O   UNL d   1      31.761  22.973 -21.044  0.00  0.00    -0.328 OA
ATOM     23  C   UNL d   1      32.173  23.604 -20.727  0.00  0.00     0.181 C 
ENDBRANCH  19  22
ENDBRANCH  15  16
ENDBRANCH   2  15
TORSDOF 5
ENDMDL
MODEL 2
REMARK VINA RESULT:      -2.9      1.818      5.254
REMARK  5 active torsions:
REMARK  status: ('A' for Active; 'I' for Inactive)
REMARK    1  A    between atoms: N_4  and  C_1 
REMARK    2  A    between atoms: C_8  and  C_3 
REMARK       I    between atoms: C_7  and  N_4 
REMARK    3  A    between atoms: C_11  and  C_7 
REMARK    4  A    between atoms: C_12  and  C_11 
REMARK    5  A    between atoms: O_18  and  C_13 
ROOT
ATOM      1  N   UNL d   1      32.647  17.913 -23.985  0.00  0.00    -0.183 NA
ATOM      2  C   UNL d   1      31.885  17.766 -24.263  0.00  0.00     0.281 C 
ATOM      3  O   UNL d   1      31.320  18.376 -24.254  0.00  0.00    -0.265 OA
ENDROOT
BRANCH   1   4
ATOM      4  C   UNL d   1      32.845  18.664 -23.701  0.00  0.00     0.197 A 
ATOM      5  N   UNL d   1      32.809  18.909 -22.925  0.00  0.00    -0.221 NA
ATOM      6  C   UNL d   1      33.053  19.694 -22.888  0.00  0.00     0.090 A 
ATOM      7  C   UNL d   1      33.241  19.932 -23.656  0.00  0.00     0.058 A 
ATOM      8  S   UNL d   1      33.107  19.281 -24.158  0.00  0.00    -0.046 SA
BRANCH   6   9
ATOM      9  C   UNL d   1      33.101  20.152 -22.221  0.00  0.00     0.021 A 
ATOM     10  C   UNL d   1      33.188  19.785 -21.484  0.00  0.00     0.022 A 
ATOM     11  C   UNL d   1      33.237  20.253 -20.801  0.00  0.00     0.099 A 
ATOM     12  N   UNL d   1      33.199  21.077 -20.866  0.00  0.00    -0.242 NA
ATOM     13  C   UNL d   1      33.113  21.437 -21.593  0.00  0.00     0.099 A 
ATOM     14  C   UNL d   1      33.063  20.974 -22.283  0.00  0.00     0.022 A 
ENDBRANCH   6   9
ENDBRANCH   1   4
BRANCH   2  15
ATOM     15  C   UNL d   1      31.682  17.020 -24.547  0.00  0.00     0.063 C 
BRANCH  15  16
ATOM     16  C   UNL d   1      31.009  16.645 -24.261  0.00  0.00     0.005 A 
ATOM     17  C   UNL d   1      31.067  16.114 -23.618  0.00  0.00     0.002 A 
ATOM     18  C   UNL d   1      30.389  15.745 -23.339  0.00  0.00     0.024 A 
ATOM     19  C   UNL d   1      29.660  15.887 -23.679  0.00  0.00     0.094 A 
ATOM     20  C   UNL d   1      29.602  16.418 -24.323  0.00  0.00     0.024 A 
ATOM     21  C   UNL d   1      30.275  16.792 -24.608  0.00  0.00     0.002 A 
BRANCH  19  22
ATOM     22  O   UNL d   1      28.979  15.517 -23.400  0.00  0.00    -0.328 OA
ATOM     23  C   UNL d   1      28.289  15.937 -23.276  0.00  0.00     0.181 C 
ENDBRANCH  19  22
ENDBRANCH  15  16
ENDBRANCH   2  15
TORSDOF 5
ENDMDL
