MODEL 1
REMARK VINA RESULT:      68.0      0.000      0.000
REMARK  4 active torsions:
REMARK  status: ('A' for Active; 'I' for Inactive)
REMARK    1  A    between atoms: C_2  and  S_1 
REMARK    2  A    between atoms: N_3  and  S_1 
REMARK    3  A    between atoms: C_4  and  C_6 
REMARK       I    between atoms: N_5  and  C_4 
REMARK    4  A    between atoms: C_11  and  N_8 
ROOT
ATOM      1  C   UNL d   1      13.936  12.543  -1.625  0.00  0.00     0.104 A 
ATOM      2  C   UNL d   1      14.814  12.954  -0.583  0.00  0.00     0.057 A 
ATOM      3  C   UNL d   1      14.616  12.934  -1.386  0.00  0.00     0.018 A 
ATOM      4  C   UNL d   1      13.450  12.171  -1.079  0.00  0.00     0.012 A 
ATOM      5  C   UNL d   1      14.331  12.583  -0.029  0.00  0.00     0.005 A 
ATOM      6  C   UNL d   1      13.648  12.191  -0.276  0.00  0.00     0.001 A 
ATOM      7  C   UNL d   1      12.770  11.779  -1.318  0.00  0.00     0.001 C 
ENDROOT
BRANCH   2   8
ATOM      8  C   UNL d   1      15.496  13.344  -0.326  0.00  0.00     0.265 C 
ATOM      9  N   UNL d   1      15.536  14.166  -0.388  0.00  0.00    -0.269 N 
ATOM     10  C   UNL d   1      16.209  14.557  -0.135  0.00  0.00     0.102 A 
ATOM     11  C   UNL d   1      14.897  14.583  -0.705  0.00  0.00     0.102 A 
ATOM     12  C   UNL d   1      16.250  15.379  -0.197  0.00  0.00     0.100 A 
ATOM     13  N   UNL d   1      15.614  15.802  -0.513  0.00  0.00    -0.301 N 
ATOM     14  C   UNL d   1      14.940  15.403  -0.765  0.00  0.00     0.100 A 
ATOM     15  O   UNL d   1      16.121  12.918  -0.015  0.00  0.00    -0.267 OA
BRANCH  13  16
ATOM     16  C   UNL d   1      15.655  16.624  -0.575  0.00  0.00     0.064 A 
ATOM     17  C   UNL d   1      14.991  17.051  -0.822  0.00  0.00     0.020 A 
ATOM     18  C   UNL d   1      15.033  17.873  -0.884  0.00  0.00     0.031 A 
ATOM     19  C   UNL d   1      15.730  18.272  -0.701  0.00  0.00     0.140 A 
ATOM     20  C   UNL d   1      16.398  17.837  -0.451  0.00  0.00     0.031 A 
ATOM     21  F   UNL d   1      15.772  19.093  -0.762  0.00  0.00    -0.204 F 
ATOM     22  C   UNL d   1      16.358  17.015  -0.389  0.00  0.00     0.020 A 
ENDBRANCH  13  16
ENDBRANCH   2   8
BRANCH   1  23
ATOM     23  S   UNL d   1      13.738  12.523  -2.428  0.00  0.00     0.271 S 
ATOM     24  O   UNL d   1      14.091  11.780  -2.497  0.00  0.00    -0.200 OA
ATOM     25  O   UNL d   1      13.331  13.380  -2.349  0.00  0.00    -0.200 OA
BRANCH  23  26
ATOM     26  N   UNL d   1      13.514  12.560  -3.221  0.00  0.00    -0.229 N 
ATOM     27  C   UNL d   1      13.403  13.295  -3.572  0.00  0.00     0.092 A 
ATOM     28  C   UNL d   1      13.177  13.336  -4.369  0.00  0.00     0.020 A 
ATOM     29  C   UNL d   1      13.069  12.641  -4.794  0.00  0.00     0.003 A 
ATOM     30  C   UNL d   1      13.181  11.915  -4.440  0.00  0.00     0.020 A 
ATOM     31  C   UNL d   1      13.403  11.870  -3.657  0.00  0.00     0.092 A 
ENDBRANCH  23  26
ENDBRANCH   1  23
TORSDOF 4
ENDMDL
MODEL 2
REMARK VINA RESULT:      70.1      2.342      4.469
REMARK  4 active torsions:
REMARK  status: ('A' for Active; 'I' for Inactive)
REMARK    1  A    between atoms: C_2  and  S_1 
REMARK    2  A    between atoms: N_3  and  S_1 
REMARK    3  A    between atoms: C_4  and  C_6 
REMARK       I    between atoms: N_5  and  C_4 
REMARK    4  A    between atoms: C_11  and  N_8 
ROOT
ATOM      1  C   UNL d   1      13.886  12.518  -2.628  0.00  0.00     0.104 A 
ATOM      2  C   UNL d   1      13.635  12.486  -4.029  0.00  0.00     0.057 A 
ATOM      3  C   UNL d   1      14.092  12.742  -3.389  0.00  0.00     0.018 A 
ATOM      4  C   UNL d   1      13.231  12.043  -2.492  0.00  0.00     0.012 A 
ATOM      5  C   UNL d   1      12.976  12.008  -3.900  0.00  0.00     0.005 A 
ATOM      6  C   UNL d   1      12.773  11.786  -3.132  0.00  0.00     0.001 A 
ATOM      7  C   UNL d   1      13.023  11.818  -1.730  0.00  0.00     0.001 C 
ENDROOT
BRANCH   2   8
ATOM      8  C   UNL d   1      13.830  12.703  -4.801  0.00  0.00     0.265 C 
ATOM      9  N   UNL d   1      13.777  13.496  -5.022  0.00  0.00    -0.269 N 
ATOM     10  C   UNL d   1      13.969  13.716  -5.786  0.00  0.00     0.102 A 
ATOM     11  C   UNL d   1      13.530  14.057  -4.468  0.00  0.00     0.102 A 
ATOM     12  C   UNL d   1      13.916  14.510  -6.006  0.00  0.00     0.100 A 
ATOM     13  N   UNL d   1      13.670  15.077  -5.458  0.00  0.00    -0.301 N 
ATOM     14  C   UNL d   1      13.478  14.848  -4.691  0.00  0.00     0.100 A 
ATOM     15  O   UNL d   1      14.073  12.136  -5.339  0.00  0.00    -0.267 OA
BRANCH  13  16
ATOM     16  C   UNL d   1      13.617  15.870  -5.679  0.00  0.00     0.064 A 
ATOM     17  C   UNL d   1      14.187  16.409  -5.416  0.00  0.00     0.020 A 
ATOM     18  C   UNL d   1      14.133  17.202  -5.637  0.00  0.00     0.031 A 
ATOM     19  C   UNL d   1      13.515  17.462  -6.117  0.00  0.00     0.140 A 
ATOM     20  C   UNL d   1      12.942  16.915  -6.380  0.00  0.00     0.031 A 
ATOM     21  F   UNL d   1      13.461  18.255  -6.338  0.00  0.00    -0.204 F 
ATOM     22  C   UNL d   1      12.995  16.121  -6.160  0.00  0.00     0.020 A 
ENDBRANCH  13  16
ENDBRANCH   2   8
BRANCH   1  23
ATOM     23  S   UNL d   1      14.343  12.774  -1.988  0.00  0.00     0.271 S 
ATOM     24  O   UNL d   1      14.085  13.549  -2.113  0.00  0.00    -0.200 OA
ATOM     25  O   UNL d   1      14.642  11.882  -1.844  0.00  0.00    -0.200 OA
BRANCH  23  26
ATOM     26  N   UNL d   1      14.818  12.970  -1.343  0.00  0.00    -0.229 N 
ATOM     27  C   UNL d   1      14.740  13.712  -0.998  0.00  0.00     0.092 A 
ATOM     28  C   UNL d   1      15.215  13.913  -0.349  0.00  0.00     0.020 A 
ATOM     29  C   UNL d   1      15.757  13.366  -0.062  0.00  0.00     0.003 A 
ATOM     30  C   UNL d   1      15.830  12.631  -0.408  0.00  0.00     0.020 A 
ATOM     31  C   UNL d   1      15.364  12.430  -1.047  0.00  0.00     0.092 A 
ENDBRANCH  23  26
ENDBRANCH   1  23
TORSDOF 4
ENDMDL
