MODEL 1
REMARK VINA RESULT:      20.9      0.000      0.000
REMARK  3 active torsions:
REMARK  status: ('A' for Active; 'I' for Inactive)
REMARK    1  A    between atoms: C_9  and  C_1 
REMARK    2  A    between atoms: C_11  and  C_2 
REMARK    3  A    between atoms: C_3  and  C_9 
ROOT
ATOM      1  C   UNL d   1      23.580  12.439  -2.449  0.00  0.00     0.003 A 
ATOM      2  C   UNL d   1      24.167  12.552  -3.973  0.00  0.00    -0.023 A 
ATOM      3  C   UNL d   1      23.135  12.796  -3.041  0.00  0.00    -0.000 A 
ATOM      4  C   UNL d   1      24.315  12.141  -2.625  0.00  0.00    -0.000 A 
ATOM      5  C   UNL d   1      24.613  12.194  -3.384  0.00  0.00    -0.004 A 
ATOM      6  C   UNL d   1      23.432  12.849  -3.797  0.00  0.00    -0.004 A 
ATOM      7  C   UNL d   1      24.767  11.779  -2.030  0.00  0.00    -0.000 C 
ATOM      8  C   UNL d   1      22.386  13.102  -2.870  0.00  0.00    -0.000 C 
ENDROOT
BRANCH   1   9
ATOM      9  C   UNL d   1      23.279  12.384  -1.682  0.00  0.00     0.039 C 
BRANCH   9  10
ATOM     10  C   UNL d   1      23.212  12.907  -1.044  0.00  0.00     0.163 A 
ATOM     11  N   UNL d   1      23.814  13.383  -0.739  0.00  0.00    -0.224 NA
ATOM     12  C   UNL d   1      23.498  13.809  -0.110  0.00  0.00     0.121 A 
ATOM     13  C   UNL d   1      22.705  13.605  -0.016  0.00  0.00     0.121 A 
ATOM     14  N   UNL d   1      22.522  13.045  -0.593  0.00  0.00    -0.224 NA
ENDBRANCH   9  10
ENDBRANCH   1   9
BRANCH   2  15
ATOM     15  C   UNL d   1      24.467  12.606  -4.739  0.00  0.00     0.019 C 
ATOM     16  C   UNL d   1      24.768  12.660  -5.505  0.00  0.00     0.004 C 
ATOM     17  C   UNL d   1      24.690  11.812  -4.708  0.00  0.00     0.004 C 
ATOM     18  C   UNL d   1      24.245  13.400  -4.770  0.00  0.00     0.004 C 
ENDBRANCH   2  15
TORSDOF 3
ENDMDL
MODEL 2
REMARK VINA RESULT:      23.7      9.142     10.383
REMARK  3 active torsions:
REMARK  status: ('A' for Active; 'I' for Inactive)
REMARK    1  A    between atoms: C_9  and  C_1 
REMARK    2  A    between atoms: C_11  and  C_2 
REMARK    3  A    between atoms: C_3  and  C_9 
ROOT
ATOM      1  C   UNL d   1      13.609  12.811  -2.677  0.00  0.00     0.003 A 
ATOM      2  C   UNL d   1      14.568  12.688  -1.356  0.00  0.00    -0.023 A 
ATOM      3  C   UNL d   1      14.269  13.294  -2.595  0.00  0.00    -0.000 A 
ATOM      4  C   UNL d   1      13.435  12.270  -2.097  0.00  0.00    -0.000 A 
ATOM      5  C   UNL d   1      13.910  12.204  -1.436  0.00  0.00    -0.004 A 
ATOM      6  C   UNL d   1      14.742  13.229  -1.937  0.00  0.00    -0.004 A 
ATOM      7  C   UNL d   1      12.769  11.780  -2.176  0.00  0.00    -0.000 C 
ATOM      8  C   UNL d   1      14.454  13.848  -3.181  0.00  0.00    -0.000 C 
ENDROOT
BRANCH   1   9
ATOM      9  C   UNL d   1      13.129  12.877  -3.345  0.00  0.00     0.039 C 
BRANCH   9  10
ATOM     10  C   UNL d   1      13.152  12.569  -4.112  0.00  0.00     0.163 A 
ATOM     11  N   UNL d   1      12.772  12.884  -4.776  0.00  0.00    -0.224 NA
ATOM     12  C   UNL d   1      12.948  12.398  -5.415  0.00  0.00     0.121 A 
ATOM     13  C   UNL d   1      13.433  11.781  -5.162  0.00  0.00     0.121 A 
ATOM     14  N   UNL d   1      13.563  11.882  -4.354  0.00  0.00    -0.224 NA
ENDBRANCH   9  10
ENDBRANCH   1   9
BRANCH   2  15
ATOM     15  C   UNL d   1      15.048  12.621  -0.688  0.00  0.00     0.019 C 
ATOM     16  C   UNL d   1      15.527  12.555  -0.021  0.00  0.00     0.004 C 
ATOM     17  C   UNL d   1      15.175  11.824  -0.859  0.00  0.00     0.004 C 
ATOM     18  C   UNL d   1      14.920  13.418  -0.518  0.00  0.00     0.004 C 
ENDBRANCH   2  15
TORSDOF 3
ENDMDL
