MODEL 1
REMARK VINA RESULT:      -5.3      0.000      0.000
REMARK  7 active torsions:
REMARK  status: ('A' for Active; 'I' for Inactive)
REMARK    1  A    between atoms: N_2  and  C_1 
REMARK    2  A    between atoms: N_4  and  C_3 
REMARK       I    between atoms: C_6  and  N_4 
REMARK    3  A    between atoms: C_7  and  C_6 
REMARK    4  A    between atoms: C_10  and  C_7 
REMARK    5  A    between atoms: C_14  and  C_10 
REMARK    6  A    between atoms: O_16  and  C_13 
REMARK    7  A    between atoms: C_17  and  O_16 
ROOT
ATOM      1  C   UNL d   1     -42.166-122.556 -50.323  0.00  0.00     0.146 A 
ATOM      2  C   UNL d   1     -41.634-122.829 -50.845  0.00  0.00     0.107 A 
ATOM      3  C   UNL d   1     -42.218-122.884 -49.570  0.00  0.00     0.050 A 
ATOM      4  C   UNL d   1     -41.124-123.455 -50.626  0.00  0.00     0.023 A 
ATOM      5  C   UNL d   1     -41.733-123.493 -49.334  0.00  0.00     0.102 A 
ATOM      6  C   UNL d   1     -41.173-123.781 -49.881  0.00  0.00     0.026 A 
ENDROOT
BRANCH   2   7
ATOM      7  N   UNL d   1     -41.553-122.515 -51.628  0.00  0.00    -0.206 NA
ATOM      8  C   UNL d   1     -41.287-123.006 -52.178  0.00  0.00     0.279 C 
ATOM      9  O   UNL d   1     -41.123-123.602 -52.131  0.00  0.00    -0.265 OA
BRANCH   8  10
ATOM     10  C   UNL d   1     -41.209-122.692 -52.952  0.00  0.00     0.062 C 
BRANCH  10  11
ATOM     11  C   UNL d   1     -41.478-123.109 -53.613  0.00  0.00     0.005 C 
BRANCH  11  12
ATOM     12  C   UNL d   1     -41.681-122.689 -54.303  0.00  0.00     0.000 A 
ATOM     13  C   UNL d   1     -42.346-122.296 -54.347  0.00  0.00     0.000 A 
ATOM     14  C   UNL d   1     -42.509-121.890 -55.057  0.00  0.00     0.000 A 
ATOM     15  C   UNL d   1     -41.978-121.917 -55.670  0.00  0.00     0.000 A 
ATOM     16  C   UNL d   1     -41.309-122.314 -55.622  0.00  0.00     0.000 A 
ATOM     17  C   UNL d   1     -41.138-122.719 -54.927  0.00  0.00     0.000 A 
ENDBRANCH  11  12
ENDBRANCH  10  11
ENDBRANCH   8  10
ENDBRANCH   2   7
BRANCH   1  18
ATOM     18  N   UNL d   1     -42.664-121.927 -50.573  0.00  0.00    -0.112 N 
ATOM     19  O   UNL d   1     -42.366-121.188 -50.750  0.00  0.00    -0.532 OA
ATOM     20  O   UNL d   1     -43.507-122.062 -50.646  0.00  0.00    -0.532 OA
ENDBRANCH   1  18
BRANCH   5  21
ATOM     21  O   UNL d   1     -41.799-123.815 -48.564  0.00  0.00    -0.305 OA
BRANCH  21  22
ATOM     22  C   UNL d   1     -42.040-123.381 -47.944  0.00  0.00     0.123 C 
ATOM     23  C   UNL d   1     -42.074-123.728 -47.163  0.00  0.00     0.029 C 
ENDBRANCH  21  22
ENDBRANCH   5  21
TORSDOF 7
ENDMDL
