MODEL 1
REMARK VINA RESULT:      57.7      0.000      0.000
REMARK  6 active torsions:
REMARK  status: ('A' for Active; 'I' for Inactive)
REMARK    1  A    between atoms: C_6  and  S_1 
REMARK    2  A    between atoms: N_7  and  S_1 
REMARK    3  A    between atoms: N_2  and  C_3 
REMARK       I    between atoms: C_4  and  N_2 
REMARK    4  A    between atoms: C_3  and  N_11 
REMARK    5  A    between atoms: C_5  and  C_4 
REMARK    6  A    between atoms: N_11  and  C_19 
ROOT
ATOM      1  C   UNL d   1     -50.729  26.058  33.591  0.00  0.00     0.104 A 
ATOM      2  C   UNL d   1     -49.964  25.919  33.306  0.00  0.00     0.014 A 
ATOM      3  C   UNL d   1     -50.930  26.779  33.928  0.00  0.00     0.014 A 
ATOM      4  C   UNL d   1     -49.597  27.256  33.706  0.00  0.00     0.084 A 
ATOM      5  C   UNL d   1     -50.365  27.385  33.988  0.00  0.00     0.020 A 
ATOM      6  C   UNL d   1     -49.394  26.527  33.365  0.00  0.00     0.020 A 
ENDROOT
BRANCH   4   7
ATOM      7  N   UNL d   1     -49.031  27.871  33.769  0.00  0.00    -0.217 NA
BRANCH   7   8
ATOM      8  C   UNL d   1     -48.958  28.256  34.430  0.00  0.00     0.224 C 
ATOM      9  S   UNL d   1     -48.855  27.876  35.104  0.00  0.00    -0.037 SA
BRANCH   8  10
ATOM     10  N   UNL d   1     -49.025  29.641  34.315  0.00  0.00    -0.178 NA
ATOM     11  C   UNL d   1     -48.489  30.085  34.680  0.00  0.00     0.287 C 
ATOM     12  O   UNL d   1     -48.530  30.879  34.611  0.00  0.00    -0.265 OA
BRANCH  11  13
ATOM     13  C   UNL d   1     -47.928  29.747  35.101  0.00  0.00     0.087 A 
ATOM     14  S   UNL d   1     -47.888  29.675  35.883  0.00  0.00    -0.082 SA
ATOM     15  C   UNL d   1     -47.226  29.297  36.052  0.00  0.00     0.036 A 
ATOM     16  C   UNL d   1     -46.860  29.135  35.403  0.00  0.00     0.008 A 
ATOM     17  C   UNL d   1     -47.278  29.405  34.806  0.00  0.00     0.012 A 
ENDBRANCH  11  13
ENDBRANCH   8  10
ENDBRANCH   7   8
ENDBRANCH   4   7
BRANCH   1  18
ATOM     18  S   UNL d   1     -51.305  25.461  33.537  0.00  0.00     0.271 S 
ATOM     19  O   UNL d   1     -50.739  24.910  33.306  0.00  0.00    -0.200 OA
ATOM     20  O   UNL d   1     -51.894  26.011  33.773  0.00  0.00    -0.200 OA
BRANCH  18  21
ATOM     21  N   UNL d   1     -51.920  24.863  33.490  0.00  0.00    -0.226 N 
ATOM     22  C   UNL d   1     -52.712  25.067  33.306  0.00  0.00     0.111 C 
ATOM     23  C   UNL d   1     -51.703  24.070  33.634  0.00  0.00     0.111 C 
ENDBRANCH  18  21
ENDBRANCH   1  18
TORSDOF 6
ENDMDL
MODEL 2
REMARK VINA RESULT:      59.0      1.049      1.376
REMARK  6 active torsions:
REMARK  status: ('A' for Active; 'I' for Inactive)
REMARK    1  A    between atoms: C_6  and  S_1 
REMARK    2  A    between atoms: N_7  and  S_1 
REMARK    3  A    between atoms: N_2  and  C_3 
REMARK       I    between atoms: C_4  and  N_2 
REMARK    4  A    between atoms: C_3  and  N_11 
REMARK    5  A    between atoms: C_5  and  C_4 
REMARK    6  A    between atoms: N_11  and  C_19 
ROOT
ATOM      1  C   UNL d   1     -50.340  25.844  33.363  0.00  0.00     0.104 A 
ATOM      2  C   UNL d   1     -49.514  25.793  33.389  0.00  0.00     0.014 A 
ATOM      3  C   UNL d   1     -50.719  26.573  33.360  0.00  0.00     0.014 A 
ATOM      4  C   UNL d   1     -49.449  27.234  33.407  0.00  0.00     0.084 A 
ATOM      5  C   UNL d   1     -50.275  27.275  33.382  0.00  0.00     0.020 A 
ATOM      6  C   UNL d   1     -49.066  26.498  33.411  0.00  0.00     0.020 A 
ENDROOT
BRANCH   4   7
ATOM      7  N   UNL d   1     -49.006  27.947  33.429  0.00  0.00    -0.217 NA
BRANCH   7   8
ATOM      8  C   UNL d   1     -49.125  28.452  33.995  0.00  0.00     0.224 C 
ATOM      9  S   UNL d   1     -49.615  29.052  33.899  0.00  0.00    -0.037 SA
BRANCH   8  10
ATOM     10  N   UNL d   1     -48.412  28.204  35.164  0.00  0.00    -0.178 NA
ATOM     11  C   UNL d   1     -48.017  28.790  35.508  0.00  0.00     0.287 C 
ATOM     12  O   UNL d   1     -47.609  28.644  36.178  0.00  0.00    -0.265 OA
BRANCH  11  13
ATOM     13  C   UNL d   1     -48.029  29.502  35.192  0.00  0.00     0.087 A 
ATOM     14  S   UNL d   1     -48.559  29.801  34.696  0.00  0.00    -0.082 SA
ATOM     15  C   UNL d   1     -48.342  30.533  34.529  0.00  0.00     0.036 A 
ATOM     16  C   UNL d   1     -47.698  30.691  34.907  0.00  0.00     0.008 A 
ATOM     17  C   UNL d   1     -47.490  30.068  35.320  0.00  0.00     0.012 A 
ENDBRANCH  11  13
ENDBRANCH   8  10
ENDBRANCH   7   8
ENDBRANCH   4   7
BRANCH   1  18
ATOM     18  S   UNL d   1     -50.797  25.150  33.341  0.00  0.00     0.271 S 
ATOM     19  O   UNL d   1     -51.494  25.586  33.336  0.00  0.00    -0.200 OA
ATOM     20  O   UNL d   1     -50.093  24.691  33.346  0.00  0.00    -0.200 OA
BRANCH  18  21
ATOM     21  N   UNL d   1     -51.243  24.417  33.318  0.00  0.00    -0.226 N 
ATOM     22  C   UNL d   1     -50.858  23.672  33.307  0.00  0.00     0.111 C 
ATOM     23  C   UNL d   1     -52.077  24.470  33.307  0.00  0.00     0.111 C 
ENDBRANCH  18  21
ENDBRANCH   1  18
TORSDOF 6
ENDMDL
