MODEL 1
REMARK VINA RESULT:      -8.3      0.000      0.000
REMARK  3 active torsions:
REMARK  status: ('A' for Active; 'I' for Inactive)
REMARK    1  A    between atoms: C_7  and  N_1 
REMARK    2  A    between atoms: C_5  and  C_2 
REMARK    3  A    between atoms: C_11  and  C_7 
ROOT
ATOM      1  N   UNL d   1     -48.337  12.028  22.763  0.00  0.00    -0.262 N 
ATOM      2  C   UNL d   1     -49.162  11.975  22.784  0.00  0.00     0.173 A 
ATOM      3  N   UNL d   1     -49.341  11.424  23.369  0.00  0.00    -0.128 NA
ATOM      4  C   UNL d   1     -48.018  11.530  23.313  0.00  0.00     0.227 A 
ATOM      5  N   UNL d   1     -48.639  11.147  23.698  0.00  0.00    -0.117 NA
ATOM      6  S   UNL d   1     -47.229  11.361  23.531  0.00  0.00    -0.036 SA
ENDROOT
BRANCH   2   7
ATOM      7  C   UNL d   1     -49.707  12.382  22.322  0.00  0.00     0.064 A 
ATOM      8  C   UNL d   1     -49.953  12.611  21.573  0.00  0.00     0.143 A 
ATOM      9  F   UNL d   1     -49.413  12.291  21.030  0.00  0.00    -0.204 F 
ATOM     10  C   UNL d   1     -50.636  13.081  21.493  0.00  0.00     0.030 A 
ATOM     11  C   UNL d   1     -51.064  13.315  22.158  0.00  0.00     0.002 A 
ATOM     12  C   UNL d   1     -50.811  13.081  22.901  0.00  0.00     0.000 A 
ATOM     13  C   UNL d   1     -50.128  12.612  22.988  0.00  0.00     0.005 A 
ENDBRANCH   2   7
BRANCH   1  14
ATOM     14  C   UNL d   1     -47.886  12.512  22.263  0.00  0.00     0.108 C 
BRANCH  14  15
ATOM     15  C   UNL d   1     -47.363  13.055  22.593  0.00  0.00     0.118 A 
ATOM     16  O   UNL d   1     -47.561  13.675  23.101  0.00  0.00    -0.304 OA
ATOM     17  C   UNL d   1     -46.874  14.083  23.301  0.00  0.00     0.123 A 
ATOM     18  C   UNL d   1     -46.247  13.708  22.910  0.00  0.00     0.029 A 
ATOM     19  C   UNL d   1     -46.546  13.075  22.474  0.00  0.00     0.028 A 
ENDBRANCH  14  15
ENDBRANCH   1  14
TORSDOF 3
ENDMDL
MODEL 2
REMARK VINA RESULT:      -8.0      1.864      3.292
REMARK  3 active torsions:
REMARK  status: ('A' for Active; 'I' for Inactive)
REMARK    1  A    between atoms: C_7  and  N_1 
REMARK    2  A    between atoms: C_5  and  C_2 
REMARK    3  A    between atoms: C_11  and  C_7 
ROOT
ATOM      1  N   UNL d   1     -49.158  13.233  22.380  0.00  0.00    -0.262 N 
ATOM      2  C   UNL d   1     -48.417  12.923  22.184  0.00  0.00     0.173 A 
ATOM      3  N   UNL d   1     -48.429  12.797  21.370  0.00  0.00    -0.128 NA
ATOM      4  C   UNL d   1     -49.611  13.296  21.714  0.00  0.00     0.227 A 
ATOM      5  N   UNL d   1     -49.163  13.025  21.076  0.00  0.00    -0.117 NA
ATOM      6  S   UNL d   1     -50.391  13.567  21.585  0.00  0.00    -0.036 SA
ENDROOT
BRANCH   2   7
ATOM      7  C   UNL d   1     -47.786  12.767  22.687  0.00  0.00     0.064 A 
ATOM      8  C   UNL d   1     -47.509  12.394  23.364  0.00  0.00     0.143 A 
ATOM      9  F   UNL d   1     -48.150  11.987  23.698  0.00  0.00    -0.204 F 
ATOM     10  C   UNL d   1     -46.708  12.479  23.580  0.00  0.00     0.030 A 
ATOM     11  C   UNL d   1     -46.196  12.934  23.119  0.00  0.00     0.002 A 
ATOM     12  C   UNL d   1     -46.482  13.302  22.447  0.00  0.00     0.000 A 
ATOM     13  C   UNL d   1     -47.281  13.221  22.225  0.00  0.00     0.005 A 
ENDBRANCH   2   7
BRANCH   1  14
ATOM     14  C   UNL d   1     -49.418  13.452  23.136  0.00  0.00     0.108 C 
BRANCH  14  15
ATOM     15  C   UNL d   1     -49.643  14.231  23.274  0.00  0.00     0.118 A 
ATOM     16  O   UNL d   1     -49.215  14.905  23.067  0.00  0.00    -0.304 OA
ATOM     17  C   UNL d   1     -49.637  15.572  23.305  0.00  0.00     0.123 A 
ATOM     18  C   UNL d   1     -50.333  15.301  23.662  0.00  0.00     0.029 A 
ATOM     19  C   UNL d   1     -50.339  14.476  23.644  0.00  0.00     0.028 A 
ENDBRANCH  14  15
ENDBRANCH   1  14
TORSDOF 3
ENDMDL
MODEL 3
REMARK VINA RESULT:      -7.7      1.462      2.946
REMARK  3 active torsions:
REMARK  status: ('A' for Active; 'I' for Inactive)
REMARK    1  A    between atoms: C_7  and  N_1 
REMARK    2  A    between atoms: C_5  and  C_2 
REMARK    3  A    between atoms: C_11  and  C_7 
ROOT
ATOM      1  N   UNL d   1     -49.305  12.676  22.673  0.00  0.00    -0.262 N 
ATOM      2  C   UNL d   1     -48.581  12.304  22.821  0.00  0.00     0.173 A 
ATOM      3  N   UNL d   1     -48.762  11.588  23.186  0.00  0.00    -0.128 NA
ATOM      4  C   UNL d   1     -49.910  12.209  22.936  0.00  0.00     0.227 A 
ATOM      5  N   UNL d   1     -49.579  11.525  23.258  0.00  0.00    -0.117 NA
ATOM      6  S   UNL d   1     -50.739  12.304  22.930  0.00  0.00    -0.036 SA
ENDROOT
BRANCH   2   7
ATOM      7  C   UNL d   1     -47.827  12.580  22.646  0.00  0.00     0.064 A 
ATOM      8  C   UNL d   1     -47.312  12.901  22.093  0.00  0.00     0.143 A 
ATOM      9  F   UNL d   1     -47.739  12.991  21.387  0.00  0.00    -0.204 F 
ATOM     10  C   UNL d   1     -46.525  13.065  22.313  0.00  0.00     0.030 A 
ATOM     11  C   UNL d   1     -46.263  12.908  23.079  0.00  0.00     0.002 A 
ATOM     12  C   UNL d   1     -46.783  12.588  23.624  0.00  0.00     0.000 A 
ATOM     13  C   UNL d   1     -47.572  12.421  23.411  0.00  0.00     0.005 A 
ENDBRANCH   2   7
BRANCH   1  14
ATOM     14  C   UNL d   1     -49.416  13.414  22.313  0.00  0.00     0.108 C 
BRANCH  14  15
ATOM     15  C   UNL d   1     -49.794  14.013  22.731  0.00  0.00     0.118 A 
ATOM     16  O   UNL d   1     -49.593  14.283  23.484  0.00  0.00    -0.304 OA
ATOM     17  C   UNL d   1     -50.111  14.887  23.698  0.00  0.00     0.123 A 
ATOM     18  C   UNL d   1     -50.638  14.987  23.066  0.00  0.00     0.029 A 
ATOM     19  C   UNL d   1     -50.445  14.450  22.471  0.00  0.00     0.028 A 
ENDBRANCH  14  15
ENDBRANCH   1  14
TORSDOF 3
ENDMDL
MODEL 4
REMARK VINA RESULT:      -7.5      1.890      3.549
REMARK  3 active torsions:
REMARK  status: ('A' for Active; 'I' for Inactive)
REMARK    1  A    between atoms: C_7  and  N_1 
REMARK    2  A    between atoms: C_5  and  C_2 
REMARK    3  A    between atoms: C_11  and  C_7 
ROOT
ATOM      1  N   UNL d   1     -49.062  13.985  22.273  0.00  0.00    -0.262 N 
ATOM      2  C   UNL d   1     -48.292  14.269  22.370  0.00  0.00     0.173 A 
ATOM      3  N   UNL d   1     -48.365  15.067  22.560  0.00  0.00    -0.128 NA
ATOM      4  C   UNL d   1     -49.592  14.583  22.399  0.00  0.00     0.227 A 
ATOM      5  N   UNL d   1     -49.164  15.265  22.579  0.00  0.00    -0.117 NA
ATOM      6  S   UNL d   1     -50.426  14.612  22.375  0.00  0.00    -0.036 SA
ENDROOT
BRANCH   2   7
ATOM      7  C   UNL d   1     -47.587  13.853  22.295  0.00  0.00     0.064 A 
ATOM      8  C   UNL d   1     -47.131  13.327  21.862  0.00  0.00     0.143 A 
ATOM      9  F   UNL d   1     -47.575  13.110  21.195  0.00  0.00    -0.204 F 
ATOM     10  C   UNL d   1     -46.373  13.118  22.137  0.00  0.00     0.030 A 
ATOM     11  C   UNL d   1     -46.080  13.438  22.840  0.00  0.00     0.002 A 
ATOM     12  C   UNL d   1     -46.543  13.962  23.265  0.00  0.00     0.000 A 
ATOM     13  C   UNL d   1     -47.302  14.175  22.995  0.00  0.00     0.005 A 
ENDBRANCH   2   7
BRANCH   1  14
ATOM     14  C   UNL d   1     -49.282  13.210  22.077  0.00  0.00     0.108 C 
BRANCH  14  15
ATOM     15  C   UNL d   1     -49.754  12.782  22.598  0.00  0.00     0.118 A 
ATOM     16  O   UNL d   1     -49.548  12.549  23.363  0.00  0.00    -0.304 OA
ATOM     17  C   UNL d   1     -50.178  12.132  23.692  0.00  0.00     0.123 A 
ATOM     18  C   UNL d   1     -50.778  12.110  23.121  0.00  0.00     0.029 A 
ATOM     19  C   UNL d   1     -50.518  12.509  22.447  0.00  0.00     0.028 A 
ENDBRANCH  14  15
ENDBRANCH   1  14
TORSDOF 3
ENDMDL
MODEL 5
REMARK VINA RESULT:      -7.4      1.922      2.208
REMARK  3 active torsions:
REMARK  status: ('A' for Active; 'I' for Inactive)
REMARK    1  A    between atoms: C_7  and  N_1 
REMARK    2  A    between atoms: C_5  and  C_2 
REMARK    3  A    between atoms: C_11  and  C_7 
ROOT
ATOM      1  N   UNL d   1     -48.752  13.311  22.440  0.00  0.00    -0.262 N 
ATOM      2  C   UNL d   1     -49.273  13.918  22.230  0.00  0.00     0.173 A 
ATOM      3  N   UNL d   1     -49.634  13.678  21.530  0.00  0.00    -0.128 NA
ATOM      4  C   UNL d   1     -48.788  12.719  21.891  0.00  0.00     0.227 A 
ATOM      5  N   UNL d   1     -49.338  12.940  21.317  0.00  0.00    -0.117 NA
ATOM      6  S   UNL d   1     -48.391  11.987  21.824  0.00  0.00    -0.036 SA
ENDROOT
BRANCH   2   7
ATOM      7  C   UNL d   1     -49.414  14.623  22.629  0.00  0.00     0.064 A 
ATOM      8  C   UNL d   1     -49.194  15.400  22.770  0.00  0.00     0.143 A 
ATOM      9  F   UNL d   1     -48.527  15.554  22.299  0.00  0.00    -0.204 F 
ATOM     10  C   UNL d   1     -49.634  15.860  23.308  0.00  0.00     0.030 A 
ATOM     11  C   UNL d   1     -50.286  15.538  23.698  0.00  0.00     0.002 A 
ATOM     12  C   UNL d   1     -50.497  14.761  23.551  0.00  0.00     0.000 A 
ATOM     13  C   UNL d   1     -50.062  14.296  23.014  0.00  0.00     0.005 A 
ENDBRANCH   2   7
BRANCH   1  14
ATOM     14  C   UNL d   1     -48.258  13.292  23.106  0.00  0.00     0.108 C 
BRANCH  14  15
ATOM     15  C   UNL d   1     -47.446  13.212  23.002  0.00  0.00     0.118 A 
ATOM     16  O   UNL d   1     -46.969  13.679  22.517  0.00  0.00    -0.304 OA
ATOM     17  C   UNL d   1     -46.191  13.413  22.574  0.00  0.00     0.123 A 
ATOM     18  C   UNL d   1     -46.193  12.774  23.101  0.00  0.00     0.029 A 
ATOM     19  C   UNL d   1     -46.964  12.648  23.365  0.00  0.00     0.028 A 
ENDBRANCH  14  15
ENDBRANCH   1  14
TORSDOF 3
ENDMDL
MODEL 6
REMARK VINA RESULT:      -6.0      1.673      1.995
REMARK  3 active torsions:
REMARK  status: ('A' for Active; 'I' for Inactive)
REMARK    1  A    between atoms: C_7  and  N_1 
REMARK    2  A    between atoms: C_5  and  C_2 
REMARK    3  A    between atoms: C_11  and  C_7 
ROOT
ATOM      1  N   UNL d   1     -48.572  14.051  22.459  0.00  0.00    -0.262 N 
ATOM      2  C   UNL d   1     -49.373  13.989  22.655  0.00  0.00     0.173 A 
ATOM      3  N   UNL d   1     -49.598  14.732  22.930  0.00  0.00    -0.128 NA
ATOM      4  C   UNL d   1     -48.312  14.801  22.606  0.00  0.00     0.227 A 
ATOM      5  N   UNL d   1     -48.948  15.235  22.902  0.00  0.00    -0.117 NA
ATOM      6  S   UNL d   1     -47.568  15.169  22.514  0.00  0.00    -0.036 SA
ENDROOT
BRANCH   2   7
ATOM      7  C   UNL d   1     -49.858  13.328  22.594  0.00  0.00     0.064 A 
ATOM      8  C   UNL d   1     -50.151  12.719  22.129  0.00  0.00     0.143 A 
ATOM      9  F   UNL d   1     -49.805  12.797  21.378  0.00  0.00    -0.204 F 
ATOM     10  C   UNL d   1     -50.693  12.178  22.457  0.00  0.00     0.030 A 
ATOM     11  C   UNL d   1     -50.935  12.252  23.243  0.00  0.00     0.002 A 
ATOM     12  C   UNL d   1     -50.638  12.863  23.698  0.00  0.00     0.000 A 
ATOM     13  C   UNL d   1     -50.095  13.408  23.376  0.00  0.00     0.005 A 
ENDBRANCH   2   7
BRANCH   1  14
ATOM     14  C   UNL d   1     -48.090  13.448  22.155  0.00  0.00     0.108 C 
BRANCH  14  15
ATOM     15  C   UNL d   1     -47.423  13.215  22.578  0.00  0.00     0.118 A 
ATOM     16  O   UNL d   1     -47.418  12.868  23.326  0.00  0.00    -0.304 OA
ATOM     17  C   UNL d   1     -46.637  12.723  23.546  0.00  0.00     0.123 A 
ATOM     18  C   UNL d   1     -46.158  12.986  22.923  0.00  0.00     0.029 A 
ATOM     19  C   UNL d   1     -46.640  13.289  22.326  0.00  0.00     0.028 A 
ENDBRANCH  14  15
ENDBRANCH   1  14
TORSDOF 3
ENDMDL
