MODEL 1
REMARK VINA RESULT:      57.1      0.000      0.000
REMARK  9 active torsions:
REMARK  status: ('A' for Active; 'I' for Inactive)
REMARK    1  A    between atoms: S_10  and  C_2 
REMARK    2  A    between atoms: C_7  and  C_5 
REMARK    3  A    between atoms: C_9  and  C_6 
REMARK    4  A    between atoms: O_19  and  C_9 
REMARK    5  A    between atoms: C_17  and  S_10 
REMARK    6  A    between atoms: C_13  and  C_17 
REMARK    7  A    between atoms: O_20  and  C_14 
REMARK    8  A    between atoms: C_23  and  O_19 
REMARK    9  A    between atoms: C_24  and  O_20 
ROOT
ATOM      1  C   UNL d   1      44.101 -15.261  36.878  0.00  0.00     0.092 A 
ATOM      2  C   UNL d   1      43.497 -15.838  36.929  0.00  0.00     0.124 A 
ATOM      3  C   UNL d   1      44.439 -16.781  37.425  0.00  0.00     0.285 A 
ATOM      4  N   UNL d   1      43.672 -16.589  37.201  0.00  0.00    -0.201 NA
ATOM      5  C   UNL d   1      44.865 -15.450  37.100  0.00  0.00     0.023 A 
ATOM      6  C   UNL d   1      45.043 -16.204  37.374  0.00  0.00     0.122 A 
ATOM      7  C   UNL d   1      43.928 -14.513  36.607  0.00  0.00     0.103 C 
ATOM      8  N   UNL d   1      43.751 -13.770  36.336  0.00  0.00    -0.191 NA
ATOM      9  O   UNL d   1      44.683 -17.588  37.730  0.00  0.00    -0.265 OA
ENDROOT
BRANCH   2  10
ATOM     10  S   UNL d   1      42.710 -15.581  36.680  0.00  0.00    -0.062 SA
BRANCH  10  11
ATOM     11  C   UNL d   1      42.065 -16.053  36.331  0.00  0.00     0.101 C 
BRANCH  11  12
ATOM     12  C   UNL d   1      41.243 -15.811  36.459  0.00  0.00     0.303 C 
ATOM     13  O   UNL d   1      41.060 -15.331  36.334  0.00  0.00    -0.263 OA
ATOM     14  N   UNL d   1      40.733 -16.442  36.819  0.00  0.00    -0.102 N 
ENDBRANCH  11  12
ENDBRANCH  10  11
ENDBRANCH   2  10
BRANCH   5  15
ATOM     15  C   UNL d   1      45.454 -14.887  37.051  0.00  0.00     0.024 A 
ATOM     16  C   UNL d   1      45.497 -14.291  37.614  0.00  0.00     0.100 A 
ATOM     17  C   UNL d   1      46.095 -13.720  37.564  0.00  0.00     0.025 A 
ATOM     18  C   UNL d   1      46.644 -13.751  36.950  0.00  0.00     0.002 A 
ATOM     19  C   UNL d   1      46.596 -14.348  36.390  0.00  0.00     0.000 A 
ATOM     20  C   UNL d   1      45.998 -14.919  36.441  0.00  0.00     0.002 A 
BRANCH  16  21
ATOM     21  O   UNL d   1      45.075 -14.195  38.160  0.00  0.00    -0.305 OA
BRANCH  21  22
ATOM     22  C   UNL d   1      45.241 -13.339  38.448  0.00  0.00     0.123 C 
ATOM     23  C   UNL d   1      44.590 -13.044  39.258  0.00  0.00     0.029 C 
ENDBRANCH  21  22
ENDBRANCH  16  21
ENDBRANCH   5  15
BRANCH   6  24
ATOM     24  C   UNL d   1      45.812 -16.397  37.600  0.00  0.00     0.305 C 
ATOM     25  O   UNL d   1      46.101 -16.429  37.324  0.00  0.00    -0.259 OA
BRANCH  24  26
ATOM     26  O   UNL d   1      46.050 -16.539  38.393  0.00  0.00    -0.271 OA
BRANCH  26  27
ATOM     27  C   UNL d   1      46.029 -17.333  38.770  0.00  0.00     0.126 C 
ATOM     28  C   UNL d   1      46.489 -17.126  39.479  0.00  0.00     0.029 C 
ENDBRANCH  26  27
ENDBRANCH  24  26
ENDBRANCH   6  24
TORSDOF 9
ENDMDL
MODEL 2
REMARK VINA RESULT:      57.7      1.728      3.201
REMARK  9 active torsions:
REMARK  status: ('A' for Active; 'I' for Inactive)
REMARK    1  A    between atoms: S_10  and  C_2 
REMARK    2  A    between atoms: C_7  and  C_5 
REMARK    3  A    between atoms: C_9  and  C_6 
REMARK    4  A    between atoms: O_19  and  C_9 
REMARK    5  A    between atoms: C_17  and  S_10 
REMARK    6  A    between atoms: C_13  and  C_17 
REMARK    7  A    between atoms: O_20  and  C_14 
REMARK    8  A    between atoms: C_23  and  O_19 
REMARK    9  A    between atoms: C_24  and  O_20 
ROOT
ATOM      1  C   UNL d   1      45.204 -16.259  38.144  0.00  0.00     0.092 A 
ATOM      2  C   UNL d   1      44.775 -16.906  38.456  0.00  0.00     0.124 A 
ATOM      3  C   UNL d   1      43.738 -16.674  37.511  0.00  0.00     0.285 A 
ATOM      4  N   UNL d   1      44.049 -17.106  38.137  0.00  0.00    -0.201 NA
ATOM      5  C   UNL d   1      44.896 -15.828  37.521  0.00  0.00     0.023 A 
ATOM      6  C   UNL d   1      44.167 -16.027  37.199  0.00  0.00     0.122 A 
ATOM      7  C   UNL d   1      45.928 -16.059  38.461  0.00  0.00     0.103 C 
ATOM      8  N   UNL d   1      46.646 -15.865  38.779  0.00  0.00    -0.191 NA
ATOM      9  O   UNL d   1      42.948 -16.851  37.127  0.00  0.00    -0.265 OA
ENDROOT
BRANCH   2  10
ATOM     10  S   UNL d   1      45.151 -17.324  39.114  0.00  0.00    -0.062 SA
BRANCH  10  11
ATOM     11  C   UNL d   1      44.859 -17.436  39.928  0.00  0.00     0.101 C 
BRANCH  11  12
ATOM     12  C   UNL d   1      45.100 -18.139  40.373  0.00  0.00     0.303 C 
ATOM     13  O   UNL d   1      45.364 -18.543  40.157  0.00  0.00    -0.263 OA
ATOM     14  N   UNL d   1      44.865 -18.122  41.230  0.00  0.00    -0.102 N 
ENDBRANCH  11  12
ENDBRANCH  10  11
ENDBRANCH   2  10
BRANCH   5  15
ATOM     15  C   UNL d   1      45.315 -15.197  37.217  0.00  0.00     0.024 A 
ATOM     16  C   UNL d   1      45.161 -14.437  37.487  0.00  0.00     0.100 A 
ATOM     17  C   UNL d   1      45.585 -13.796  37.179  0.00  0.00     0.025 A 
ATOM     18  C   UNL d   1      46.160 -13.922  36.603  0.00  0.00     0.002 A 
ATOM     19  C   UNL d   1      46.310 -14.683  36.336  0.00  0.00     0.000 A 
ATOM     20  C   UNL d   1      45.886 -15.324  36.645  0.00  0.00     0.002 A 
BRANCH  16  21
ATOM     21  O   UNL d   1      44.694 -14.247  37.969  0.00  0.00    -0.305 OA
BRANCH  21  22
ATOM     22  C   UNL d   1      44.780 -13.335  38.044  0.00  0.00     0.123 C 
ATOM     23  C   UNL d   1      45.078 -13.031  39.037  0.00  0.00     0.029 C 
ENDBRANCH  21  22
ENDBRANCH  16  21
ENDBRANCH   5  15
BRANCH   6  24
ATOM     24  C   UNL d   1      43.854 -15.594  36.571  0.00  0.00     0.305 C 
ATOM     25  O   UNL d   1      44.088 -15.350  36.358  0.00  0.00    -0.259 OA
BRANCH  24  26
ATOM     26  O   UNL d   1      43.048 -15.624  36.333  0.00  0.00    -0.271 OA
BRANCH  26  27
ATOM     27  C   UNL d   1      42.472 -14.980  36.492  0.00  0.00     0.126 C 
ATOM     28  C   UNL d   1      41.751 -15.448  36.356  0.00  0.00     0.029 C 
ENDBRANCH  26  27
ENDBRANCH  24  26
ENDBRANCH   6  24
TORSDOF 9
ENDMDL
MODEL 3
REMARK VINA RESULT:      58.0      1.026      2.550
REMARK  9 active torsions:
REMARK  status: ('A' for Active; 'I' for Inactive)
REMARK    1  A    between atoms: S_10  and  C_2 
REMARK    2  A    between atoms: C_7  and  C_5 
REMARK    3  A    between atoms: C_9  and  C_6 
REMARK    4  A    between atoms: O_19  and  C_9 
REMARK    5  A    between atoms: C_17  and  S_10 
REMARK    6  A    between atoms: C_13  and  C_17 
REMARK    7  A    between atoms: O_20  and  C_14 
REMARK    8  A    between atoms: C_23  and  O_19 
REMARK    9  A    between atoms: C_24  and  O_20 
ROOT
ATOM      1  C   UNL d   1      43.680 -15.781  36.945  0.00  0.00     0.092 A 
ATOM      2  C   UNL d   1      42.860 -15.634  37.028  0.00  0.00     0.124 A 
ATOM      3  C   UNL d   1      43.146 -14.349  37.565  0.00  0.00     0.285 A 
ATOM      4  N   UNL d   1      42.603 -14.921  37.336  0.00  0.00    -0.201 NA
ATOM      5  C   UNL d   1      44.222 -15.212  37.172  0.00  0.00     0.023 A 
ATOM      6  C   UNL d   1      43.966 -14.496  37.482  0.00  0.00     0.122 A 
ATOM      7  C   UNL d   1      43.938 -16.490  36.638  0.00  0.00     0.103 C 
ATOM      8  N   UNL d   1      44.188 -17.197  36.332  0.00  0.00    -0.191 NA
ATOM      9  O   UNL d   1      42.917 -13.553  37.909  0.00  0.00    -0.265 OA
ENDROOT
BRANCH   2  10
ATOM     10  S   UNL d   1      42.336 -16.271  36.771  0.00  0.00    -0.062 SA
BRANCH  10  11
ATOM     11  C   UNL d   1      41.475 -16.348  36.878  0.00  0.00     0.101 C 
BRANCH  11  12
ATOM     12  C   UNL d   1      41.050 -16.988  36.476  0.00  0.00     0.303 C 
ATOM     13  O   UNL d   1      41.280 -17.440  36.330  0.00  0.00    -0.263 OA
ATOM     14  N   UNL d   1      40.191 -16.815  36.330  0.00  0.00    -0.102 N 
ENDBRANCH  11  12
ENDBRANCH  10  11
ENDBRANCH   2  10
BRANCH   5  15
ATOM     15  C   UNL d   1      45.021 -15.356  37.091  0.00  0.00     0.024 A 
ATOM     16  C   UNL d   1      45.395 -15.882  37.600  0.00  0.00     0.100 A 
ATOM     17  C   UNL d   1      46.205 -16.028  37.518  0.00  0.00     0.025 A 
ATOM     18  C   UNL d   1      46.635 -15.647  36.928  0.00  0.00     0.002 A 
ATOM     19  C   UNL d   1      46.257 -15.123  36.423  0.00  0.00     0.000 A 
ATOM     20  C   UNL d   1      45.447 -14.977  36.505  0.00  0.00     0.002 A 
BRANCH  16  21
ATOM     21  O   UNL d   1      45.105 -16.243  38.122  0.00  0.00    -0.305 OA
BRANCH  21  22
ATOM     22  C   UNL d   1      45.809 -16.577  38.607  0.00  0.00     0.123 C 
ATOM     23  C   UNL d   1      45.527 -17.431  39.206  0.00  0.00     0.029 C 
ENDBRANCH  21  22
ENDBRANCH  16  21
ENDBRANCH   5  15
BRANCH   6  24
ATOM     24  C   UNL d   1      44.509 -13.920  37.713  0.00  0.00     0.305 C 
ATOM     25  O   UNL d   1      44.886 -13.933  37.577  0.00  0.00    -0.259 OA
BRANCH  24  26
ATOM     26  O   UNL d   1      44.331 -13.283  38.231  0.00  0.00    -0.271 OA
BRANCH  26  27
ATOM     27  C   UNL d   1      44.577 -13.262  39.075  0.00  0.00     0.126 C 
ATOM     28  C   UNL d   1      44.681 -12.400  39.132  0.00  0.00     0.029 C 
ENDBRANCH  26  27
ENDBRANCH  24  26
ENDBRANCH   6  24
TORSDOF 9
ENDMDL
