MODEL 1
REMARK VINA RESULT:      -6.5      0.000      0.000
REMARK  6 active torsions:
REMARK  status: ('A' for Active; 'I' for Inactive)
REMARK    1  A    between atoms: C_5  and  N_1 
REMARK    2  A    between atoms: C_8  and  C_2 
REMARK    3  A    between atoms: C_3  and  O_4 
REMARK    4  A    between atoms: O_4  and  C_9 
REMARK    5  A    between atoms: C_7  and  C_5 
REMARK    6  A    between atoms: C_9  and  C_7 
ROOT
ATOM      1  O   UNL d   1     -49.230  13.857  22.875  0.00  0.00    -0.302 OA
ENDROOT
BRANCH   1   2
ATOM      2  C   UNL d   1     -49.744  14.448  23.118  0.00  0.00     0.100 A 
ATOM      3  C   UNL d   1     -50.549  14.289  23.197  0.00  0.00     0.023 A 
ATOM      4  C   UNL d   1     -51.064  14.882  23.440  0.00  0.00     0.002 A 
ATOM      5  C   UNL d   1     -50.775  15.638  23.606  0.00  0.00     0.000 A 
ATOM      6  C   UNL d   1     -49.973  15.800  23.528  0.00  0.00     0.002 A 
ATOM      7  C   UNL d   1     -49.455  15.205  23.284  0.00  0.00     0.025 A 
BRANCH   3   8
ATOM      8  C   UNL d   1     -50.837  13.536  23.032  0.00  0.00     0.002 C 
ATOM      9  C   UNL d   1     -50.906  12.980  23.637  0.00  0.00     0.000 C 
ATOM     10  C   UNL d   1     -51.055  13.338  22.265  0.00  0.00     0.000 C 
ENDBRANCH   3   8
ENDBRANCH   1   2
BRANCH   1  11
ATOM     11  C   UNL d   1     -48.426  14.018  22.806  0.00  0.00     0.166 C 
BRANCH  11  12
ATOM     12  C   UNL d   1     -47.889  13.400  22.680  0.00  0.00     0.238 C 
ATOM     13  O   UNL d   1     -47.950  12.939  22.000  0.00  0.00    -0.283 OA
BRANCH  12  14
ATOM     14  C   UNL d   1     -47.298  13.247  23.229  0.00  0.00     0.125 C 
BRANCH  14  15
ATOM     15  N   UNL d   1     -46.535  13.063  22.974  0.00  0.00    -0.296 N 
ATOM     16  C   UNL d   1     -46.214  12.322  23.149  0.00  0.00     0.107 A 
ATOM     17  C   UNL d   1     -45.454  12.136  22.897  0.00  0.00     0.142 A 
ATOM     18  O   UNL d   1     -45.015  12.689  22.470  0.00  0.00    -0.300 OA
ATOM     19  C   UNL d   1     -45.338  13.426  22.298  0.00  0.00     0.142 A 
ATOM     20  C   UNL d   1     -46.102  13.613  22.552  0.00  0.00     0.107 A 
ENDBRANCH  14  15
ENDBRANCH  12  14
ENDBRANCH  11  12
ENDBRANCH   1  11
TORSDOF 6
ENDMDL
MODEL 2
REMARK VINA RESULT:      -6.3      0.690      1.735
REMARK  6 active torsions:
REMARK  status: ('A' for Active; 'I' for Inactive)
REMARK    1  A    between atoms: C_5  and  N_1 
REMARK    2  A    between atoms: C_8  and  C_2 
REMARK    3  A    between atoms: C_3  and  O_4 
REMARK    4  A    between atoms: O_4  and  C_9 
REMARK    5  A    between atoms: C_7  and  C_5 
REMARK    6  A    between atoms: C_9  and  C_7 
ROOT
ATOM      1  O   UNL d   1     -48.995  13.483  22.892  0.00  0.00    -0.302 OA
ENDROOT
BRANCH   1   2
ATOM      2  C   UNL d   1     -49.678  13.116  23.159  0.00  0.00     0.100 A 
ATOM      3  C   UNL d   1     -50.380  13.544  23.219  0.00  0.00     0.023 A 
ATOM      4  C   UNL d   1     -51.064  13.177  23.487  0.00  0.00     0.002 A 
ATOM      5  C   UNL d   1     -51.050  12.377  23.697  0.00  0.00     0.000 A 
ATOM      6  C   UNL d   1     -50.351  11.948  23.638  0.00  0.00     0.002 A 
ATOM      7  C   UNL d   1     -49.663  12.316  23.370  0.00  0.00     0.025 A 
BRANCH   3   8
ATOM      8  C   UNL d   1     -50.395  14.340  23.010  0.00  0.00     0.002 C 
ATOM      9  C   UNL d   1     -50.595  14.560  22.240  0.00  0.00     0.000 C 
ATOM     10  C   UNL d   1     -50.210  14.915  23.566  0.00  0.00     0.000 C 
ENDBRANCH   3   8
ENDBRANCH   1   2
BRANCH   1  11
ATOM     11  C   UNL d   1     -48.273  13.091  22.947  0.00  0.00     0.166 C 
BRANCH  11  12
ATOM     12  C   UNL d   1     -47.622  13.359  22.511  0.00  0.00     0.238 C 
ATOM     13  O   UNL d   1     -47.671  13.405  21.691  0.00  0.00    -0.283 OA
BRANCH  12  14
ATOM     14  C   UNL d   1     -46.930  13.578  22.895  0.00  0.00     0.125 C 
BRANCH  14  15
ATOM     15  N   UNL d   1     -46.226  13.176  22.741  0.00  0.00    -0.296 N 
ATOM     16  C   UNL d   1     -45.689  13.487  22.195  0.00  0.00     0.107 A 
ATOM     17  C   UNL d   1     -44.987  13.089  22.040  0.00  0.00     0.142 A 
ATOM     18  O   UNL d   1     -44.821  12.380  22.428  0.00  0.00    -0.300 OA
ATOM     19  C   UNL d   1     -45.359  12.073  22.971  0.00  0.00     0.142 A 
ATOM     20  C   UNL d   1     -46.065  12.474  23.127  0.00  0.00     0.107 A 
ENDBRANCH  14  15
ENDBRANCH  12  14
ENDBRANCH  11  12
ENDBRANCH   1  11
TORSDOF 6
ENDMDL
MODEL 3
REMARK VINA RESULT:      -5.0      8.055     10.149
REMARK  6 active torsions:
REMARK  status: ('A' for Active; 'I' for Inactive)
REMARK    1  A    between atoms: C_5  and  N_1 
REMARK    2  A    between atoms: C_8  and  C_2 
REMARK    3  A    between atoms: C_3  and  O_4 
REMARK    4  A    between atoms: O_4  and  C_9 
REMARK    5  A    between atoms: C_7  and  C_5 
REMARK    6  A    between atoms: C_9  and  C_7 
ROOT
ATOM      1  O   UNL d   1     -40.127  14.458  19.509  0.00  0.00    -0.302 OA
ENDROOT
BRANCH   1   2
ATOM      2  C   UNL d   1     -39.759  14.355  20.235  0.00  0.00     0.100 A 
ATOM      3  C   UNL d   1     -40.167  14.518  20.933  0.00  0.00     0.023 A 
ATOM      4  C   UNL d   1     -39.799  14.415  21.659  0.00  0.00     0.002 A 
ATOM      5  C   UNL d   1     -39.017  14.148  21.693  0.00  0.00     0.000 A 
ATOM      6  C   UNL d   1     -38.607  13.985  20.999  0.00  0.00     0.002 A 
ATOM      7  C   UNL d   1     -38.977  14.088  20.268  0.00  0.00     0.025 A 
BRANCH   3   8
ATOM      8  C   UNL d   1     -40.946  14.784  20.900  0.00  0.00     0.002 C 
ATOM      9  C   UNL d   1     -41.104  15.593  20.872  0.00  0.00     0.000 C 
ATOM     10  C   UNL d   1     -41.565  14.244  20.893  0.00  0.00     0.000 C 
ENDBRANCH   3   8
ENDBRANCH   1   2
BRANCH   1  11
ATOM     11  C   UNL d   1     -39.683  14.419  18.818  0.00  0.00     0.166 C 
BRANCH  11  12
ATOM     12  C   UNL d   1     -40.063  14.407  18.082  0.00  0.00     0.238 C 
ATOM     13  O   UNL d   1     -40.540  13.768  17.879  0.00  0.00    -0.283 OA
BRANCH  12  14
ATOM     14  C   UNL d   1     -39.965  15.030  17.556  0.00  0.00     0.125 C 
BRANCH  14  15
ATOM     15  N   UNL d   1     -39.376  14.996  16.980  0.00  0.00    -0.296 N 
ATOM     16  C   UNL d   1     -38.910  15.663  16.831  0.00  0.00     0.107 A 
ATOM     17  C   UNL d   1     -38.323  15.631  16.258  0.00  0.00     0.142 A 
ATOM     18  O   UNL d   1     -38.198  14.935  15.833  0.00  0.00    -0.300 OA
ATOM     19  C   UNL d   1     -38.664  14.273  15.983  0.00  0.00     0.142 A 
ATOM     20  C   UNL d   1     -39.255  14.304  16.560  0.00  0.00     0.107 A 
ENDBRANCH  14  15
ENDBRANCH  12  14
ENDBRANCH  11  12
ENDBRANCH   1  11
TORSDOF 6
ENDMDL
MODEL 4
REMARK VINA RESULT:      -4.7      9.464     10.372
REMARK  6 active torsions:
REMARK  status: ('A' for Active; 'I' for Inactive)
REMARK    1  A    between atoms: C_5  and  N_1 
REMARK    2  A    between atoms: C_8  and  C_2 
REMARK    3  A    between atoms: C_3  and  O_4 
REMARK    4  A    between atoms: O_4  and  C_9 
REMARK    5  A    between atoms: C_7  and  C_5 
REMARK    6  A    between atoms: C_9  and  C_7 
ROOT
ATOM      1  O   UNL d   1     -39.459  14.842  18.967  0.00  0.00    -0.302 OA
ENDROOT
BRANCH   1   2
ATOM      2  C   UNL d   1     -39.308  14.330  18.344  0.00  0.00     0.100 A 
ATOM      3  C   UNL d   1     -39.631  14.478  17.600  0.00  0.00     0.023 A 
ATOM      4  C   UNL d   1     -39.480  13.965  16.976  0.00  0.00     0.002 A 
ATOM      5  C   UNL d   1     -39.003  13.300  17.094  0.00  0.00     0.000 A 
ATOM      6  C   UNL d   1     -38.679  13.151  17.834  0.00  0.00     0.002 A 
ATOM      7  C   UNL d   1     -38.830  13.665  18.461  0.00  0.00     0.025 A 
BRANCH   3   8
ATOM      8  C   UNL d   1     -40.106  15.139  17.483  0.00  0.00     0.002 C 
ATOM      9  C   UNL d   1     -40.922  15.086  17.594  0.00  0.00     0.000 C 
ATOM     10  C   UNL d   1     -39.769  15.854  17.256  0.00  0.00     0.000 C 
ENDBRANCH   3   8
ENDBRANCH   1   2
BRANCH   1  11
ATOM     11  C   UNL d   1     -39.199  14.651  19.724  0.00  0.00     0.166 C 
BRANCH  11  12
ATOM     12  C   UNL d   1     -39.268  15.204  20.337  0.00  0.00     0.238 C 
ATOM     13  O   UNL d   1     -38.869  15.922  20.287  0.00  0.00    -0.283 OA
BRANCH  12  14
ATOM     14  C   UNL d   1     -39.733  15.037  20.993  0.00  0.00     0.125 C 
BRANCH  14  15
ATOM     15  N   UNL d   1     -39.404  15.059  21.749  0.00  0.00    -0.296 N 
ATOM     16  C   UNL d   1     -39.069  14.374  22.069  0.00  0.00     0.107 A 
ATOM     17  C   UNL d   1     -38.740  14.393  22.822  0.00  0.00     0.142 A 
ATOM     18  O   UNL d   1     -38.745  15.095  23.256  0.00  0.00    -0.300 OA
ATOM     19  C   UNL d   1     -39.080  15.775  22.934  0.00  0.00     0.142 A 
ATOM     20  C   UNL d   1     -39.410  15.756  22.177  0.00  0.00     0.107 A 
ENDBRANCH  14  15
ENDBRANCH  12  14
ENDBRANCH  11  12
ENDBRANCH   1  11
TORSDOF 6
ENDMDL
