MODEL 1
REMARK VINA RESULT:      -4.9      0.000      0.000
REMARK  6 active torsions:
REMARK  status: ('A' for Active; 'I' for Inactive)
REMARK    1  A    between atoms: C_7  and  N_1 
REMARK    2  A    between atoms: C_9  and  C_7 
REMARK    3  A    between atoms: C_10  and  C_9 
REMARK       I    between atoms: N_13  and  C_10 
REMARK    4  A    between atoms: C_15  and  N_13 
REMARK    5  A    between atoms: C_18  and  C_15 
REMARK    6  A    between atoms: C_17  and  C_18 
ROOT
ATOM      1  C   UNL d   1     -41.596-122.287 -52.084  0.00  0.00     0.090 C 
ENDROOT
BRANCH   1   2
ATOM      2  N   UNL d   1     -41.634-122.489 -52.891  0.00  0.00    -0.249 N 
ATOM      3  C   UNL d   1     -41.399-123.232 -53.137  0.00  0.00     0.208 A 
ATOM      4  N   UNL d   1     -41.432-123.442 -53.934  0.00  0.00    -0.218 NA
ATOM      5  S   UNL d   1     -41.124-123.784 -52.587  0.00  0.00    -0.038 SA
ATOM      6  C   UNL d   1     -41.709-122.885 -54.482  0.00  0.00     0.088 A 
ATOM      7  C   UNL d   1     -41.945-122.137 -54.234  0.00  0.00     0.074 A 
ATOM      8  C   UNL d   1     -41.746-123.086 -55.282  0.00  0.00     0.019 A 
ATOM      9  C   UNL d   1     -41.908-121.937 -53.435  0.00  0.00     0.268 A 
ATOM     10  C   UNL d   1     -42.220-121.586 -54.784  0.00  0.00     0.006 A 
ATOM     11  O   UNL d   1     -42.144-121.188 -53.185  0.00  0.00    -0.267 OA
ATOM     12  C   UNL d   1     -42.258-121.786 -55.584  0.00  0.00     0.000 A 
ATOM     13  C   UNL d   1     -42.023-122.530 -55.835  0.00  0.00     0.002 A 
ENDBRANCH   1   2
BRANCH   1  14
ATOM     14  C   UNL d   1     -42.208-122.505 -51.583  0.00  0.00     0.082 C 
BRANCH  14  15
ATOM     15  C   UNL d   1     -42.146-122.369 -50.767  0.00  0.00     0.281 C 
ATOM     16  O   UNL d   1     -41.719-121.720 -50.499  0.00  0.00    -0.265 OA
ATOM     17  N   UNL d   1     -42.511-122.883 -50.242  0.00  0.00    -0.206 NA
BRANCH  17  18
ATOM     18  C   UNL d   1     -42.449-122.746 -49.419  0.00  0.00     0.102 C 
BRANCH  18  19
ATOM     19  C   UNL d   1     -42.681-123.316 -48.881  0.00  0.00     0.021 C 
BRANCH  19  20
ATOM     20  C   UNL d   1     -42.311-123.386 -48.169  0.00  0.00     0.002 A 
ATOM     21  C   UNL d   1     -42.736-123.317 -47.457  0.00  0.00     0.000 A 
ATOM     22  C   UNL d   1     -42.357-123.389 -46.726  0.00  0.00     0.000 A 
ATOM     23  C   UNL d   1     -41.548-123.529 -46.676  0.00  0.00     0.000 A 
ATOM     24  C   UNL d   1     -41.123-123.597 -47.389  0.00  0.00     0.000 A 
ATOM     25  C   UNL d   1     -41.494-123.528 -48.128  0.00  0.00     0.000 A 
ENDBRANCH  19  20
ENDBRANCH  18  19
ENDBRANCH  17  18
ENDBRANCH  14  15
ENDBRANCH   1  14
TORSDOF 6
ENDMDL
MODEL 2
REMARK VINA RESULT:      -3.9      1.114      5.964
REMARK  6 active torsions:
REMARK  status: ('A' for Active; 'I' for Inactive)
REMARK    1  A    between atoms: C_7  and  N_1 
REMARK    2  A    between atoms: C_9  and  C_7 
REMARK    3  A    between atoms: C_10  and  C_9 
REMARK       I    between atoms: N_13  and  C_10 
REMARK    4  A    between atoms: C_15  and  N_13 
REMARK    5  A    between atoms: C_18  and  C_15 
REMARK    6  A    between atoms: C_17  and  C_18 
ROOT
ATOM      1  C   UNL d   1     -42.325-122.439 -50.254  0.00  0.00     0.090 C 
ENDROOT
BRANCH   1   2
ATOM      2  N   UNL d   1     -42.440-122.786 -49.507  0.00  0.00    -0.249 N 
ATOM      3  C   UNL d   1     -43.149-123.153 -49.332  0.00  0.00     0.208 A 
ATOM      4  N   UNL d   1     -43.273-123.501 -48.594  0.00  0.00    -0.218 NA
ATOM      5  S   UNL d   1     -43.752-123.181 -49.896  0.00  0.00    -0.038 SA
ATOM      6  C   UNL d   1     -42.665-123.472 -48.032  0.00  0.00     0.088 A 
ATOM      7  C   UNL d   1     -41.951-123.102 -48.207  0.00  0.00     0.074 A 
ATOM      8  C   UNL d   1     -42.780-123.816 -47.291  0.00  0.00     0.019 A 
ATOM      9  C   UNL d   1     -41.837-122.757 -48.948  0.00  0.00     0.268 A 
ATOM     10  C   UNL d   1     -41.349-123.075 -47.643  0.00  0.00     0.006 A 
ATOM     11  O   UNL d   1     -41.123-122.386 -49.126  0.00  0.00    -0.267 OA
ATOM     12  C   UNL d   1     -41.463-123.420 -46.902  0.00  0.00     0.000 A 
ATOM     13  C   UNL d   1     -42.173-123.789 -46.724  0.00  0.00     0.002 A 
ENDBRANCH   1   2
BRANCH   1  14
ATOM     14  C   UNL d   1     -41.632-122.589 -50.668  0.00  0.00     0.082 C 
BRANCH  14  15
ATOM     15  C   UNL d   1     -41.529-122.281 -51.431  0.00  0.00     0.281 C 
ATOM     16  O   UNL d   1     -41.558-121.468 -51.544  0.00  0.00    -0.265 OA
ATOM     17  N   UNL d   1     -41.399-122.792 -52.060  0.00  0.00    -0.206 NA
BRANCH  17  18
ATOM     18  C   UNL d   1     -41.295-122.481 -52.830  0.00  0.00     0.102 C 
BRANCH  18  19
ATOM     19  C   UNL d   1     -41.442-122.942 -53.490  0.00  0.00     0.021 C 
BRANCH  19  20
ATOM     20  C   UNL d   1     -41.638-122.602 -54.194  0.00  0.00     0.002 A 
ATOM     21  C   UNL d   1     -41.122-122.637 -54.845  0.00  0.00     0.000 A 
ATOM     22  C   UNL d   1     -41.324-122.289 -55.567  0.00  0.00     0.000 A 
ATOM     23  C   UNL d   1     -42.041-121.896 -55.667  0.00  0.00     0.000 A 
ATOM     24  C   UNL d   1     -42.556-121.862 -55.014  0.00  0.00     0.000 A 
ATOM     25  C   UNL d   1     -42.364-122.208 -54.285  0.00  0.00     0.000 A 
ENDBRANCH  19  20
ENDBRANCH  18  19
ENDBRANCH  17  18
ENDBRANCH  14  15
ENDBRANCH   1  14
TORSDOF 6
ENDMDL
