MODEL 1
REMARK VINA RESULT:      -9.3      0.000      0.000
REMARK  4 active torsions:
REMARK  status: ('A' for Active; 'I' for Inactive)
REMARK    1  A    between atoms: C_5  and  N_1 
REMARK    2  A    between atoms: C_7  and  C_3 
REMARK    3  A    between atoms: C_10  and  C_4 
REMARK    4  A    between atoms: N_11  and  C_5 
ROOT
ATOM      1  N   UNL d   1      53.052  32.417  53.454  0.00  0.00    -0.203 N 
ATOM      2  N   UNL d   1      52.337  32.539  53.050  0.00  0.00    -0.163 NA
ATOM      3  C   UNL d   1      53.290  33.132  53.786  0.00  0.00     0.088 A 
ATOM      4  C   UNL d   1      52.133  33.345  53.137  0.00  0.00     0.103 A 
ATOM      5  C   UNL d   1      52.721  33.707  53.590  0.00  0.00     0.040 A 
ENDROOT
BRANCH   3   6
ATOM      6  C   UNL d   1      53.964  33.296  54.240  0.00  0.00     0.028 A 
ATOM      7  C   UNL d   1      53.884  33.512  55.023  0.00  0.00     0.059 A 
ATOM      8 CL   UNL d   1      53.432  33.533  55.186  0.00  0.00    -0.082 Cl
ATOM      9  C   UNL d   1      54.553  33.677  55.482  0.00  0.00     0.011 A 
ATOM     10  C   UNL d   1      55.301  33.625  55.152  0.00  0.00     0.001 A 
ATOM     11  C   UNL d   1      55.368  33.405  54.355  0.00  0.00     0.000 A 
ATOM     12  C   UNL d   1      54.706  33.246  53.917  0.00  0.00     0.002 A 
ENDBRANCH   3   6
BRANCH   1  13
ATOM     13  C   UNL d   1      53.457  31.677  53.507  0.00  0.00     0.222 C 
ATOM     14  S   UNL d   1      54.072  31.518  52.972  0.00  0.00    -0.037 SA
BRANCH  13  15
ATOM     15  N   UNL d   1      53.237  31.124  54.088  0.00  0.00    -0.214 NA
ATOM     16  C   UNL d   1      53.329  30.302  53.934  0.00  0.00     0.122 C 
ENDBRANCH  13  15
ENDBRANCH   1  13
BRANCH   4  17
ATOM     17  C   UNL d   1      51.470  33.695  52.825  0.00  0.00     0.019 A 
ATOM     18  C   UNL d   1      51.506  34.025  52.070  0.00  0.00     0.002 A 
ATOM     19  C   UNL d   1      50.839  34.384  51.741  0.00  0.00     0.000 A 
ATOM     20  C   UNL d   1      50.134  34.414  52.164  0.00  0.00     0.000 A 
ATOM     21  C   UNL d   1      50.093  34.089  52.914  0.00  0.00     0.000 A 
ATOM     22  C   UNL d   1      50.760  33.730  53.242  0.00  0.00     0.002 A 
ENDBRANCH   4  17
TORSDOF 4
ENDMDL
MODEL 2
REMARK VINA RESULT:      -9.1      1.263      2.492
REMARK  4 active torsions:
REMARK  status: ('A' for Active; 'I' for Inactive)
REMARK    1  A    between atoms: C_5  and  N_1 
REMARK    2  A    between atoms: C_7  and  C_3 
REMARK    3  A    between atoms: C_10  and  C_4 
REMARK    4  A    between atoms: N_11  and  C_5 
ROOT
ATOM      1  N   UNL d   1      53.241  32.686  53.608  0.00  0.00    -0.203 N 
ATOM      2  N   UNL d   1      52.798  33.355  53.398  0.00  0.00    -0.163 NA
ATOM      3  C   UNL d   1      52.797  32.014  53.438  0.00  0.00     0.088 A 
ATOM      4  C   UNL d   1      52.067  33.087  53.093  0.00  0.00     0.103 A 
ATOM      5  C   UNL d   1      52.070  32.263  53.120  0.00  0.00     0.040 A 
ENDROOT
BRANCH   3   6
ATOM      6  C   UNL d   1      52.997  31.216  53.548  0.00  0.00     0.028 A 
ATOM      7  C   UNL d   1      52.998  30.707  52.912  0.00  0.00     0.059 A 
ATOM      8 CL   UNL d   1      52.879  30.904  52.489  0.00  0.00    -0.082 Cl
ATOM      9  C   UNL d   1      53.197  29.910  53.014  0.00  0.00     0.011 A 
ATOM     10  C   UNL d   1      53.393  29.627  53.758  0.00  0.00     0.001 A 
ATOM     11  C   UNL d   1      53.387  30.156  54.396  0.00  0.00     0.000 A 
ATOM     12  C   UNL d   1      53.191  30.934  54.283  0.00  0.00     0.002 A 
ENDBRANCH   3   6
BRANCH   1  13
ATOM     13  C   UNL d   1      54.019  32.706  53.940  0.00  0.00     0.222 C 
ATOM     14  S   UNL d   1      54.101  32.734  54.766  0.00  0.00    -0.037 SA
BRANCH  13  15
ATOM     15  N   UNL d   1      54.684  32.699  53.441  0.00  0.00    -0.214 NA
ATOM     16  C   UNL d   1      55.357  33.162  53.641  0.00  0.00     0.122 C 
ENDBRANCH  13  15
ENDBRANCH   1  13
BRANCH   4  17
ATOM     17  C   UNL d   1      51.470  33.567  52.823  0.00  0.00     0.019 A 
ATOM     18  C   UNL d   1      50.791  33.664  53.281  0.00  0.00     0.002 A 
ATOM     19  C   UNL d   1      50.177  34.149  53.018  0.00  0.00     0.000 A 
ATOM     20  C   UNL d   1      50.238  34.539  52.296  0.00  0.00     0.000 A 
ATOM     21  C   UNL d   1      50.909  34.447  51.837  0.00  0.00     0.000 A 
ATOM     22  C   UNL d   1      51.523  33.962  52.100  0.00  0.00     0.002 A 
ENDBRANCH   4  17
TORSDOF 4
ENDMDL
MODEL 3
REMARK VINA RESULT:      -8.9      1.351      3.160
REMARK  4 active torsions:
REMARK  status: ('A' for Active; 'I' for Inactive)
REMARK    1  A    between atoms: C_5  and  N_1 
REMARK    2  A    between atoms: C_7  and  C_3 
REMARK    3  A    between atoms: C_10  and  C_4 
REMARK    4  A    between atoms: N_11  and  C_5 
ROOT
ATOM      1  N   UNL d   1      53.069  32.807  53.675  0.00  0.00    -0.203 N 
ATOM      2  N   UNL d   1      52.733  32.101  53.399  0.00  0.00    -0.163 NA
ATOM      3  C   UNL d   1      53.764  32.626  54.078  0.00  0.00     0.088 A 
ATOM      4  C   UNL d   1      53.232  31.474  53.638  0.00  0.00     0.103 A 
ATOM      5  C   UNL d   1      53.865  31.801  54.055  0.00  0.00     0.040 A 
ENDROOT
BRANCH   3   6
ATOM      6  C   UNL d   1      54.297  33.139  54.453  0.00  0.00     0.028 A 
ATOM      7  C   UNL d   1      55.039  33.256  54.137  0.00  0.00     0.059 A 
ATOM      8 CL   UNL d   1      55.132  33.011  53.733  0.00  0.00    -0.082 Cl
ATOM      9  C   UNL d   1      55.576  33.766  54.506  0.00  0.00     0.011 A 
ATOM     10  C   UNL d   1      55.364  34.158  55.194  0.00  0.00     0.001 A 
ATOM     11  C   UNL d   1      54.606  34.030  55.505  0.00  0.00     0.000 A 
ATOM     12  C   UNL d   1      54.090  33.528  55.134  0.00  0.00     0.002 A 
ENDBRANCH   3   6
BRANCH   1  13
ATOM     13  C   UNL d   1      52.742  33.578  53.555  0.00  0.00     0.222 C 
ATOM     14  S   UNL d   1      52.262  33.906  54.149  0.00  0.00    -0.037 SA
BRANCH  13  15
ATOM     15  N   UNL d   1      52.902  33.993  52.852  0.00  0.00    -0.214 NA
ATOM     16  C   UNL d   1      52.343  34.552  52.564  0.00  0.00     0.122 C 
ENDBRANCH  13  15
ENDBRANCH   1  13
BRANCH   4  17
ATOM     17  C   UNL d   1      53.103  30.688  53.479  0.00  0.00     0.019 A 
ATOM     18  C   UNL d   1      53.235  30.130  54.071  0.00  0.00     0.002 A 
ATOM     19  C   UNL d   1      53.107  29.328  53.923  0.00  0.00     0.000 A 
ATOM     20  C   UNL d   1      52.847  29.080  53.182  0.00  0.00     0.000 A 
ATOM     21  C   UNL d   1      52.714  29.629  52.591  0.00  0.00     0.000 A 
ATOM     22  C   UNL d   1      52.842  30.431  52.740  0.00  0.00     0.002 A 
ENDBRANCH   4  17
TORSDOF 4
ENDMDL
MODEL 4
REMARK VINA RESULT:      -8.7      1.343      3.762
REMARK  4 active torsions:
REMARK  status: ('A' for Active; 'I' for Inactive)
REMARK    1  A    between atoms: C_5  and  N_1 
REMARK    2  A    between atoms: C_7  and  C_3 
REMARK    3  A    between atoms: C_10  and  C_4 
REMARK    4  A    between atoms: N_11  and  C_5 
ROOT
ATOM      1  N   UNL d   1      52.912  33.063  53.644  0.00  0.00    -0.203 N 
ATOM      2  N   UNL d   1      53.293  32.343  53.805  0.00  0.00    -0.163 NA
ATOM      3  C   UNL d   1      52.235  32.908  53.202  0.00  0.00     0.088 A 
ATOM      4  C   UNL d   1      52.839  31.735  53.453  0.00  0.00     0.103 A 
ATOM      5  C   UNL d   1      52.190  32.086  53.084  0.00  0.00     0.040 A 
ENDROOT
BRANCH   3   6
ATOM      6  C   UNL d   1      51.673  33.442  52.906  0.00  0.00     0.028 A 
ATOM      7  C   UNL d   1      50.915  33.441  53.207  0.00  0.00     0.059 A 
ATOM      8 CL   UNL d   1      50.831  33.118  53.554  0.00  0.00    -0.082 Cl
ATOM      9  C   UNL d   1      50.349  33.970  52.918  0.00  0.00     0.011 A 
ATOM     10  C   UNL d   1      50.548  34.501  52.325  0.00  0.00     0.001 A 
ATOM     11  C   UNL d   1      51.322  34.491  52.028  0.00  0.00     0.000 A 
ATOM     12  C   UNL d   1      51.867  33.968  52.320  0.00  0.00     0.002 A 
ENDBRANCH   3   6
BRANCH   1  13
ATOM     13  C   UNL d   1      53.186  33.821  53.899  0.00  0.00     0.222 C 
ATOM     14  S   UNL d   1      53.680  34.259  53.394  0.00  0.00    -0.037 SA
BRANCH  13  15
ATOM     15  N   UNL d   1      52.960  34.116  54.643  0.00  0.00    -0.214 NA
ATOM     16  C   UNL d   1      53.470  34.648  55.050  0.00  0.00     0.122 C 
ENDBRANCH  13  15
ENDBRANCH   1  13
BRANCH   4  17
ATOM     17  C   UNL d   1      53.019  30.943  53.480  0.00  0.00     0.019 A 
ATOM     18  C   UNL d   1      52.936  30.487  52.798  0.00  0.00     0.002 A 
ATOM     19  C   UNL d   1      53.116  29.682  52.812  0.00  0.00     0.000 A 
ATOM     20  C   UNL d   1      53.378  29.328  53.508  0.00  0.00     0.000 A 
ATOM     21  C   UNL d   1      53.462  29.776  54.187  0.00  0.00     0.000 A 
ATOM     22  C   UNL d   1      53.283  30.581  54.173  0.00  0.00     0.002 A 
ENDBRANCH   4  17
TORSDOF 4
ENDMDL
MODEL 5
REMARK VINA RESULT:      -8.2      1.110      2.288
REMARK  4 active torsions:
REMARK  status: ('A' for Active; 'I' for Inactive)
REMARK    1  A    between atoms: C_5  and  N_1 
REMARK    2  A    between atoms: C_7  and  C_3 
REMARK    3  A    between atoms: C_10  and  C_4 
REMARK    4  A    between atoms: N_11  and  C_5 
ROOT
ATOM      1  N   UNL d   1      52.988  32.853  53.595  0.00  0.00    -0.203 N 
ATOM      2  N   UNL d   1      52.495  33.510  53.482  0.00  0.00    -0.163 NA
ATOM      3  C   UNL d   1      52.648  32.203  53.222  0.00  0.00     0.088 A 
ATOM      4  C   UNL d   1      51.839  33.257  53.030  0.00  0.00     0.103 A 
ATOM      5  C   UNL d   1      51.936  32.453  52.872  0.00  0.00     0.040 A 
ENDROOT
BRANCH   3   6
ATOM      6  C   UNL d   1      52.927  31.423  53.177  0.00  0.00     0.028 A 
ATOM      7  C   UNL d   1      52.478  30.813  53.479  0.00  0.00     0.059 A 
ATOM      8 CL   UNL d   1      52.058  30.943  53.675  0.00  0.00    -0.082 Cl
ATOM      9  C   UNL d   1      52.750  30.033  53.438  0.00  0.00     0.011 A 
ATOM     10  C   UNL d   1      53.474  29.868  53.092  0.00  0.00     0.001 A 
ATOM     11  C   UNL d   1      53.921  30.497  52.788  0.00  0.00     0.000 A 
ATOM     12  C   UNL d   1      53.643  31.256  52.835  0.00  0.00     0.002 A 
ENDBRANCH   3   6
BRANCH   1  13
ATOM     13  C   UNL d   1      53.717  32.864  54.024  0.00  0.00     0.222 C 
ATOM     14  S   UNL d   1      54.426  32.975  53.606  0.00  0.00    -0.037 SA
BRANCH  13  15
ATOM     15  N   UNL d   1      53.714  32.764  54.850  0.00  0.00    -0.214 NA
ATOM     16  C   UNL d   1      54.325  33.113  55.312  0.00  0.00     0.122 C 
ENDBRANCH  13  15
ENDBRANCH   1  13
BRANCH   4  17
ATOM     17  C   UNL d   1      51.222  33.732  52.796  0.00  0.00     0.019 A 
ATOM     18  C   UNL d   1      51.114  33.887  51.993  0.00  0.00     0.002 A 
ATOM     19  C   UNL d   1      50.492  34.368  51.743  0.00  0.00     0.000 A 
ATOM     20  C   UNL d   1      49.975  34.696  52.293  0.00  0.00     0.000 A 
ATOM     21  C   UNL d   1      50.077  34.546  53.090  0.00  0.00     0.000 A 
ATOM     22  C   UNL d   1      50.700  34.065  53.341  0.00  0.00     0.002 A 
ENDBRANCH   4  17
TORSDOF 4
ENDMDL
MODEL 6
REMARK VINA RESULT:      -8.0      1.070      3.684
REMARK  4 active torsions:
REMARK  status: ('A' for Active; 'I' for Inactive)
REMARK    1  A    between atoms: C_5  and  N_1 
REMARK    2  A    between atoms: C_7  and  C_3 
REMARK    3  A    between atoms: C_10  and  C_4 
REMARK    4  A    between atoms: N_11  and  C_5 
ROOT
ATOM      1  N   UNL d   1      52.787  32.412  53.463  0.00  0.00    -0.203 N 
ATOM      2  N   UNL d   1      53.499  32.404  53.890  0.00  0.00    -0.163 NA
ATOM      3  C   UNL d   1      52.505  33.185  53.440  0.00  0.00     0.088 A 
ATOM      4  C   UNL d   1      53.655  33.188  54.134  0.00  0.00     0.103 A 
ATOM      5  C   UNL d   1      53.042  33.665  53.856  0.00  0.00     0.040 A 
ENDROOT
BRANCH   3   6
ATOM      6  C   UNL d   1      51.816  33.477  53.082  0.00  0.00     0.028 A 
ATOM      7  C   UNL d   1      51.874  33.983  52.445  0.00  0.00     0.059 A 
ATOM      8 CL   UNL d   1      52.322  34.089  52.305  0.00  0.00    -0.082 Cl
ATOM      9  C   UNL d   1      51.191  34.278  52.082  0.00  0.00     0.011 A 
ATOM     10  C   UNL d   1      50.451  34.064  52.361  0.00  0.00     0.001 A 
ATOM     11  C   UNL d   1      50.407  33.549  53.009  0.00  0.00     0.000 A 
ATOM     12  C   UNL d   1      51.082  33.267  53.356  0.00  0.00     0.002 A 
ENDBRANCH   3   6
BRANCH   1  13
ATOM     13  C   UNL d   1      52.425  31.732  53.115  0.00  0.00     0.222 C 
ATOM     14  S   UNL d   1      51.770  31.389  53.494  0.00  0.00    -0.037 SA
BRANCH  13  15
ATOM     15  N   UNL d   1      52.726  31.418  52.405  0.00  0.00    -0.214 NA
ATOM     16  C   UNL d   1      52.838  30.587  52.335  0.00  0.00     0.122 C 
ENDBRANCH  13  15
ENDBRANCH   1  13
BRANCH   4  17
ATOM     17  C   UNL d   1      54.301  33.422  54.567  0.00  0.00     0.019 A 
ATOM     18  C   UNL d   1      54.237  33.479  55.387  0.00  0.00     0.002 A 
ATOM     19  C   UNL d   1      54.886  33.716  55.839  0.00  0.00     0.000 A 
ATOM     20  C   UNL d   1      55.601  33.897  55.474  0.00  0.00     0.000 A 
ATOM     21  C   UNL d   1      55.670  33.842  54.661  0.00  0.00     0.000 A 
ATOM     22  C   UNL d   1      55.021  33.605  54.209  0.00  0.00     0.002 A 
ENDBRANCH   4  17
TORSDOF 4
ENDMDL
