MODEL 1
REMARK VINA RESULT:      -9.4      0.000      0.000
REMARK  5 active torsions:
REMARK  status: ('A' for Active; 'I' for Inactive)
REMARK    1  A    between atoms: C_8  and  C_1 
REMARK    2  A    between atoms: N_6  and  C_2 
REMARK    3  A    between atoms: C_12  and  C_4 
REMARK       I    between atoms: C_7  and  N_6 
REMARK    4  A    between atoms: C_9  and  C_7 
REMARK    5  A    between atoms: O_15  and  C_8 
ROOT
ATOM      1  C   UNL d   1      53.499  32.946  53.737  0.00  0.00     0.110 A 
ATOM      2  C   UNL d   1      53.169  32.238  53.506  0.00  0.00     0.096 A 
ATOM      3  S   UNL d   1      52.962  33.550  53.514  0.00  0.00    -0.080 SA
ATOM      4  C   UNL d   1      52.315  33.192  53.150  0.00  0.00     0.031 A 
ATOM      5  C   UNL d   1      52.446  32.373  53.145  0.00  0.00     0.026 A 
ENDROOT
BRANCH   2   6
ATOM      6  N   UNL d   1      53.528  31.505  53.626  0.00  0.00    -0.207 NA
ATOM      7  C   UNL d   1      53.139  30.813  53.429  0.00  0.00     0.279 C 
ATOM      8  O   UNL d   1      52.369  30.864  53.102  0.00  0.00    -0.265 OA
BRANCH   7   9
ATOM      9  C   UNL d   1      53.475  30.087  53.540  0.00  0.00     0.058 A 
ATOM     10  C   UNL d   1      53.820  29.347  53.652  0.00  0.00     0.005 A 
ATOM     11  C   UNL d   1      53.069  29.500  53.960  0.00  0.00     0.005 A 
ENDBRANCH   7   9
ENDBRANCH   2   6
BRANCH   1  12
ATOM     12  C   UNL d   1      54.223  33.042  54.119  0.00  0.00     0.303 C 
ATOM     13  O   UNL d   1      54.938  33.000  53.681  0.00  0.00    -0.259 OA
BRANCH  12  14
ATOM     14  O   UNL d   1      54.248  33.183  54.944  0.00  0.00    -0.295 OA
ATOM     15  C   UNL d   1      54.900  33.521  55.283  0.00  0.00     0.185 C 
ENDBRANCH  12  14
ENDBRANCH   1  12
BRANCH   4  16
ATOM     16  C   UNL d   1      51.659  33.621  52.849  0.00  0.00     0.006 A 
ATOM     17  C   UNL d   1      50.974  33.692  53.306  0.00  0.00     0.001 A 
ATOM     18  C   UNL d   1      50.337  34.110  53.011  0.00  0.00     0.000 A 
ATOM     19  C   UNL d   1      50.383  34.459  52.259  0.00  0.00     0.000 A 
ATOM     20  C   UNL d   1      51.084  34.377  51.812  0.00  0.00     0.000 A 
ATOM     21  C   UNL d   1      51.706  33.955  52.128  0.00  0.00     0.001 A 
ENDBRANCH   4  16
TORSDOF 5
ENDMDL
MODEL 2
REMARK VINA RESULT:      -8.8      1.326      3.923
REMARK  5 active torsions:
REMARK  status: ('A' for Active; 'I' for Inactive)
REMARK    1  A    between atoms: C_8  and  C_1 
REMARK    2  A    between atoms: N_6  and  C_2 
REMARK    3  A    between atoms: C_12  and  C_4 
REMARK       I    between atoms: C_7  and  N_6 
REMARK    4  A    between atoms: C_9  and  C_7 
REMARK    5  A    between atoms: O_15  and  C_8 
ROOT
ATOM      1  C   UNL d   1      52.970  32.101  53.299  0.00  0.00     0.110 A 
ATOM      2  C   UNL d   1      52.614  32.832  53.264  0.00  0.00     0.096 A 
ATOM      3  S   UNL d   1      53.658  32.186  53.771  0.00  0.00    -0.080 SA
ATOM      4  C   UNL d   1      53.702  32.973  54.012  0.00  0.00     0.031 A 
ATOM      5  C   UNL d   1      53.050  33.375  53.695  0.00  0.00     0.026 A 
ENDROOT
BRANCH   2   6
ATOM      6  N   UNL d   1      51.917  32.982  52.849  0.00  0.00    -0.207 NA
ATOM      7  C   UNL d   1      51.580  33.728  52.856  0.00  0.00     0.279 C 
ATOM      8  O   UNL d   1      51.957  34.335  53.293  0.00  0.00    -0.265 OA
BRANCH   7   9
ATOM      9  C   UNL d   1      50.897  33.892  52.456  0.00  0.00     0.058 A 
ATOM     10  C   UNL d   1      50.203  34.058  52.046  0.00  0.00     0.005 A 
ATOM     11  C   UNL d   1      50.333  34.400  52.787  0.00  0.00     0.005 A 
ENDBRANCH   7   9
ENDBRANCH   2   6
BRANCH   1  12
ATOM     12  C   UNL d   1      52.699  31.411  52.937  0.00  0.00     0.303 C 
ATOM     13  O   UNL d   1      52.808  31.298  52.113  0.00  0.00    -0.259 OA
BRANCH  12  14
ATOM     14  O   UNL d   1      52.315  30.821  53.390  0.00  0.00    -0.295 OA
ATOM     15  C   UNL d   1      52.361  30.043  53.174  0.00  0.00     0.185 C 
ENDBRANCH  12  14
ENDBRANCH   1  12
BRANCH   4  16
ATOM     16  C   UNL d   1      54.321  33.272  54.497  0.00  0.00     0.006 A 
ATOM     17  C   UNL d   1      55.012  33.558  54.146  0.00  0.00     0.001 A 
ATOM     18  C   UNL d   1      55.611  33.848  54.619  0.00  0.00     0.000 A 
ATOM     19  C   UNL d   1      55.520  33.853  55.444  0.00  0.00     0.000 A 
ATOM     20  C   UNL d   1      54.815  33.560  55.781  0.00  0.00     0.000 A 
ATOM     21  C   UNL d   1      54.231  33.276  55.288  0.00  0.00     0.001 A 
ENDBRANCH   4  16
TORSDOF 5
ENDMDL
MODEL 3
REMARK VINA RESULT:      -8.3      0.842      2.498
REMARK  5 active torsions:
REMARK  status: ('A' for Active; 'I' for Inactive)
REMARK    1  A    between atoms: C_8  and  C_1 
REMARK    2  A    between atoms: N_6  and  C_2 
REMARK    3  A    between atoms: C_12  and  C_4 
REMARK       I    between atoms: C_7  and  N_6 
REMARK    4  A    between atoms: C_9  and  C_7 
REMARK    5  A    between atoms: O_15  and  C_8 
ROOT
ATOM      1  C   UNL d   1      52.973  32.259  53.263  0.00  0.00     0.110 A 
ATOM      2  C   UNL d   1      53.266  32.942  53.595  0.00  0.00     0.096 A 
ATOM      3  S   UNL d   1      52.241  32.457  52.905  0.00  0.00    -0.080 SA
ATOM      4  C   UNL d   1      52.107  33.260  53.029  0.00  0.00     0.031 A 
ATOM      5  C   UNL d   1      52.748  33.562  53.460  0.00  0.00     0.026 A 
ENDROOT
BRANCH   2   6
ATOM      6  N   UNL d   1      53.982  32.982  54.004  0.00  0.00    -0.207 NA
ATOM      7  C   UNL d   1      54.134  33.599  54.520  0.00  0.00     0.279 C 
ATOM      8  O   UNL d   1      53.548  34.188  54.625  0.00  0.00    -0.265 OA
BRANCH   7   9
ATOM      9  C   UNL d   1      54.830  33.653  54.927  0.00  0.00     0.058 A 
ATOM     10  C   UNL d   1      55.540  33.708  55.341  0.00  0.00     0.005 A 
ATOM     11  C   UNL d   1      54.826  33.678  55.755  0.00  0.00     0.005 A 
ENDBRANCH   7   9
ENDBRANCH   2   6
BRANCH   1  12
ATOM     12  C   UNL d   1      53.334  31.517  53.280  0.00  0.00     0.303 C 
ATOM     13  O   UNL d   1      54.029  31.378  52.833  0.00  0.00    -0.259 OA
BRANCH  12  14
ATOM     14  O   UNL d   1      53.006  30.901  53.743  0.00  0.00    -0.295 OA
ATOM     15  C   UNL d   1      53.252  30.138  53.643  0.00  0.00     0.185 C 
ENDBRANCH  12  14
ENDBRANCH   1  12
BRANCH   4  16
ATOM     16  C   UNL d   1      51.425  33.662  52.749  0.00  0.00     0.006 A 
ATOM     17  C   UNL d   1      50.755  33.714  53.230  0.00  0.00     0.001 A 
ATOM     18  C   UNL d   1      50.093  34.106  52.955  0.00  0.00     0.000 A 
ATOM     19  C   UNL d   1      50.099  34.447  52.199  0.00  0.00     0.000 A 
ATOM     20  C   UNL d   1      50.785  34.385  51.727  0.00  0.00     0.000 A 
ATOM     21  C   UNL d   1      51.433  33.989  52.023  0.00  0.00     0.001 A 
ENDBRANCH   4  16
TORSDOF 5
ENDMDL
MODEL 4
REMARK VINA RESULT:      -8.1      1.172      3.170
REMARK  5 active torsions:
REMARK  status: ('A' for Active; 'I' for Inactive)
REMARK    1  A    between atoms: C_8  and  C_1 
REMARK    2  A    between atoms: N_6  and  C_2 
REMARK    3  A    between atoms: C_12  and  C_4 
REMARK       I    between atoms: C_7  and  N_6 
REMARK    4  A    between atoms: C_9  and  C_7 
REMARK    5  A    between atoms: O_15  and  C_8 
ROOT
ATOM      1  C   UNL d   1      52.700  32.851  53.362  0.00  0.00     0.110 A 
ATOM      2  C   UNL d   1      53.055  32.121  53.428  0.00  0.00     0.096 A 
ATOM      3  S   UNL d   1      53.183  33.395  53.779  0.00  0.00    -0.080 SA
ATOM      4  C   UNL d   1      53.822  32.980  54.090  0.00  0.00     0.031 A 
ATOM      5  C   UNL d   1      53.742  32.184  53.870  0.00  0.00     0.026 A 
ENDROOT
BRANCH   2   6
ATOM      6  N   UNL d   1      52.751  31.432  53.091  0.00  0.00    -0.207 NA
ATOM      7  C   UNL d   1      53.045  30.699  53.303  0.00  0.00     0.279 C 
ATOM      8  O   UNL d   1      53.661  30.662  53.869  0.00  0.00    -0.265 OA
BRANCH   7   9
ATOM      9  C   UNL d   1      52.759  30.014  52.983  0.00  0.00     0.058 A 
ATOM     10  C   UNL d   1      52.467  29.318  52.655  0.00  0.00     0.005 A 
ATOM     11  C   UNL d   1      52.701  29.330  53.447  0.00  0.00     0.005 A 
ENDBRANCH   7   9
ENDBRANCH   2   6
BRANCH   1  12
ATOM     12  C   UNL d   1      52.000  33.016  52.959  0.00  0.00     0.303 C 
ATOM     13  O   UNL d   1      52.003  33.095  52.124  0.00  0.00    -0.259 OA
BRANCH  12  14
ATOM     14  O   UNL d   1      51.283  33.104  53.383  0.00  0.00    -0.295 OA
ATOM     15  C   UNL d   1      50.665  33.515  53.062  0.00  0.00     0.185 C 
ENDBRANCH  12  14
ENDBRANCH   1  12
BRANCH   4  16
ATOM     16  C   UNL d   1      54.429  33.341  54.546  0.00  0.00     0.006 A 
ATOM     17  C   UNL d   1      55.120  33.600  54.174  0.00  0.00     0.001 A 
ATOM     18  C   UNL d   1      55.708  33.950  54.620  0.00  0.00     0.000 A 
ATOM     19  C   UNL d   1      55.606  34.043  55.439  0.00  0.00     0.000 A 
ATOM     20  C   UNL d   1      54.902  33.775  55.797  0.00  0.00     0.000 A 
ATOM     21  C   UNL d   1      54.330  33.428  55.331  0.00  0.00     0.001 A 
ENDBRANCH   4  16
TORSDOF 5
ENDMDL
MODEL 5
REMARK VINA RESULT:      -7.9      0.959      3.629
REMARK  5 active torsions:
REMARK  status: ('A' for Active; 'I' for Inactive)
REMARK    1  A    between atoms: C_8  and  C_1 
REMARK    2  A    between atoms: N_6  and  C_2 
REMARK    3  A    between atoms: C_12  and  C_4 
REMARK       I    between atoms: C_7  and  N_6 
REMARK    4  A    between atoms: C_9  and  C_7 
REMARK    5  A    between atoms: O_15  and  C_8 
ROOT
ATOM      1  C   UNL d   1      53.924  32.419  53.834  0.00  0.00     0.110 A 
ATOM      2  C   UNL d   1      53.213  32.514  53.449  0.00  0.00     0.096 A 
ATOM      3  S   UNL d   1      54.012  31.599  53.986  0.00  0.00    -0.080 SA
ATOM      4  C   UNL d   1      53.348  31.215  53.686  0.00  0.00     0.031 A 
ATOM      5  C   UNL d   1      52.850  31.787  53.352  0.00  0.00     0.026 A 
ENDROOT
BRANCH   2   6
ATOM      6  N   UNL d   1      52.921  33.245  53.202  0.00  0.00    -0.207 NA
ATOM      7  C   UNL d   1      52.123  33.346  53.050  0.00  0.00     0.279 C 
ATOM      8  O   UNL d   1      51.610  32.691  53.150  0.00  0.00    -0.265 OA
BRANCH   7   9
ATOM      9  C   UNL d   1      51.820  34.054  52.807  0.00  0.00     0.058 A 
ATOM     10  C   UNL d   1      51.514  34.777  52.559  0.00  0.00     0.005 A 
ATOM     11  C   UNL d   1      51.003  34.185  52.825  0.00  0.00     0.005 A 
ENDBRANCH   7   9
ENDBRANCH   2   6
BRANCH   1  12
ATOM     12  C   UNL d   1      54.452  33.020  54.034  0.00  0.00     0.303 C 
ATOM     13  O   UNL d   1      55.004  33.301  53.469  0.00  0.00    -0.259 OA
BRANCH  12  14
ATOM     14  O   UNL d   1      54.440  33.352  54.803  0.00  0.00    -0.295 OA
ATOM     15  C   UNL d   1      55.082  33.753  55.088  0.00  0.00     0.185 C 
ENDBRANCH  12  14
ENDBRANCH   1  12
BRANCH   4  16
ATOM     16  C   UNL d   1      53.236  30.383  53.734  0.00  0.00     0.006 A 
ATOM     17  C   UNL d   1      52.993  29.964  53.065  0.00  0.00     0.001 A 
ATOM     18  C   UNL d   1      52.885  29.156  53.114  0.00  0.00     0.000 A 
ATOM     19  C   UNL d   1      53.020  28.764  53.834  0.00  0.00     0.000 A 
ATOM     20  C   UNL d   1      53.265  29.204  54.500  0.00  0.00     0.000 A 
ATOM     21  C   UNL d   1      53.366  30.010  54.425  0.00  0.00     0.001 A 
ENDBRANCH   4  16
TORSDOF 5
ENDMDL
MODEL 6
REMARK VINA RESULT:      -7.6      1.871      4.093
REMARK  5 active torsions:
REMARK  status: ('A' for Active; 'I' for Inactive)
REMARK    1  A    between atoms: C_8  and  C_1 
REMARK    2  A    between atoms: N_6  and  C_2 
REMARK    3  A    between atoms: C_12  and  C_4 
REMARK       I    between atoms: C_7  and  N_6 
REMARK    4  A    between atoms: C_9  and  C_7 
REMARK    5  A    between atoms: O_15  and  C_8 
ROOT
ATOM      1  C   UNL d   1      51.918  33.384  52.831  0.00  0.00     0.110 A 
ATOM      2  C   UNL d   1      52.550  33.645  53.273  0.00  0.00     0.096 A 
ATOM      3  S   UNL d   1      51.990  32.550  52.772  0.00  0.00    -0.080 SA
ATOM      4  C   UNL d   1      52.668  32.326  53.182  0.00  0.00     0.031 A 
ATOM      5  C   UNL d   1      53.017  33.010  53.495  0.00  0.00     0.026 A 
ENDROOT
BRANCH   2   6
ATOM      6  N   UNL d   1      52.681  34.438  53.458  0.00  0.00    -0.207 NA
ATOM      7  C   UNL d   1      53.047  34.648  54.159  0.00  0.00     0.279 C 
ATOM      8  O   UNL d   1      53.286  34.040  54.684  0.00  0.00    -0.265 OA
BRANCH   7   9
ATOM      9  C   UNL d   1      53.184  35.420  54.357  0.00  0.00     0.058 A 
ATOM     10  C   UNL d   1      53.324  36.206  54.555  0.00  0.00     0.005 A 
ATOM     11  C   UNL d   1      52.937  35.711  55.091  0.00  0.00     0.005 A 
ENDBRANCH   7   9
ENDBRANCH   2   6
BRANCH   1  12
ATOM     12  C   UNL d   1      51.324  33.855  52.506  0.00  0.00     0.303 C 
ATOM     13  O   UNL d   1      51.458  34.264  51.786  0.00  0.00    -0.259 OA
BRANCH  12  14
ATOM     14  O   UNL d   1      50.585  33.925  52.893  0.00  0.00    -0.295 OA
ATOM     15  C   UNL d   1      49.973  34.321  52.541  0.00  0.00     0.185 C 
ENDBRANCH  12  14
ENDBRANCH   1  12
BRANCH   4  16
ATOM     16  C   UNL d   1      52.924  31.528  53.247  0.00  0.00     0.006 A 
ATOM     17  C   UNL d   1      53.633  31.357  53.635  0.00  0.00     0.001 A 
ATOM     18  C   UNL d   1      53.880  30.581  53.697  0.00  0.00     0.000 A 
ATOM     19  C   UNL d   1      53.419  29.973  53.371  0.00  0.00     0.000 A 
ATOM     20  C   UNL d   1      52.705  30.164  52.982  0.00  0.00     0.000 A 
ATOM     21  C   UNL d   1      52.480  30.947  52.933  0.00  0.00     0.001 A 
ENDBRANCH   4  16
TORSDOF 5
ENDMDL
