MODEL 1
REMARK VINA RESULT:      -5.8      0.000      0.000
REMARK  6 active torsions:
REMARK  status: ('A' for Active; 'I' for Inactive)
REMARK    1  A    between atoms: C_8  and  C_3 
REMARK    2  A    between atoms: C_7  and  O_15 
REMARK    3  A    between atoms: S_9  and  C_8 
REMARK    4  A    between atoms: C_18  and  S_9 
REMARK    5  A    between atoms: O_15  and  C_19 
REMARK    6  A    between atoms: C_19  and  C_18 
ROOT
ATOM      1  S   UNL d   1     -47.555  12.290  23.368  0.00  0.00    -0.081 SA
ENDROOT
BRANCH   1   2
ATOM      2  C   UNL d   1     -47.106  11.662  23.653  0.00  0.00     0.074 C 
BRANCH   2   3
ATOM      3  C   UNL d   1     -46.298  11.635  23.503  0.00  0.00     0.169 A 
ATOM      4  N   UNL d   1     -45.555  11.946  23.276  0.00  0.00    -0.225 NA
ATOM      5  C   UNL d   1     -44.989  11.331  23.329  0.00  0.00     0.101 A 
ATOM      6  C   UNL d   1     -45.389  10.647  23.588  0.00  0.00     0.101 A 
ATOM      7  C   UNL d   1     -44.173  11.291  23.181  0.00  0.00     0.021 A 
ATOM      8  N   UNL d   1     -46.196  10.826  23.698  0.00  0.00    -0.225 NA
ATOM      9  C   UNL d   1     -44.965   9.937  23.694  0.00  0.00     0.021 A 
ATOM     10  C   UNL d   1     -44.163   9.914  23.545  0.00  0.00     0.002 A 
ATOM     11  C   UNL d   1     -43.767  10.591  23.288  0.00  0.00     0.002 A 
ENDBRANCH   2   3
ENDBRANCH   1   2
BRANCH   1  12
ATOM     12  C   UNL d   1     -48.338  12.168  23.145  0.00  0.00     0.062 C 
BRANCH  12  13
ATOM     13  C   UNL d   1     -48.851  12.809  23.077  0.00  0.00     0.130 C 
BRANCH  13  14
ATOM     14  O   UNL d   1     -49.568  12.713  22.680  0.00  0.00    -0.305 OA
BRANCH  14  15
ATOM     15  C   UNL d   1     -49.749  13.501  22.844  0.00  0.00     0.100 A 
ATOM     16  C   UNL d   1     -50.149  13.689  23.530  0.00  0.00     0.026 A 
ATOM     17  C   UNL d   1     -50.332  14.476  23.698  0.00  0.00     0.013 A 
ATOM     18  C   UNL d   1     -50.110  15.073  23.170  0.00  0.00     0.058 A 
ATOM     19  C   UNL d   1     -49.707  14.878  22.482  0.00  0.00     0.013 A 
ATOM     20 CL   UNL d   1     -50.291  15.861  23.334  0.00  0.00    -0.082 Cl
ATOM     21  C   UNL d   1     -49.528  14.088  22.322  0.00  0.00     0.026 A 
ENDBRANCH  14  15
ENDBRANCH  13  14
ENDBRANCH  12  13
ENDBRANCH   1  12
TORSDOF 6
ENDMDL
MODEL 2
REMARK VINA RESULT:      -5.2      1.601      2.029
REMARK  6 active torsions:
REMARK  status: ('A' for Active; 'I' for Inactive)
REMARK    1  A    between atoms: C_8  and  C_3 
REMARK    2  A    between atoms: C_7  and  O_15 
REMARK    3  A    between atoms: S_9  and  C_8 
REMARK    4  A    between atoms: C_18  and  S_9 
REMARK    5  A    between atoms: O_15  and  C_19 
REMARK    6  A    between atoms: C_19  and  C_18 
ROOT
ATOM      1  S   UNL d   1     -47.018  12.493  23.412  0.00  0.00    -0.081 SA
ENDROOT
BRANCH   1   2
ATOM      2  C   UNL d   1     -46.253  12.196  23.353  0.00  0.00     0.074 C 
BRANCH   2   3
ATOM      3  C   UNL d   1     -45.713  12.553  22.845  0.00  0.00     0.169 A 
ATOM      4  N   UNL d   1     -45.443  13.137  22.309  0.00  0.00    -0.225 NA
ATOM      5  C   UNL d   1     -44.665  12.933  22.075  0.00  0.00     0.101 A 
ATOM      6  C   UNL d   1     -44.464  12.226  22.467  0.00  0.00     0.101 A 
ATOM      7  C   UNL d   1     -44.112  13.284  21.564  0.00  0.00     0.021 A 
ATOM      8  N   UNL d   1     -45.105  11.985  22.944  0.00  0.00    -0.225 NA
ATOM      9  C   UNL d   1     -43.714  11.884  22.342  0.00  0.00     0.021 A 
ATOM     10  C   UNL d   1     -43.181  12.241  21.838  0.00  0.00     0.002 A 
ATOM     11  C   UNL d   1     -43.380  12.940  21.449  0.00  0.00     0.002 A 
ENDBRANCH   2   3
ENDBRANCH   1   2
BRANCH   1  12
ATOM     12  C   UNL d   1     -47.636  11.994  23.626  0.00  0.00     0.062 C 
BRANCH  12  13
ATOM     13  C   UNL d   1     -48.385  12.105  23.302  0.00  0.00     0.130 C 
BRANCH  13  14
ATOM     14  O   UNL d   1     -48.989  11.574  23.487  0.00  0.00    -0.305 OA
BRANCH  14  15
ATOM     15  C   UNL d   1     -49.508  12.027  23.032  0.00  0.00     0.100 A 
ATOM     16  C   UNL d   1     -49.991  12.575  23.398  0.00  0.00     0.026 A 
ATOM     17  C   UNL d   1     -50.512  13.030  22.948  0.00  0.00     0.013 A 
ATOM     18  C   UNL d   1     -50.544  12.930  22.126  0.00  0.00     0.058 A 
ATOM     19  C   UNL d   1     -50.056  12.378  21.765  0.00  0.00     0.013 A 
ATOM     20 CL   UNL d   1     -51.063  13.384  21.673  0.00  0.00    -0.082 Cl
ATOM     21  C   UNL d   1     -49.538  11.927  22.223  0.00  0.00     0.026 A 
ENDBRANCH  14  15
ENDBRANCH  13  14
ENDBRANCH  12  13
ENDBRANCH   1  12
TORSDOF 6
ENDMDL
MODEL 3
REMARK VINA RESULT:      -5.0      8.800      9.655
REMARK  6 active torsions:
REMARK  status: ('A' for Active; 'I' for Inactive)
REMARK    1  A    between atoms: C_8  and  C_3 
REMARK    2  A    between atoms: C_7  and  O_15 
REMARK    3  A    between atoms: S_9  and  C_8 
REMARK    4  A    between atoms: C_18  and  S_9 
REMARK    5  A    between atoms: O_15  and  C_19 
REMARK    6  A    between atoms: C_19  and  C_18 
ROOT
ATOM      1  S   UNL d   1     -40.250  14.840  19.993  0.00  0.00    -0.081 SA
ENDROOT
BRANCH   1   2
ATOM      2  C   UNL d   1     -40.094  14.493  20.723  0.00  0.00     0.074 C 
BRANCH   2   3
ATOM      3  C   UNL d   1     -39.798  14.951  21.339  0.00  0.00     0.169 A 
ATOM      4  N   UNL d   1     -39.654  15.662  21.758  0.00  0.00    -0.225 NA
ATOM      5  C   UNL d   1     -39.222  15.470  22.451  0.00  0.00     0.101 A 
ATOM      6  C   UNL d   1     -39.106  14.645  22.451  0.00  0.00     0.101 A 
ATOM      7  C   UNL d   1     -38.919  15.922  23.078  0.00  0.00     0.021 A 
ATOM      8  N   UNL d   1     -39.458  14.318  21.769  0.00  0.00    -0.225 NA
ATOM      9  C   UNL d   1     -38.689  14.288  23.079  0.00  0.00     0.021 A 
ATOM     10  C   UNL d   1     -38.397  14.745  23.688  0.00  0.00     0.002 A 
ATOM     11  C   UNL d   1     -38.512  15.562  23.687  0.00  0.00     0.002 A 
ENDBRANCH   2   3
ENDBRANCH   1   2
BRANCH   1  12
ATOM     12  C   UNL d   1     -40.513  14.375  19.366  0.00  0.00     0.062 C 
BRANCH  12  13
ATOM     13  C   UNL d   1     -40.335  14.591  18.592  0.00  0.00     0.130 C 
BRANCH  13  14
ATOM     14  O   UNL d   1     -40.792  14.292  17.973  0.00  0.00    -0.305 OA
BRANCH  14  15
ATOM     15  C   UNL d   1     -40.265  14.632  17.437  0.00  0.00     0.100 A 
ATOM     16  C   UNL d   1     -39.607  14.212  17.197  0.00  0.00     0.026 A 
ATOM     17  C   UNL d   1     -39.077  14.548  16.661  0.00  0.00     0.013 A 
ATOM     18  C   UNL d   1     -39.213  15.310  16.368  0.00  0.00     0.058 A 
ATOM     19  C   UNL d   1     -39.876  15.727  16.614  0.00  0.00     0.013 A 
ATOM     20 CL   UNL d   1     -38.686  15.650  15.832  0.00  0.00    -0.082 Cl
ATOM     21  C   UNL d   1     -40.401  15.384  17.150  0.00  0.00     0.026 A 
ENDBRANCH  14  15
ENDBRANCH  13  14
ENDBRANCH  12  13
ENDBRANCH   1  12
TORSDOF 6
ENDMDL
MODEL 4
REMARK VINA RESULT:      -4.7      8.814     10.270
REMARK  6 active torsions:
REMARK  status: ('A' for Active; 'I' for Inactive)
REMARK    1  A    between atoms: C_8  and  C_3 
REMARK    2  A    between atoms: C_7  and  O_15 
REMARK    3  A    between atoms: S_9  and  C_8 
REMARK    4  A    between atoms: C_18  and  S_9 
REMARK    5  A    between atoms: O_15  and  C_19 
REMARK    6  A    between atoms: C_19  and  C_18 
ROOT
ATOM      1  S   UNL d   1     -39.920  14.758  18.876  0.00  0.00    -0.081 SA
ENDROOT
BRANCH   1   2
ATOM      2  C   UNL d   1     -39.795  14.312  18.196  0.00  0.00     0.074 C 
BRANCH   2   3
ATOM      3  C   UNL d   1     -39.409  14.646  17.551  0.00  0.00     0.169 A 
ATOM      4  N   UNL d   1     -39.147  15.274  17.063  0.00  0.00    -0.225 NA
ATOM      5  C   UNL d   1     -38.714  14.942  16.427  0.00  0.00     0.101 A 
ATOM      6  C   UNL d   1     -38.714  14.116  16.530  0.00  0.00     0.101 A 
ATOM      7  C   UNL d   1     -38.321  15.269  15.772  0.00  0.00     0.021 A 
ATOM      8  N   UNL d   1     -39.141  13.925  17.221  0.00  0.00    -0.225 NA
ATOM      9  C   UNL d   1     -38.321  13.632  15.976  0.00  0.00     0.021 A 
ATOM     10  C   UNL d   1     -37.940  13.967  15.338  0.00  0.00     0.002 A 
ATOM     11  C   UNL d   1     -37.940  14.786  15.236  0.00  0.00     0.002 A 
ENDBRANCH   2   3
ENDBRANCH   1   2
BRANCH   1  12
ATOM     12  C   UNL d   1     -40.256  14.407  19.541  0.00  0.00     0.062 C 
BRANCH  12  13
ATOM     13  C   UNL d   1     -40.036  14.659  20.293  0.00  0.00     0.130 C 
BRANCH  13  14
ATOM     14  O   UNL d   1     -40.602  14.689  20.892  0.00  0.00    -0.305 OA
BRANCH  14  15
ATOM     15  C   UNL d   1     -39.994  14.737  21.448  0.00  0.00     0.100 A 
ATOM     16  C   UNL d   1     -39.680  14.052  21.763  0.00  0.00     0.026 A 
ATOM     17  C   UNL d   1     -39.072  14.095  22.318  0.00  0.00     0.013 A 
ATOM     18  C   UNL d   1     -38.780  14.833  22.555  0.00  0.00     0.058 A 
ATOM     19  C   UNL d   1     -39.100  15.518  22.235  0.00  0.00     0.013 A 
ATOM     20 CL   UNL d   1     -38.172  14.880  23.111  0.00  0.00    -0.082 Cl
ATOM     21  C   UNL d   1     -39.708  15.466  21.680  0.00  0.00     0.026 A 
ENDBRANCH  14  15
ENDBRANCH  13  14
ENDBRANCH  12  13
ENDBRANCH   1  12
TORSDOF 6
ENDMDL
MODEL 5
REMARK VINA RESULT:      -4.5      4.473      6.566
REMARK  6 active torsions:
REMARK  status: ('A' for Active; 'I' for Inactive)
REMARK    1  A    between atoms: C_8  and  C_3 
REMARK    2  A    between atoms: C_7  and  O_15 
REMARK    3  A    between atoms: S_9  and  C_8 
REMARK    4  A    between atoms: C_18  and  S_9 
REMARK    5  A    between atoms: O_15  and  C_19 
REMARK    6  A    between atoms: C_19  and  C_18 
ROOT
ATOM      1  S   UNL d   1     -43.593  13.295  21.439  0.00  0.00    -0.081 SA
ENDROOT
BRANCH   1   2
ATOM      2  C   UNL d   1     -44.099  12.806  21.864  0.00  0.00     0.074 C 
BRANCH   2   3
ATOM      3  C   UNL d   1     -44.832  13.088  22.108  0.00  0.00     0.169 A 
ATOM      4  N   UNL d   1     -45.447  13.653  22.175  0.00  0.00    -0.225 NA
ATOM      5  C   UNL d   1     -46.065  13.310  22.625  0.00  0.00     0.101 A 
ATOM      6  C   UNL d   1     -45.825  12.540  22.831  0.00  0.00     0.101 A 
ATOM      7  C   UNL d   1     -46.807  13.584  22.877  0.00  0.00     0.021 A 
ATOM      8  N   UNL d   1     -45.066  12.394  22.516  0.00  0.00    -0.225 NA
ATOM      9  C   UNL d   1     -46.332  12.058  23.285  0.00  0.00     0.021 A 
ATOM     10  C   UNL d   1     -47.058  12.341  23.525  0.00  0.00     0.002 A 
ATOM     11  C   UNL d   1     -47.296  13.104  23.321  0.00  0.00     0.002 A 
ENDBRANCH   2   3
ENDBRANCH   1   2
BRANCH   1  12
ATOM     12  C   UNL d   1     -42.806  13.076  21.331  0.00  0.00     0.062 C 
BRANCH  12  13
ATOM     13  C   UNL d   1     -42.242  13.648  21.150  0.00  0.00     0.130 C 
BRANCH  13  14
ATOM     14  O   UNL d   1     -41.775  13.558  20.476  0.00  0.00    -0.305 OA
BRANCH  14  15
ATOM     15  C   UNL d   1     -41.275  14.150  20.759  0.00  0.00     0.100 A 
ATOM     16  C   UNL d   1     -40.619  13.946  21.202  0.00  0.00     0.026 A 
ATOM     17  C   UNL d   1     -40.116  14.535  21.486  0.00  0.00     0.013 A 
ATOM     18  C   UNL d   1     -40.276  15.331  21.323  0.00  0.00     0.058 A 
ATOM     19  C   UNL d   1     -40.937  15.528  20.877  0.00  0.00     0.013 A 
ATOM     20 CL   UNL d   1     -39.776  15.922  21.606  0.00  0.00    -0.082 Cl
ATOM     21  C   UNL d   1     -41.435  14.933  20.596  0.00  0.00     0.026 A 
ENDBRANCH  14  15
ENDBRANCH  13  14
ENDBRANCH  12  13
ENDBRANCH   1  12
TORSDOF 6
ENDMDL
MODEL 6
REMARK VINA RESULT:      -4.3      2.792      5.845
REMARK  6 active torsions:
REMARK  status: ('A' for Active; 'I' for Inactive)
REMARK    1  A    between atoms: C_8  and  C_3 
REMARK    2  A    between atoms: C_7  and  O_15 
REMARK    3  A    between atoms: S_9  and  C_8 
REMARK    4  A    between atoms: C_18  and  S_9 
REMARK    5  A    between atoms: O_15  and  C_19 
REMARK    6  A    between atoms: C_19  and  C_18 
ROOT
ATOM      1  S   UNL d   1     -47.145  13.590  22.701  0.00  0.00    -0.081 SA
ENDROOT
BRANCH   1   2
ATOM      2  C   UNL d   1     -47.644  14.174  22.998  0.00  0.00     0.074 C 
BRANCH   2   3
ATOM      3  C   UNL d   1     -48.442  14.171  22.798  0.00  0.00     0.169 A 
ATOM      4  N   UNL d   1     -49.133  13.877  22.428  0.00  0.00    -0.225 NA
ATOM      5  C   UNL d   1     -49.767  14.391  22.620  0.00  0.00     0.101 A 
ATOM      6  C   UNL d   1     -49.460  14.994  23.105  0.00  0.00     0.101 A 
ATOM      7  C   UNL d   1     -50.574  14.399  22.426  0.00  0.00     0.021 A 
ATOM      8  N   UNL d   1     -48.643  14.866  23.220  0.00  0.00    -0.225 NA
ATOM      9  C   UNL d   1     -49.966  15.594  23.387  0.00  0.00     0.021 A 
ATOM     10  C   UNL d   1     -50.757  15.588  23.188  0.00  0.00     0.002 A 
ATOM     11  C   UNL d   1     -51.061  14.990  22.707  0.00  0.00     0.002 A 
ENDBRANCH   2   3
ENDBRANCH   1   2
BRANCH   1  12
ATOM     12  C   UNL d   1     -46.409  13.464  23.048  0.00  0.00     0.062 C 
BRANCH  12  13
ATOM     13  C   UNL d   1     -45.813  13.087  22.622  0.00  0.00     0.130 C 
BRANCH  13  14
ATOM     14  O   UNL d   1     -45.597  12.317  22.822  0.00  0.00    -0.305 OA
BRANCH  14  15
ATOM     15  C   UNL d   1     -44.886  12.425  22.419  0.00  0.00     0.100 A 
ATOM     16  C   UNL d   1     -44.242  11.957  22.602  0.00  0.00     0.026 A 
ATOM     17  C   UNL d   1     -43.529  12.062  22.202  0.00  0.00     0.013 A 
ATOM     18  C   UNL d   1     -43.467  12.642  21.614  0.00  0.00     0.058 A 
ATOM     19  C   UNL d   1     -44.117  13.108  21.434  0.00  0.00     0.013 A 
ATOM     20 CL   UNL d   1     -42.755  12.749  21.211  0.00  0.00    -0.082 Cl
ATOM     21  C   UNL d   1     -44.827  12.997  21.839  0.00  0.00     0.026 A 
ENDBRANCH  14  15
ENDBRANCH  13  14
ENDBRANCH  12  13
ENDBRANCH   1  12
TORSDOF 6
ENDMDL
MODEL 7
REMARK VINA RESULT:      -3.5      9.162     10.284
REMARK  6 active torsions:
REMARK  status: ('A' for Active; 'I' for Inactive)
REMARK    1  A    between atoms: C_8  and  C_3 
REMARK    2  A    between atoms: C_7  and  O_15 
REMARK    3  A    between atoms: S_9  and  C_8 
REMARK    4  A    between atoms: C_18  and  S_9 
REMARK    5  A    between atoms: O_15  and  C_19 
REMARK    6  A    between atoms: C_19  and  C_18 
ROOT
ATOM      1  S   UNL d   1     -39.413  15.494  19.725  0.00  0.00    -0.081 SA
ENDROOT
BRANCH   1   2
ATOM      2  C   UNL d   1     -40.120  15.411  19.312  0.00  0.00     0.074 C 
BRANCH   2   3
ATOM      3  C   UNL d   1     -40.113  15.374  18.491  0.00  0.00     0.169 A 
ATOM      4  N   UNL d   1     -39.781  15.215  17.739  0.00  0.00    -0.225 NA
ATOM      5  C   UNL d   1     -40.352  15.409  17.157  0.00  0.00     0.101 A 
ATOM      6  C   UNL d   1     -41.029  15.685  17.557  0.00  0.00     0.101 A 
ATOM      7  C   UNL d   1     -40.357  15.376  16.327  0.00  0.00     0.021 A 
ATOM      8  N   UNL d   1     -40.890  15.666  18.379  0.00  0.00    -0.225 NA
ATOM      9  C   UNL d   1     -41.698  15.922  17.118  0.00  0.00     0.021 A 
ATOM     10  C   UNL d   1     -41.687  15.884  16.304  0.00  0.00     0.002 A 
ATOM     11  C   UNL d   1     -41.017  15.611  15.908  0.00  0.00     0.002 A 
ENDBRANCH   2   3
ENDBRANCH   1   2
BRANCH   1  12
ATOM     12  C   UNL d   1     -39.419  15.519  20.548  0.00  0.00     0.062 C 
BRANCH  12  13
ATOM     13  C   UNL d   1     -39.000  14.956  20.979  0.00  0.00     0.130 C 
BRANCH  13  14
ATOM     14  O   UNL d   1     -38.208  15.094  21.163  0.00  0.00    -0.305 OA
BRANCH  14  15
ATOM     15  C   UNL d   1     -38.271  14.550  21.781  0.00  0.00     0.100 A 
ATOM     16  C   UNL d   1     -37.946  13.806  21.697  0.00  0.00     0.026 A 
ATOM     17  C   UNL d   1     -38.006  13.259  22.312  0.00  0.00     0.013 A 
ATOM     18  C   UNL d   1     -38.395  13.466  23.013  0.00  0.00     0.058 A 
ATOM     19  C   UNL d   1     -38.720  14.215  23.090  0.00  0.00     0.013 A 
ATOM     20 CL   UNL d   1     -38.457  12.921  23.630  0.00  0.00    -0.082 Cl
ATOM     21  C   UNL d   1     -38.655  14.756  22.471  0.00  0.00     0.026 A 
ENDBRANCH  14  15
ENDBRANCH  13  14
ENDBRANCH  12  13
ENDBRANCH   1  12
TORSDOF 6
ENDMDL
