MODEL 1
REMARK VINA RESULT:      46.2      0.000      0.000
REMARK  3 active torsions:
REMARK  status: ('A' for Active; 'I' for Inactive)
REMARK    1  A    between atoms: C_7  and  C_8 
REMARK       I    between atoms: N_10  and  C_7 
REMARK    2  A    between atoms: C_19  and  N_10 
REMARK    3  A    between atoms: C_11  and  C_19 
ROOT
ATOM      1  C   UNL d   1     -54.879-101.159 -42.879  0.00  0.00     0.039 A 
ATOM      2  C   UNL d   1     -54.922-101.214 -43.702  0.00  0.00     0.196 A 
ATOM      3  C   UNL d   1     -54.868-100.359 -42.678  0.00  0.00     0.003 A 
ATOM      4  C   UNL d   1     -54.939-100.445 -44.009  0.00  0.00     0.039 A 
ATOM      5  C   UNL d   1     -54.905 -99.920 -43.375  0.00  0.00     0.003 A 
ATOM      6  C   UNL d   1     -54.848-101.726 -42.291  0.00  0.00     0.008 A 
ATOM      7  C   UNL d   1     -54.806-101.505 -41.504  0.00  0.00     0.058 A 
ATOM      8  C   UNL d   1     -54.826-100.125 -41.883  0.00  0.00     0.000 A 
ATOM      9  O   UNL d   1     -54.946-101.910 -44.145  0.00  0.00    -0.287 OA
ATOM     10  C   UNL d   1     -54.795-100.706 -41.294  0.00  0.00     0.005 A 
ATOM     11  C   UNL d   1     -54.979-100.162 -44.778  0.00  0.00     0.003 A 
ATOM     12  C   UNL d   1     -54.912 -99.107 -43.513  0.00  0.00     0.000 A 
ATOM     13  C   UNL d   1     -54.987 -99.352 -44.918  0.00  0.00     0.000 A 
ATOM     14  C   UNL d   1     -54.953 -98.822 -44.286  0.00  0.00     0.000 A 
ENDROOT
BRANCH   7  15
ATOM     15  C   UNL d   1     -54.775-102.080 -40.911  0.00  0.00     0.279 C 
ATOM     16  N   UNL d   1     -54.791-101.855 -40.122  0.00  0.00    -0.204 NA
ATOM     17  O   UNL d   1     -54.727-102.877 -41.112  0.00  0.00    -0.265 OA
BRANCH  16  18
ATOM     18  C   UNL d   1     -54.760-102.426 -39.522  0.00  0.00     0.127 C 
BRANCH  18  19
ATOM     19  C   UNL d   1     -54.816-102.202 -38.736  0.00  0.00     0.119 A 
ATOM     20  O   UNL d   1     -54.733-101.437 -38.446  0.00  0.00    -0.304 OA
ATOM     21  C   UNL d   1     -54.831-101.459 -37.627  0.00  0.00     0.123 A 
ATOM     22  C   UNL d   1     -54.975-102.246 -37.414  0.00  0.00     0.029 A 
ATOM     23  C   UNL d   1     -54.966-102.706 -38.100  0.00  0.00     0.028 A 
ENDBRANCH  18  19
ENDBRANCH  16  18
ENDBRANCH   7  15
TORSDOF 3
ENDMDL
