MODEL 1
REMARK VINA RESULT:      -7.4      0.000      0.000
REMARK  5 active torsions:
REMARK  status: ('A' for Active; 'I' for Inactive)
REMARK    1  A    between atoms: C_3  and  N_1 
REMARK    2  A    between atoms: C_6  and  C_3 
REMARK    3  A    between atoms: C_9  and  C_3 
REMARK    4  A    between atoms: N_5  and  C_6 
REMARK    5  A    between atoms: O_18  and  C_14 
ROOT
ATOM      1  C   UNL d   1     -48.632  13.134  22.598  0.00  0.00     0.106 C 
ENDROOT
BRANCH   1   2
ATOM      2  N   UNL d   1     -49.120  13.796  22.742  0.00  0.00    -0.228 N 
ATOM      3  N   UNL d   1     -49.194  14.291  23.395  0.00  0.00    -0.165 NA
ATOM      4  C   UNL d   1     -49.775  14.853  23.205  0.00  0.00     0.103 A 
ATOM      5  C   UNL d   1     -50.047  15.470  23.681  0.00  0.00     0.022 C 
ATOM      6  C   UNL d   1     -50.043  14.686  22.437  0.00  0.00     0.040 A 
ATOM      7  C   UNL d   1     -49.646  14.047  22.160  0.00  0.00     0.085 A 
ATOM      8  C   UNL d   1     -49.760  13.704  21.401  0.00  0.00     0.021 C 
ENDBRANCH   1   2
BRANCH   1   9
ATOM      9  C   UNL d   1     -48.991  12.398  22.429  0.00  0.00     0.167 C 
BRANCH   9  10
ATOM     10  N   UNL d   1     -48.993  11.798  22.986  0.00  0.00    -0.111 N 
ATOM     11  O   UNL d   1     -48.604  11.088  22.828  0.00  0.00    -0.532 OA
ATOM     12  O   UNL d   1     -49.382  11.905  23.698  0.00  0.00    -0.532 OA
ENDBRANCH   9  10
ENDBRANCH   1   9
BRANCH   1  13
ATOM     13  C   UNL d   1     -47.802  13.215  22.624  0.00  0.00     0.019 A 
ATOM     14  C   UNL d   1     -47.390  13.265  23.346  0.00  0.00     0.004 A 
ATOM     15  C   UNL d   1     -46.579  13.343  23.323  0.00  0.00     0.024 A 
ATOM     16  C   UNL d   1     -46.187  13.370  22.588  0.00  0.00     0.094 A 
ATOM     17  C   UNL d   1     -46.595  13.322  21.905  0.00  0.00     0.024 A 
ATOM     18  C   UNL d   1     -47.414  13.242  21.908  0.00  0.00     0.004 A 
BRANCH  16  19
ATOM     19  O   UNL d   1     -45.356  13.451  22.574  0.00  0.00    -0.328 OA
ATOM     20  C   UNL d   1     -44.899  13.018  22.025  0.00  0.00     0.181 C 
ENDBRANCH  16  19
ENDBRANCH   1  13
TORSDOF 5
ENDMDL
MODEL 2
REMARK VINA RESULT:      -7.3      1.404      2.041
REMARK  5 active torsions:
REMARK  status: ('A' for Active; 'I' for Inactive)
REMARK    1  A    between atoms: C_3  and  N_1 
REMARK    2  A    between atoms: C_6  and  C_3 
REMARK    3  A    between atoms: C_9  and  C_3 
REMARK    4  A    between atoms: N_5  and  C_6 
REMARK    5  A    between atoms: O_18  and  C_14 
ROOT
ATOM      1  C   UNL d   1     -48.560  13.645  22.420  0.00  0.00     0.106 C 
ENDROOT
BRANCH   1   2
ATOM      2  N   UNL d   1     -49.107  13.043  22.610  0.00  0.00    -0.228 N 
ATOM      3  N   UNL d   1     -49.300  12.683  23.324  0.00  0.00    -0.165 NA
ATOM      4  C   UNL d   1     -49.888  12.121  23.156  0.00  0.00     0.103 A 
ATOM      5  C   UNL d   1     -50.262  11.617  23.692  0.00  0.00     0.022 C 
ATOM      6  C   UNL d   1     -50.041  12.153  22.341  0.00  0.00     0.040 A 
ATOM      7  C   UNL d   1     -49.567  12.711  22.013  0.00  0.00     0.085 A 
ATOM      8  C   UNL d   1     -49.556  12.909  21.196  0.00  0.00     0.021 C 
ENDBRANCH   1   2
BRANCH   1   9
ATOM      9  C   UNL d   1     -48.848  14.373  22.128  0.00  0.00     0.167 C 
BRANCH   9  10
ATOM     10  N   UNL d   1     -48.846  15.042  22.601  0.00  0.00    -0.111 N 
ATOM     11  O   UNL d   1     -49.261  15.043  23.313  0.00  0.00    -0.532 OA
ATOM     12  O   UNL d   1     -48.432  15.707  22.363  0.00  0.00    -0.532 OA
ENDBRANCH   9  10
ENDBRANCH   1   9
BRANCH   1  13
ATOM     13  C   UNL d   1     -47.742  13.512  22.524  0.00  0.00     0.019 A 
ATOM     14  C   UNL d   1     -47.393  13.508  23.279  0.00  0.00     0.004 A 
ATOM     15  C   UNL d   1     -46.590  13.375  23.332  0.00  0.00     0.024 A 
ATOM     16  C   UNL d   1     -46.145  13.247  22.639  0.00  0.00     0.094 A 
ATOM     17  C   UNL d   1     -46.495  13.254  21.922  0.00  0.00     0.024 A 
ATOM     18  C   UNL d   1     -47.303  13.388  21.849  0.00  0.00     0.004 A 
BRANCH  16  19
ATOM     19  O   UNL d   1     -45.324  13.111  22.703  0.00  0.00    -0.328 OA
ATOM     20  C   UNL d   1     -44.862  12.989  22.018  0.00  0.00     0.181 C 
ENDBRANCH  16  19
ENDBRANCH   1  13
TORSDOF 5
ENDMDL
MODEL 3
REMARK VINA RESULT:      -7.2      1.355      1.609
REMARK  5 active torsions:
REMARK  status: ('A' for Active; 'I' for Inactive)
REMARK    1  A    between atoms: C_3  and  N_1 
REMARK    2  A    between atoms: C_6  and  C_3 
REMARK    3  A    between atoms: C_9  and  C_3 
REMARK    4  A    between atoms: N_5  and  C_6 
REMARK    5  A    between atoms: O_18  and  C_14 
ROOT
ATOM      1  C   UNL d   1     -48.988  13.258  22.646  0.00  0.00     0.106 C 
ENDROOT
BRANCH   1   2
ATOM      2  N   UNL d   1     -49.378  13.919  22.977  0.00  0.00    -0.228 N 
ATOM      3  N   UNL d   1     -49.230  14.726  22.924  0.00  0.00    -0.165 NA
ATOM      4  C   UNL d   1     -49.813  15.105  23.378  0.00  0.00     0.103 A 
ATOM      5  C   UNL d   1     -49.900  15.917  23.498  0.00  0.00     0.022 C 
ATOM      6  C   UNL d   1     -50.304  14.518  23.698  0.00  0.00     0.040 A 
ATOM      7  C   UNL d   1     -50.039  13.801  23.454  0.00  0.00     0.085 A 
ATOM      8  C   UNL d   1     -50.389  13.066  23.661  0.00  0.00     0.021 C 
ENDBRANCH   1   2
BRANCH   1   9
ATOM      9  C   UNL d   1     -49.381  12.810  22.060  0.00  0.00     0.167 C 
BRANCH   9  10
ATOM     10  N   UNL d   1     -49.216  12.925  21.266  0.00  0.00    -0.111 N 
ATOM     11  O   UNL d   1     -49.505  13.591  20.877  0.00  0.00    -0.532 OA
ATOM     12  O   UNL d   1     -48.762  12.376  20.863  0.00  0.00    -0.532 OA
ENDBRANCH   9  10
ENDBRANCH   1   9
BRANCH   1  13
ATOM     13  C   UNL d   1     -48.219  13.057  22.902  0.00  0.00     0.019 A 
ATOM     14  C   UNL d   1     -47.574  13.570  22.790  0.00  0.00     0.004 A 
ATOM     15  C   UNL d   1     -46.841  13.332  23.056  0.00  0.00     0.024 A 
ATOM     16  C   UNL d   1     -46.756  12.591  23.427  0.00  0.00     0.094 A 
ATOM     17  C   UNL d   1     -47.384  12.110  23.526  0.00  0.00     0.024 A 
ATOM     18  C   UNL d   1     -48.132  12.333  23.265  0.00  0.00     0.004 A 
BRANCH  16  19
ATOM     19  O   UNL d   1     -46.001  12.354  23.696  0.00  0.00    -0.328 OA
ATOM     20  C   UNL d   1     -45.582  11.750  23.300  0.00  0.00     0.181 C 
ENDBRANCH  16  19
ENDBRANCH   1  13
TORSDOF 5
ENDMDL
MODEL 4
REMARK VINA RESULT:      -7.2      1.538      3.379
REMARK  5 active torsions:
REMARK  status: ('A' for Active; 'I' for Inactive)
REMARK    1  A    between atoms: C_3  and  N_1 
REMARK    2  A    between atoms: C_6  and  C_3 
REMARK    3  A    between atoms: C_9  and  C_3 
REMARK    4  A    between atoms: N_5  and  C_6 
REMARK    5  A    between atoms: O_18  and  C_14 
ROOT
ATOM      1  C   UNL d   1     -48.635  13.159  22.587  0.00  0.00     0.106 C 
ENDROOT
BRANCH   1   2
ATOM      2  N   UNL d   1     -47.808  13.116  22.696  0.00  0.00    -0.228 N 
ATOM      3  N   UNL d   1     -47.188  13.544  22.365  0.00  0.00    -0.165 NA
ATOM      4  C   UNL d   1     -46.488  13.242  22.694  0.00  0.00     0.103 A 
ATOM      5  C   UNL d   1     -45.716  13.491  22.537  0.00  0.00     0.022 C 
ATOM      6  C   UNL d   1     -46.699  12.636  23.221  0.00  0.00     0.040 A 
ATOM      7  C   UNL d   1     -47.497  12.562  23.220  0.00  0.00     0.085 A 
ATOM      8  C   UNL d   1     -47.927  12.006  23.682  0.00  0.00     0.021 C 
ENDBRANCH   1   2
BRANCH   1   9
ATOM      9  C   UNL d   1     -49.030  12.509  22.241  0.00  0.00     0.167 C 
BRANCH   9  10
ATOM     10  N   UNL d   1     -49.305  12.550  21.470  0.00  0.00    -0.111 N 
ATOM     11  O   UNL d   1     -48.778  12.686  20.851  0.00  0.00    -0.532 OA
ATOM     12  O   UNL d   1     -50.104  12.455  21.319  0.00  0.00    -0.532 OA
ENDBRANCH   9  10
ENDBRANCH   1   9
BRANCH   1  13
ATOM     13  C   UNL d   1     -49.051  13.844  22.822  0.00  0.00     0.019 A 
ATOM     14  C   UNL d   1     -49.571  13.836  23.471  0.00  0.00     0.004 A 
ATOM     15  C   UNL d   1     -49.957  14.528  23.664  0.00  0.00     0.024 A 
ATOM     16  C   UNL d   1     -49.823  15.216  23.214  0.00  0.00     0.094 A 
ATOM     17  C   UNL d   1     -49.321  15.207  22.595  0.00  0.00     0.024 A 
ATOM     18  C   UNL d   1     -48.923  14.519  22.384  0.00  0.00     0.004 A 
BRANCH  16  19
ATOM     19  O   UNL d   1     -50.222  15.921  23.420  0.00  0.00    -0.328 OA
ATOM     20  C   UNL d   1     -51.009  15.894  23.695  0.00  0.00     0.181 C 
ENDBRANCH  16  19
ENDBRANCH   1  13
TORSDOF 5
ENDMDL
MODEL 5
REMARK VINA RESULT:      -5.6      8.556     10.030
REMARK  5 active torsions:
REMARK  status: ('A' for Active; 'I' for Inactive)
REMARK    1  A    between atoms: C_3  and  N_1 
REMARK    2  A    between atoms: C_6  and  C_3 
REMARK    3  A    between atoms: C_9  and  C_3 
REMARK    4  A    between atoms: N_5  and  C_6 
REMARK    5  A    between atoms: O_18  and  C_14 
ROOT
ATOM      1  C   UNL d   1     -39.847  14.903  18.059  0.00  0.00     0.106 C 
ENDROOT
BRANCH   1   2
ATOM      2  N   UNL d   1     -39.322  14.285  17.860  0.00  0.00    -0.228 N 
ATOM      3  N   UNL d   1     -39.377  13.469  17.946  0.00  0.00    -0.165 NA
ATOM      4  C   UNL d   1     -38.674  13.149  17.642  0.00  0.00     0.103 A 
ATOM      5  C   UNL d   1     -38.466  12.351  17.604  0.00  0.00     0.022 C 
ATOM      6  C   UNL d   1     -38.205  13.780  17.376  0.00  0.00     0.040 A 
ATOM      7  C   UNL d   1     -38.599  14.466  17.509  0.00  0.00     0.085 A 
ATOM      8  C   UNL d   1     -38.307  15.230  17.317  0.00  0.00     0.021 C 
ENDBRANCH   1   2
BRANCH   1   9
ATOM      9  C   UNL d   1     -40.174  15.367  17.446  0.00  0.00     0.167 C 
BRANCH   9  10
ATOM     10  N   UNL d   1     -40.956  15.270  17.222  0.00  0.00    -0.111 N 
ATOM     11  O   UNL d   1     -41.239  14.521  17.027  0.00  0.00    -0.532 OA
ATOM     12  O   UNL d   1     -41.454  15.919  17.193  0.00  0.00    -0.532 OA
ENDBRANCH   9  10
ENDBRANCH   1   9
BRANCH   1  13
ATOM     13  C   UNL d   1     -40.036  15.047  18.859  0.00  0.00     0.019 A 
ATOM     14  C   UNL d   1     -40.496  14.514  19.302  0.00  0.00     0.004 A 
ATOM     15  C   UNL d   1     -40.656  14.696  20.081  0.00  0.00     0.024 A 
ATOM     16  C   UNL d   1     -40.360  15.402  20.410  0.00  0.00     0.094 A 
ATOM     17  C   UNL d   1     -39.920  15.903  19.972  0.00  0.00     0.024 A 
ATOM     18  C   UNL d   1     -39.749  15.736  19.185  0.00  0.00     0.004 A 
BRANCH  16  19
ATOM     19  O   UNL d   1     -40.528  15.580  21.208  0.00  0.00    -0.328 OA
ATOM     20  C   UNL d   1     -39.930  15.877  21.709  0.00  0.00     0.181 C 
ENDBRANCH  16  19
ENDBRANCH   1  13
TORSDOF 5
ENDMDL
MODEL 6
REMARK VINA RESULT:      -5.5      8.515      9.692
REMARK  5 active torsions:
REMARK  status: ('A' for Active; 'I' for Inactive)
REMARK    1  A    between atoms: C_3  and  N_1 
REMARK    2  A    between atoms: C_6  and  C_3 
REMARK    3  A    between atoms: C_9  and  C_3 
REMARK    4  A    between atoms: N_5  and  C_6 
REMARK    5  A    between atoms: O_18  and  C_14 
ROOT
ATOM      1  C   UNL d   1     -39.686  14.745  18.212  0.00  0.00     0.106 C 
ENDROOT
BRANCH   1   2
ATOM      2  N   UNL d   1     -40.154  15.112  17.626  0.00  0.00    -0.228 N 
ATOM      3  N   UNL d   1     -40.951  15.040  17.437  0.00  0.00    -0.165 NA
ATOM      4  C   UNL d   1     -41.091  15.550  16.796  0.00  0.00     0.103 A 
ATOM      5  C   UNL d   1     -41.808  15.674  16.406  0.00  0.00     0.022 C 
ATOM      6  C   UNL d   1     -40.373  15.922  16.610  0.00  0.00     0.040 A 
ATOM      7  C   UNL d   1     -39.808  15.655  17.113  0.00  0.00     0.085 A 
ATOM      8  C   UNL d   1     -39.004  15.901  17.103  0.00  0.00     0.021 C 
ENDBRANCH   1   2
BRANCH   1   9
ATOM      9  C   UNL d   1     -39.040  14.270  17.974  0.00  0.00     0.167 C 
BRANCH   9  10
ATOM     10  N   UNL d   1     -39.083  13.453  18.022  0.00  0.00    -0.111 N 
ATOM     11  O   UNL d   1     -38.505  13.035  18.435  0.00  0.00    -0.532 OA
ATOM     12  O   UNL d   1     -39.700  13.057  17.660  0.00  0.00    -0.532 OA
ENDBRANCH   9  10
ENDBRANCH   1   9
BRANCH   1  13
ATOM     13  C   UNL d   1     -39.866  14.856  19.020  0.00  0.00     0.019 A 
ATOM     14  C   UNL d   1     -40.504  14.463  19.382  0.00  0.00     0.004 A 
ATOM     15  C   UNL d   1     -40.643  14.602  20.174  0.00  0.00     0.024 A 
ATOM     16  C   UNL d   1     -40.151  15.126  20.594  0.00  0.00     0.094 A 
ATOM     17  C   UNL d   1     -39.544  15.495  20.233  0.00  0.00     0.024 A 
ATOM     18  C   UNL d   1     -39.388  15.368  19.435  0.00  0.00     0.004 A 
BRANCH  16  19
ATOM     19  O   UNL d   1     -40.301  15.263  21.405  0.00  0.00    -0.328 OA
ATOM     20  C   UNL d   1     -39.852  15.826  21.828  0.00  0.00     0.181 C 
ENDBRANCH  16  19
ENDBRANCH   1  13
TORSDOF 5
ENDMDL
