MODEL 1
REMARK VINA RESULT:      35.7      0.000      0.000
REMARK  3 active torsions:
REMARK  status: ('A' for Active; 'I' for Inactive)
REMARK    1  A    between atoms: C_7  and  C_8 
REMARK       I    between atoms: N_10  and  C_7 
REMARK    2  A    between atoms: C_19  and  N_10 
REMARK    3  A    between atoms: C_11  and  C_19 
ROOT
ATOM      1  C   UNL d   1      13.584  13.184  -3.400  0.00  0.00     0.039 A 
ATOM      2  C   UNL d   1      13.409  13.666  -4.046  0.00  0.00     0.196 A 
ATOM      3  C   UNL d   1      13.477  12.399  -3.631  0.00  0.00     0.003 A 
ATOM      4  C   UNL d   1      13.192  13.177  -4.678  0.00  0.00     0.039 A 
ATOM      5  C   UNL d   1      13.235  12.397  -4.418  0.00  0.00     0.003 A 
ATOM      6  C   UNL d   1      13.827  13.352  -2.637  0.00  0.00     0.008 A 
ATOM      7  C   UNL d   1      13.963  12.749  -2.102  0.00  0.00     0.058 A 
ATOM      8  C   UNL d   1      13.612  11.780  -3.095  0.00  0.00     0.000 A 
ATOM      9  O   UNL d   1      13.441  14.491  -4.064  0.00  0.00    -0.287 OA
ATOM     10  C   UNL d   1      13.857  11.961  -2.325  0.00  0.00     0.005 A 
ATOM     11  C   UNL d   1      12.963  13.345  -5.448  0.00  0.00     0.003 A 
ATOM     12  C   UNL d   1      13.048  11.780  -4.934  0.00  0.00     0.000 A 
ATOM     13  C   UNL d   1      12.776  12.732  -5.963  0.00  0.00     0.000 A 
ATOM     14  C   UNL d   1      12.818  11.948  -5.709  0.00  0.00     0.000 A 
ENDROOT
BRANCH   7  15
ATOM     15  C   UNL d   1      14.207  12.922  -1.331  0.00  0.00     0.279 C 
ATOM     16  N   UNL d   1      14.522  13.660  -1.157  0.00  0.00    -0.204 NA
ATOM     17  O   UNL d   1      14.135  12.354  -0.740  0.00  0.00    -0.265 OA
BRANCH  16  18
ATOM     18  C   UNL d   1      14.769  13.840  -0.388  0.00  0.00     0.127 C 
BRANCH  18  19
ATOM     19  C   UNL d   1      15.297  14.453  -0.257  0.00  0.00     0.119 A 
ATOM     20  O   UNL d   1      15.097  15.238  -0.117  0.00  0.00    -0.304 OA
ATOM     21  C   UNL d   1      15.794  15.668  -0.014  0.00  0.00     0.123 A 
ATOM     22  C   UNL d   1      16.427  15.140  -0.092  0.00  0.00     0.029 A 
ATOM     23  C   UNL d   1      16.119  14.388  -0.242  0.00  0.00     0.028 A 
ENDBRANCH  18  19
ENDBRANCH  16  18
ENDBRANCH   7  15
TORSDOF 3
ENDMDL
