MODEL 1
REMARK VINA RESULT:      15.4      0.000      0.000
REMARK  6 active torsions:
REMARK  status: ('A' for Active; 'I' for Inactive)
REMARK    1  A    between atoms: C_6  and  C_1 
REMARK    2  A    between atoms: N_8  and  C_5 
REMARK    3  A    between atoms: O_13  and  C_6 
REMARK       I    between atoms: C_7  and  N_8 
REMARK    4  A    between atoms: O_12  and  C_7 
REMARK    5  A    between atoms: C_16  and  O_12 
REMARK    6  A    between atoms: C_17  and  O_13 
ROOT
ATOM      1  C   UNL d   1      45.539 -14.241  44.564  0.00  0.00     0.083 A 
ATOM      2  N   UNL d   1      44.419 -15.049  44.938  0.00  0.00    -0.244 NA
ATOM      3  C   UNL d   1      44.765 -14.298  44.805  0.00  0.00     0.087 A 
ATOM      4  C   UNL d   1      45.996 -14.932  44.447  0.00  0.00     0.028 A 
ATOM      5  C   UNL d   1      45.662 -15.675  44.576  0.00  0.00     0.104 A 
ATOM      6  C   UNL d   1      44.876 -15.733  44.820  0.00  0.00     0.099 A 
ATOM      7  C   UNL d   1      44.308 -13.614  44.923  0.00  0.00     0.021 C 
ATOM      8  C   UNL d   1      44.530 -16.489  44.953  0.00  0.00     0.022 C 
ENDROOT
BRANCH   5   9
ATOM      9  N   UNL d   1      46.119 -16.366  44.458  0.00  0.00    -0.184 NA
ATOM     10  C   UNL d   1      46.118 -16.737  43.718  0.00  0.00     0.392 C 
ATOM     11  O   UNL d   1      45.668 -16.433  43.087  0.00  0.00    -0.236 OA
BRANCH  10  12
ATOM     12  O   UNL d   1      46.571 -17.425  43.596  0.00  0.00    -0.256 OA
BRANCH  12  13
ATOM     13  C   UNL d   1      46.217 -18.122  43.340  0.00  0.00     0.128 C 
ATOM     14  C   UNL d   1      46.642 -18.669  42.902  0.00  0.00     0.029 C 
ENDBRANCH  12  13
ENDBRANCH  10  12
ENDBRANCH   5   9
BRANCH   1  15
ATOM     15  C   UNL d   1      45.880 -13.504  44.434  0.00  0.00     0.302 C 
ATOM     16  O   UNL d   1      46.600 -13.309  44.788  0.00  0.00    -0.259 OA
BRANCH  15  17
ATOM     17  O   UNL d   1      45.497 -12.964  43.946  0.00  0.00    -0.271 OA
BRANCH  17  18
ATOM     18  C   UNL d   1      45.847 -12.745  43.234  0.00  0.00     0.126 C 
ATOM     19  C   UNL d   1      45.382 -12.413  42.642  0.00  0.00     0.029 C 
ENDBRANCH  17  18
ENDBRANCH  15  17
ENDBRANCH   1  15
TORSDOF 6
ENDMDL
MODEL 2
REMARK VINA RESULT:      16.1      3.165      4.864
REMARK  6 active torsions:
REMARK  status: ('A' for Active; 'I' for Inactive)
REMARK    1  A    between atoms: C_6  and  C_1 
REMARK    2  A    between atoms: N_8  and  C_5 
REMARK    3  A    between atoms: O_13  and  C_6 
REMARK       I    between atoms: C_7  and  N_8 
REMARK    4  A    between atoms: O_12  and  C_7 
REMARK    5  A    between atoms: C_16  and  O_12 
REMARK    6  A    between atoms: C_17  and  O_13 
ROOT
ATOM      1  C   UNL d   1      46.555 -19.078  43.530  0.00  0.00     0.083 A 
ATOM      2  N   UNL d   1      46.609 -20.317  42.819  0.00  0.00    -0.244 NA
ATOM      3  C   UNL d   1      46.578 -19.889  43.538  0.00  0.00     0.087 A 
ATOM      4  C   UNL d   1      46.561 -18.662  42.804  0.00  0.00     0.028 A 
ATOM      5  C   UNL d   1      46.591 -19.077  42.092  0.00  0.00     0.104 A 
ATOM      6  C   UNL d   1      46.615 -19.902  42.099  0.00  0.00     0.099 A 
ATOM      7  C   UNL d   1      46.572 -20.305  44.258  0.00  0.00     0.021 C 
ATOM      8  C   UNL d   1      46.646 -20.330  41.375  0.00  0.00     0.022 C 
ENDROOT
BRANCH   5   9
ATOM      9  N   UNL d   1      46.597 -18.661  41.365  0.00  0.00    -0.184 NA
ATOM     10  C   UNL d   1      45.913 -18.271  41.111  0.00  0.00     0.392 C 
ATOM     11  O   UNL d   1      45.217 -18.285  41.568  0.00  0.00    -0.236 OA
BRANCH  10  12
ATOM     12  O   UNL d   1      45.913 -17.856  40.389  0.00  0.00    -0.256 OA
BRANCH  12  13
ATOM     13  C   UNL d   1      45.222 -17.772  39.952  0.00  0.00     0.128 C 
ATOM     14  C   UNL d   1      45.231 -17.391  39.226  0.00  0.00     0.029 C 
ENDBRANCH  12  13
ENDBRANCH  10  12
ENDBRANCH   5   9
BRANCH   1  15
ATOM     15  C   UNL d   1      46.524 -18.656  44.236  0.00  0.00     0.302 C 
ATOM     16  O   UNL d   1      46.431 -19.051  44.955  0.00  0.00    -0.259 OA
BRANCH  15  17
ATOM     17  O   UNL d   1      46.588 -17.836  44.218  0.00  0.00    -0.271 OA
BRANCH  17  18
ATOM     18  C   UNL d   1      46.325 -17.397  44.862  0.00  0.00     0.126 C 
ATOM     19  C   UNL d   1      45.682 -16.891  44.768  0.00  0.00     0.029 C 
ENDBRANCH  17  18
ENDBRANCH  15  17
ENDBRANCH   1  15
TORSDOF 6
ENDMDL
