MODEL 1
REMARK VINA RESULT:      45.9      0.000      0.000
REMARK  4 active torsions:
REMARK  status: ('A' for Active; 'I' for Inactive)
REMARK    1  A    between atoms: C_4  and  C_1 
REMARK    2  A    between atoms: N_7  and  C_4 
REMARK    3  A    between atoms: C_10  and  C_4 
REMARK    4  A    between atoms: C_8  and  N_7 
ROOT
ATOM      1  C   UNL d   1      44.601 -12.972  44.014  0.00  0.00     0.085 C 
ENDROOT
BRANCH   1   2
ATOM      2  C   UNL d   1      45.294 -13.289  44.334  0.00  0.00     0.037 A 
ATOM      3  C   UNL d   1      45.902 -12.897  44.733  0.00  0.00     0.083 A 
ATOM      4  N   UNL d   1      46.453 -13.382  44.946  0.00  0.00    -0.245 NA
ATOM      5  C   UNL d   1      45.910 -12.086  44.882  0.00  0.00     0.021 C 
ATOM      6  C   UNL d   1      46.248 -14.159  44.696  0.00  0.00     0.081 A 
ATOM      7  C   UNL d   1      45.521 -14.101  44.312  0.00  0.00     0.021 A 
ATOM      8  C   UNL d   1      46.630 -14.897  44.772  0.00  0.00     0.019 A 
ATOM      9  C   UNL d   1      45.170 -14.779  44.001  0.00  0.00     0.002 A 
ATOM     10  C   UNL d   1      45.535 -15.511  44.069  0.00  0.00     0.000 A 
ATOM     11  C   UNL d   1      46.263 -15.569  44.454  0.00  0.00     0.002 A 
ENDBRANCH   1   2
BRANCH   1  12
ATOM     12  N   UNL d   1      44.650 -12.285  43.580  0.00  0.00    -0.227 NA
BRANCH  12  13
ATOM     13  C   UNL d   1      44.960 -12.283  42.832  0.00  0.00     0.162 A 
ATOM     14  N   UNL d   1      45.764 -12.369  42.709  0.00  0.00    -0.225 NA
ATOM     15  C   UNL d   1      46.075 -12.364  41.913  0.00  0.00     0.101 A 
ATOM     16  C   UNL d   1      45.553 -12.274  41.303  0.00  0.00     0.021 A 
ATOM     17  C   UNL d   1      44.754 -12.188  41.418  0.00  0.00     0.005 A 
ATOM     18  C   UNL d   1      44.444 -12.191  42.176  0.00  0.00     0.039 A 
ATOM     19  C   UNL d   1      44.256 -12.098  40.762  0.00  0.00     0.000 C 
ENDBRANCH  12  13
ENDBRANCH   1  12
BRANCH   1  20
ATOM     20  C   UNL d   1      43.871 -13.347  44.134  0.00  0.00     0.021 A 
ATOM     21  C   UNL d   1      43.762 -13.762  44.835  0.00  0.00     0.022 A 
ATOM     22  C   UNL d   1      43.032 -14.136  44.955  0.00  0.00     0.099 A 
ATOM     23  N   UNL d   1      42.440 -14.086  44.375  0.00  0.00    -0.242 NA
ATOM     24  C   UNL d   1      42.573 -13.668  43.688  0.00  0.00     0.099 A 
ATOM     25  C   UNL d   1      43.279 -13.296  43.554  0.00  0.00     0.022 A 
ENDBRANCH   1  20
TORSDOF 4
ENDMDL
MODEL 2
REMARK VINA RESULT:      47.6      1.205      2.275
REMARK  4 active torsions:
REMARK  status: ('A' for Active; 'I' for Inactive)
REMARK    1  A    between atoms: C_4  and  C_1 
REMARK    2  A    between atoms: N_7  and  C_4 
REMARK    3  A    between atoms: C_10  and  C_4 
REMARK    4  A    between atoms: C_8  and  N_7 
ROOT
ATOM      1  C   UNL d   1      45.595 -14.129  43.600  0.00  0.00     0.085 C 
ENDROOT
BRANCH   1   2
ATOM      2  C   UNL d   1      45.389 -14.840  43.968  0.00  0.00     0.037 A 
ATOM      3  C   UNL d   1      44.836 -14.968  44.567  0.00  0.00     0.083 A 
ATOM      4  N   UNL d   1      44.802 -15.706  44.764  0.00  0.00    -0.245 NA
ATOM      5  C   UNL d   1      44.378 -14.372  44.908  0.00  0.00     0.021 C 
ATOM      6  C   UNL d   1      45.350 -16.141  44.295  0.00  0.00     0.081 A 
ATOM      7  C   UNL d   1      45.718 -15.597  43.795  0.00  0.00     0.021 A 
ATOM      8  C   UNL d   1      45.551 -16.949  44.264  0.00  0.00     0.019 A 
ATOM      9  C   UNL d   1      46.290 -15.859  43.262  0.00  0.00     0.002 A 
ATOM     10  C   UNL d   1      46.497 -16.652  43.223  0.00  0.00     0.000 A 
ATOM     11  C   UNL d   1      46.129 -17.195  43.722  0.00  0.00     0.002 A 
ENDBRANCH   1   2
BRANCH   1  12
ATOM     12  N   UNL d   1      45.650 -14.113  42.788  0.00  0.00    -0.227 NA
BRANCH  12  13
ATOM     13  C   UNL d   1      45.298 -13.525  42.355  0.00  0.00     0.162 A 
ATOM     14  N   UNL d   1      44.615 -13.160  42.617  0.00  0.00    -0.225 NA
ATOM     15  C   UNL d   1      44.257 -12.543  42.148  0.00  0.00     0.101 A 
ATOM     16  C   UNL d   1      44.613 -12.339  41.452  0.00  0.00     0.021 A 
ATOM     17  C   UNL d   1      45.292 -12.697  41.186  0.00  0.00     0.005 A 
ATOM     18  C   UNL d   1      45.645 -13.291  41.626  0.00  0.00     0.039 A 
ATOM     19  C   UNL d   1      45.623 -12.456  40.466  0.00  0.00     0.000 C 
ENDBRANCH  12  13
ENDBRANCH   1  12
BRANCH   1  20
ATOM     20  C   UNL d   1      45.741 -13.448  44.048  0.00  0.00     0.021 A 
ATOM     21  C   UNL d   1      45.135 -12.897  44.119  0.00  0.00     0.022 A 
ATOM     22  C   UNL d   1      45.281 -12.215  44.568  0.00  0.00     0.099 A 
ATOM     23  N   UNL d   1      46.021 -12.106  44.928  0.00  0.00    -0.242 NA
ATOM     24  C   UNL d   1      46.606 -12.668  44.842  0.00  0.00     0.099 A 
ATOM     25  C   UNL d   1      46.481 -13.339  44.408  0.00  0.00     0.022 A 
ENDBRANCH   1  20
TORSDOF 4
ENDMDL
