MODEL 1
REMARK VINA RESULT:      19.2      0.000      0.000
REMARK  4 active torsions:
REMARK  status: ('A' for Active; 'I' for Inactive)
REMARK       I    between atoms: C_7  and  N_9 
REMARK    1  A    between atoms: C_15  and  C_7 
REMARK    2  A    between atoms: N_9  and  C_12 
REMARK    3  A    between atoms: C_16  and  C_15 
REMARK    4  A    between atoms: C_17  and  C_16 
ROOT
ATOM      1  N   UNL d   1      46.634 -18.873  40.383  0.00  0.00    -0.169 NA
ATOM      2  C   UNL d   1      46.625 -18.416  41.065  0.00  0.00     0.282 A 
ATOM      3  C   UNL d   1      46.638 -19.661  40.604  0.00  0.00     0.282 A 
ATOM      4  C   UNL d   1      46.624 -18.930  41.715  0.00  0.00     0.064 A 
ATOM      5  C   UNL d   1      46.631 -19.694  41.423  0.00  0.00     0.063 A 
ATOM      6  C   UNL d   1      46.632 -20.330  41.949  0.00  0.00     0.006 A 
ATOM      7  C   UNL d   1      46.617 -18.785  42.527  0.00  0.00     0.024 A 
ATOM      8  O   UNL d   1      46.620 -17.594  41.079  0.00  0.00    -0.265 OA
ATOM      9  O   UNL d   1      46.646 -20.311  40.099  0.00  0.00    -0.265 OA
ATOM     10  C   UNL d   1      46.617 -19.417  43.048  0.00  0.00     0.085 A 
ATOM     11  C   UNL d   1      46.625 -20.195  42.762  0.00  0.00     0.019 A 
ENDROOT
BRANCH  10  12
ATOM     12  N   UNL d   1      46.610 -19.273  43.860  0.00  0.00    -0.208 NA
ATOM     13  C   UNL d   1      46.364 -18.543  44.143  0.00  0.00     0.279 C 
ATOM     14  O   UNL d   1      46.358 -18.403  44.952  0.00  0.00    -0.265 OA
BRANCH  13  15
ATOM     15  C   UNL d   1      46.126 -17.958  43.628  0.00  0.00     0.062 C 
BRANCH  15  16
ATOM     16  C   UNL d   1      45.665 -17.334  43.911  0.00  0.00     0.005 C 
BRANCH  16  17
ATOM     17  C   UNL d   1      46.008 -16.591  44.031  0.00  0.00     0.000 C 
ATOM     18  C   UNL d   1      45.533 -15.917  44.072  0.00  0.00     0.000 C 
ENDBRANCH  16  17
ENDBRANCH  15  16
ENDBRANCH  13  15
ENDBRANCH  10  12
TORSDOF 4
ENDMDL
MODEL 2
REMARK VINA RESULT:      21.7      6.956      7.633
REMARK  4 active torsions:
REMARK  status: ('A' for Active; 'I' for Inactive)
REMARK       I    between atoms: C_7  and  N_9 
REMARK    1  A    between atoms: C_15  and  C_7 
REMARK    2  A    between atoms: N_9  and  C_12 
REMARK    3  A    between atoms: C_16  and  C_15 
REMARK    4  A    between atoms: C_17  and  C_16 
ROOT
ATOM      1  N   UNL d   1      46.432 -14.540  36.991  0.00  0.00    -0.169 NA
ATOM      2  C   UNL d   1      46.166 -15.254  36.683  0.00  0.00     0.282 A 
ATOM      3  C   UNL d   1      45.787 -14.136  37.290  0.00  0.00     0.282 A 
ATOM      4  C   UNL d   1      45.346 -15.289  36.796  0.00  0.00     0.064 A 
ATOM      5  C   UNL d   1      45.120 -14.598  37.170  0.00  0.00     0.063 A 
ATOM      6  C   UNL d   1      44.325 -14.477  37.354  0.00  0.00     0.006 A 
ATOM      7  C   UNL d   1      44.791 -15.868  36.600  0.00  0.00     0.024 A 
ATOM      8  O   UNL d   1      46.646 -15.820  36.331  0.00  0.00    -0.265 OA
ATOM      9  O   UNL d   1      45.797 -13.396  37.651  0.00  0.00    -0.265 OA
ATOM     10  C   UNL d   1      44.002 -15.746  36.784  0.00  0.00     0.085 A 
ATOM     11  C   UNL d   1      43.764 -15.049  37.163  0.00  0.00     0.019 A 
ENDROOT
BRANCH  10  12
ATOM     12  N   UNL d   1      43.447 -16.325  36.589  0.00  0.00    -0.208 NA
ATOM     13  C   UNL d   1      42.654 -16.126  36.528  0.00  0.00     0.279 C 
ATOM     14  O   UNL d   1      42.105 -16.705  36.333  0.00  0.00    -0.265 OA
BRANCH  13  15
ATOM     15  C   UNL d   1      42.407 -15.361  36.659  0.00  0.00     0.062 C 
BRANCH  15  16
ATOM     16  C   UNL d   1      41.614 -15.217  36.839  0.00  0.00     0.005 C 
BRANCH  16  17
ATOM     17  C   UNL d   1      41.189 -14.655  36.406  0.00  0.00     0.000 C 
ATOM     18  C   UNL d   1      41.177 -13.867  36.649  0.00  0.00     0.000 C 
ENDBRANCH  16  17
ENDBRANCH  15  16
ENDBRANCH  13  15
ENDBRANCH  10  12
TORSDOF 4
ENDMDL
