MODEL 1
REMARK VINA RESULT:      48.1      0.000      0.000
REMARK  5 active torsions:
REMARK  status: ('A' for Active; 'I' for Inactive)
REMARK    1  A    between atoms: C_14  and  C_4 
REMARK    2  A    between atoms: S_11  and  C_5 
REMARK    3  A    between atoms: C_10  and  C_12 
REMARK    4  A    between atoms: C_15  and  S_11 
REMARK    5  A    between atoms: C_12  and  C_15 
ROOT
ATOM      1  N   UNL d   1      45.862 -15.664  44.135  0.00  0.00    -0.206 N 
ATOM      2  C   UNL d   1      45.459 -15.005  43.834  0.00  0.00     0.166 A 
ATOM      3  N   UNL d   1      46.635 -14.812  44.953  0.00  0.00    -0.163 NA
ATOM      4  C   UNL d   1      45.641 -14.255  44.089  0.00  0.00     0.055 A 
ATOM      5  C   UNL d   1      45.663 -16.403  43.866  0.00  0.00     0.116 A 
ATOM      6  C   UNL d   1      46.239 -14.164  44.657  0.00  0.00     0.104 A 
ATOM      7  N   UNL d   1      44.867 -15.102  43.272  0.00  0.00    -0.227 NA
ATOM      8  C   UNL d   1      45.076 -16.519  43.306  0.00  0.00     0.045 A 
ATOM      9  C   UNL d   1      44.675 -15.863  43.007  0.00  0.00     0.085 A 
ATOM     10  C   UNL d   1      46.419 -13.415  44.910  0.00  0.00     0.023 C 
ATOM     11  C   UNL d   1      44.060 -15.963  42.421  0.00  0.00     0.021 C 
ENDROOT
BRANCH   5  12
ATOM     12  S   UNL d   1      46.080 -17.083  44.177  0.00  0.00    -0.064 SA
BRANCH  12  13
ATOM     13  C   UNL d   1      46.357 -17.878  44.277  0.00  0.00     0.079 C 
BRANCH  13  14
ATOM     14  C   UNL d   1      45.902 -18.525  43.989  0.00  0.00     0.208 C 
ATOM     15  O   UNL d   1      45.182 -18.742  44.373  0.00  0.00    -0.285 OA
BRANCH  14  16
ATOM     16  C   UNL d   1      46.164 -18.964  43.311  0.00  0.00     0.069 A 
ATOM     17  S   UNL d   1      46.442 -19.769  43.325  0.00  0.00    -0.083 SA
ATOM     18  C   UNL d   1      46.644 -19.980  42.529  0.00  0.00     0.035 A 
ATOM     19  C   UNL d   1      46.494 -19.317  42.029  0.00  0.00     0.008 A 
ATOM     20  C   UNL d   1      46.195 -18.686  42.521  0.00  0.00     0.010 A 
ENDBRANCH  14  16
ENDBRANCH  13  14
ENDBRANCH  12  13
ENDBRANCH   5  12
BRANCH   4  21
ATOM     21  C   UNL d   1      45.244 -13.607  43.793  0.00  0.00     0.004 A 
ATOM     22  C   UNL d   1      44.720 -13.204  44.258  0.00  0.00     0.000 A 
ATOM     23  C   UNL d   1      44.323 -12.564  43.977  0.00  0.00     0.000 A 
ATOM     24  C   UNL d   1      44.450 -12.309  43.200  0.00  0.00     0.000 A 
ATOM     25  C   UNL d   1      44.977 -12.715  42.735  0.00  0.00     0.000 A 
ATOM     26  C   UNL d   1      45.374 -13.364  43.032  0.00  0.00     0.000 A 
ENDBRANCH   4  21
TORSDOF 5
ENDMDL
