MODEL 1
REMARK VINA RESULT:      -4.3      0.000      0.000
REMARK  5 active torsions:
REMARK  status: ('A' for Active; 'I' for Inactive)
REMARK       I    between atoms: C_6  and  N_1 
REMARK    1  A    between atoms: C_7  and  C_3 
REMARK    2  A    between atoms: C_8  and  C_4 
REMARK    3  A    between atoms: C_11  and  C_6 
REMARK    4  A    between atoms: C_9  and  C_17 
REMARK    5  A    between atoms: C_17  and  C_11 
ROOT
ATOM      1  N   UNL d   1      58.232  -1.221  29.924  0.00  0.00    -0.195 N 
ATOM      2  N   UNL d   1      57.607  -1.432  30.403  0.00  0.00    -0.163 NA
ATOM      3  C   UNL d   1      57.511  -0.816  30.900  0.00  0.00     0.103 A 
ATOM      4  C   UNL d   1      58.505  -0.507  30.120  0.00  0.00     0.088 A 
ATOM      5  C   UNL d   1      58.082  -0.227  30.720  0.00  0.00     0.040 A 
ATOM      6  C   UNL d   1      58.530  -1.697  29.320  0.00  0.00     0.281 C 
ATOM      7  O   UNL d   1      59.167  -1.436  28.861  0.00  0.00    -0.265 OA
ENDROOT
BRANCH   4   8
ATOM      8  C   UNL d   1      59.155  -0.196  29.681  0.00  0.00     0.018 A 
ATOM      9  C   UNL d   1      59.921  -0.346  29.969  0.00  0.00     0.002 A 
ATOM     10  C   UNL d   1      60.534  -0.040  29.537  0.00  0.00     0.007 A 
ATOM     11  C   UNL d   1      60.439   0.386  28.868  0.00  0.00     0.035 A 
ATOM     12  C   UNL d   1      59.666   0.530  28.589  0.00  0.00     0.007 A 
ATOM     13 BR   UNL d   1      61.129   0.681  28.456  0.00  0.00    -0.049 Br
ATOM     14  C   UNL d   1      59.016   0.219  29.027  0.00  0.00     0.002 A 
ENDBRANCH   4   8
BRANCH   6  15
ATOM     15  C   UNL d   1      58.168  -2.465  29.177  0.00  0.00     0.069 C 
BRANCH  15  16
ATOM     16  C   UNL d   1      58.487  -2.957  28.585  0.00  0.00     0.075 C 
BRANCH  16  17
ATOM     17  C   UNL d   1      58.349  -3.766  28.596  0.00  0.00     0.211 C 
ATOM     18  O   UNL d   1      58.991  -4.291  28.687  0.00  0.00    -0.644 OA
ATOM     19  O   UNL d   1      57.583  -4.061  28.518  0.00  0.00    -0.644 OA
ENDBRANCH  16  17
ENDBRANCH  15  16
ENDBRANCH   6  15
BRANCH   3  20
ATOM     20  C   UNL d   1      56.971  -0.686  31.518  0.00  0.00     0.019 A 
ATOM     21  C   UNL d   1      56.684  -1.312  31.956  0.00  0.00     0.002 A 
ATOM     22  C   UNL d   1      56.148  -1.180  32.568  0.00  0.00     0.007 A 
ATOM     23  C   UNL d   1      55.902  -0.411  32.737  0.00  0.00     0.035 A 
ATOM     24  C   UNL d   1      56.189   0.233  32.296  0.00  0.00     0.007 A 
ATOM     25 BR   UNL d   1      55.328  -0.241  33.388  0.00  0.00    -0.049 Br
ATOM     26  C   UNL d   1      56.724   0.084  31.687  0.00  0.00     0.002 A 
ENDBRANCH   3  20
TORSDOF 5
ENDMDL
