MODEL 1
REMARK VINA RESULT:       7.2      0.000      0.000
REMARK  1 active torsions:
REMARK  status: ('A' for Active; 'I' for Inactive)
REMARK    1  A    between atoms: C_2  and  N_1 
ROOT
ATOM      1  C   UNL d   1     -51.082  26.012  33.347  0.00  0.00     0.127 A 
ATOM      2  C   UNL d   1     -50.783  25.239  33.333  0.00  0.00     0.025 A 
ATOM      3  C   UNL d   1     -51.296  24.598  33.329  0.00  0.00     0.021 A 
ATOM      4  N   UNL d   1     -51.510  23.188  33.310  0.00  0.00    -0.242 NA
ATOM      5  C   UNL d   1     -52.110  24.721  33.339  0.00  0.00     0.003 A 
ATOM      6  C   UNL d   1     -51.902  26.127  33.357  0.00  0.00     0.024 A 
ATOM      7  C   UNL d   1     -52.415  25.487  33.353  0.00  0.00     0.002 A 
ATOM      8  C   UNL d   1     -50.997  23.830  33.314  0.00  0.00     0.099 A 
ATOM      9  C   UNL d   1     -52.324  23.312  33.320  0.00  0.00     0.099 A 
ATOM     10  C   UNL d   1     -52.636  24.078  33.334  0.00  0.00     0.021 A 
ENDROOT
BRANCH   1  11
ATOM     11  N   UNL d   1     -50.568  26.657  33.352  0.00  0.00    -0.114 N 
ATOM     12  O   UNL d   1     -50.870  27.422  33.316  0.00  0.00    -0.532 OA
ATOM     13  O   UNL d   1     -49.749  26.540  33.392  0.00  0.00    -0.532 OA
ENDBRANCH   1  11
TORSDOF 1
ENDMDL
MODEL 2
REMARK VINA RESULT:       9.1      1.946      2.663
REMARK  1 active torsions:
REMARK  status: ('A' for Active; 'I' for Inactive)
REMARK    1  A    between atoms: C_2  and  N_1 
ROOT
ATOM      1  C   UNL d   1     -52.511  24.646  33.361  0.00  0.00     0.127 A 
ATOM      2  C   UNL d   1     -51.724  24.388  33.364  0.00  0.00     0.025 A 
ATOM      3  C   UNL d   1     -51.111  24.934  33.352  0.00  0.00     0.021 A 
ATOM      4  N   UNL d   1     -49.714  25.222  33.343  0.00  0.00    -0.242 NA
ATOM      5  C   UNL d   1     -51.277  25.740  33.336  0.00  0.00     0.003 A 
ATOM      6  C   UNL d   1     -52.670  25.458  33.345  0.00  0.00     0.024 A 
ATOM      7  C   UNL d   1     -52.057  26.004  33.333  0.00  0.00     0.002 A 
ATOM      8  C   UNL d   1     -50.327  24.676  33.355  0.00  0.00     0.099 A 
ATOM      9  C   UNL d   1     -49.880  26.028  33.327  0.00  0.00     0.099 A 
ATOM     10  C   UNL d   1     -50.662  26.299  33.324  0.00  0.00     0.021 A 
ENDROOT
BRANCH   1  11
ATOM     11  N   UNL d   1     -53.129  24.099  33.373  0.00  0.00    -0.114 N 
ATOM     12  O   UNL d   1     -53.907  24.358  33.307  0.00  0.00    -0.532 OA
ATOM     13  O   UNL d   1     -52.970  23.290  33.451  0.00  0.00    -0.532 OA
ENDBRANCH   1  11
TORSDOF 1
ENDMDL
