MODEL 1
REMARK VINA RESULT:      -2.4      0.000      0.000
REMARK  7 active torsions:
REMARK  status: ('A' for Active; 'I' for Inactive)
REMARK    1  A    between atoms: C_2  and  C_1 
REMARK    2  A    between atoms: O_13  and  C_11 
REMARK    3  A    between atoms: C_18  and  O_13 
REMARK    4  A    between atoms: C_15  and  C_18 
REMARK       I    between atoms: N_21  and  C_15 
REMARK    5  A    between atoms: C_23  and  C_16 
REMARK    6  A    between atoms: C_26  and  N_21 
REMARK    7  A    between atoms: C_27  and  C_26 
ROOT
ATOM      1  C   UNL d   1      33.016  20.701 -21.293  0.00  0.00     0.087 A 
ATOM      2  C   UNL d   1      32.976  20.806 -22.111  0.00  0.00     0.201 A 
ATOM      3  C   UNL d   1      33.043  20.141 -22.612  0.00  0.00     0.062 A 
ATOM      4  C   UNL d   1      33.119  19.953 -20.973  0.00  0.00     0.128 A 
ATOM      5  C   UNL d   1      33.146  19.393 -22.292  0.00  0.00     0.105 A 
ATOM      6  O   UNL d   1      33.187  19.283 -21.460  0.00  0.00    -0.305 OA
ATOM      7  C   UNL d   1      33.003  20.246 -23.429  0.00  0.00     0.007 A 
ATOM      8  C   UNL d   1      33.173  18.837 -23.599  0.00  0.00     0.102 A 
ATOM      9  C   UNL d   1      33.214  18.723 -22.777  0.00  0.00     0.050 A 
ATOM     10  C   UNL d   1      33.069  19.586 -23.920  0.00  0.00     0.023 A 
ATOM     11  O   UNL d   1      32.872  21.555 -22.431  0.00  0.00    -0.286 OA
ENDROOT
BRANCH   8  12
ATOM     12  O   UNL d   1      33.241  18.165 -24.092  0.00  0.00    -0.302 OA
BRANCH  12  13
ATOM     13  C   UNL d   1      33.009  17.436 -23.815  0.00  0.00     0.158 C 
ATOM     14  C   UNL d   1      33.220  17.179 -23.057  0.00  0.00     0.032 C 
BRANCH  13  15
ATOM     15  C   UNL d   1      32.548  16.928 -24.301  0.00  0.00     0.302 C 
ATOM     16  O   UNL d   1      32.924  16.382 -24.783  0.00  0.00    -0.263 OA
ATOM     17  N   UNL d   1      31.741  16.998 -24.276  0.00  0.00    -0.201 NA
BRANCH  17  18
ATOM     18  C   UNL d   1      31.279  16.556 -24.702  0.00  0.00     0.148 C 
BRANCH  18  19
ATOM     19  C   UNL d   1      30.412  16.875 -24.895  0.00  0.00     0.255 C 
ATOM     20  O   UNL d   1      29.735  16.441 -24.724  0.00  0.00    -0.281 OA
ENDBRANCH  18  19
ENDBRANCH  17  18
ENDBRANCH  13  15
ENDBRANCH  12  13
ENDBRANCH   8  12
BRANCH  10  21
ATOM     21  C   UNL d   1      33.037  19.650 -24.666  0.00  0.00     0.002 C 
ATOM     22  C   UNL d   1      33.241  20.292 -25.007  0.00  0.00     0.000 C 
ENDBRANCH  10  21
BRANCH   1  23
ATOM     23  C   UNL d   1      32.949  21.364 -20.798  0.00  0.00     0.116 A 
ATOM     24  N   UNL d   1      32.711  22.131 -20.922  0.00  0.00    -0.238 NA
ATOM     25  C   UNL d   1      32.763  22.543 -20.209  0.00  0.00     0.088 A 
ATOM     26  C   UNL d   1      32.577  23.351 -20.059  0.00  0.00     0.021 C 
ATOM     27  C   UNL d   1      33.025  22.050 -19.658  0.00  0.00     0.056 A 
ATOM     28  S   UNL d   1      33.153  21.292 -20.001  0.00  0.00    -0.066 SA
ENDBRANCH   1  23
TORSDOF 7
ENDMDL
MODEL 2
REMARK VINA RESULT:      -1.3      1.419      2.151
REMARK  7 active torsions:
REMARK  status: ('A' for Active; 'I' for Inactive)
REMARK    1  A    between atoms: C_2  and  C_1 
REMARK    2  A    between atoms: O_13  and  C_11 
REMARK    3  A    between atoms: C_18  and  O_13 
REMARK    4  A    between atoms: C_15  and  C_18 
REMARK       I    between atoms: N_21  and  C_15 
REMARK    5  A    between atoms: C_23  and  C_16 
REMARK    6  A    between atoms: C_26  and  N_21 
REMARK    7  A    between atoms: C_27  and  C_26 
ROOT
ATOM      1  C   UNL d   1      33.134  21.919 -19.721  0.00  0.00     0.087 A 
ATOM      2  C   UNL d   1      33.104  22.194 -20.499  0.00  0.00     0.201 A 
ATOM      3  C   UNL d   1      33.138  21.647 -21.128  0.00  0.00     0.062 A 
ATOM      4  C   UNL d   1      33.195  21.116 -19.566  0.00  0.00     0.128 A 
ATOM      5  C   UNL d   1      33.200  20.843 -20.972  0.00  0.00     0.105 A 
ATOM      6  O   UNL d   1      33.230  20.560 -20.182  0.00  0.00    -0.305 OA
ATOM      7  C   UNL d   1      33.109  21.922 -21.905  0.00  0.00     0.007 A 
ATOM      8  C   UNL d   1      33.205  20.573 -22.368  0.00  0.00     0.102 A 
ATOM      9  C   UNL d   1      33.235  20.287 -21.588  0.00  0.00     0.050 A 
ATOM     10  C   UNL d   1      33.143  21.377 -22.523  0.00  0.00     0.023 A 
ATOM     11  O   UNL d   1      33.043  22.998 -20.655  0.00  0.00    -0.286 OA
ENDROOT
BRANCH   8  12
ATOM     12  O   UNL d   1      33.240  20.016 -22.990  0.00  0.00    -0.302 OA
BRANCH  12  13
ATOM     13  C   UNL d   1      33.149  19.224 -22.829  0.00  0.00     0.158 C 
ATOM     14  C   UNL d   1      33.238  18.930 -22.061  0.00  0.00     0.032 C 
BRANCH  13  15
ATOM     15  C   UNL d   1      32.962  18.688 -23.449  0.00  0.00     0.302 C 
ATOM     16  O   UNL d   1      33.218  18.849 -24.211  0.00  0.00    -0.263 OA
ATOM     17  N   UNL d   1      32.532  18.025 -23.269  0.00  0.00    -0.201 NA
BRANCH  17  18
ATOM     18  C   UNL d   1      32.337  17.507 -23.803  0.00  0.00     0.148 C 
BRANCH  18  19
ATOM     19  C   UNL d   1      31.702  16.849 -23.572  0.00  0.00     0.255 C 
ATOM     20  O   UNL d   1      31.401  16.315 -24.121  0.00  0.00    -0.281 OA
ENDBRANCH  18  19
ENDBRANCH  17  18
ENDBRANCH  13  15
ENDBRANCH  12  13
ENDBRANCH   8  12
BRANCH  10  21
ATOM     21  C   UNL d   1      33.119  21.597 -23.239  0.00  0.00     0.002 C 
ATOM     22  C   UNL d   1      33.006  22.323 -23.416  0.00  0.00     0.000 C 
ENDBRANCH  10  21
BRANCH   1  23
ATOM     23  C   UNL d   1      33.100  22.466 -19.098  0.00  0.00     0.116 A 
ATOM     24  N   UNL d   1      33.241  22.409 -18.299  0.00  0.00    -0.238 NA
ATOM     25  C   UNL d   1      33.115  23.149 -17.955  0.00  0.00     0.088 A 
ATOM     26  C   UNL d   1      33.191  23.367 -17.145  0.00  0.00     0.021 C 
ATOM     27  C   UNL d   1      32.902  23.650 -18.519  0.00  0.00     0.056 A 
ATOM     28  S   UNL d   1      32.883  23.246 -19.258  0.00  0.00    -0.066 SA
ENDBRANCH   1  23
TORSDOF 7
ENDMDL
MODEL 3
REMARK VINA RESULT:       0.1      1.870      5.318
REMARK  7 active torsions:
REMARK  status: ('A' for Active; 'I' for Inactive)
REMARK    1  A    between atoms: C_2  and  C_1 
REMARK    2  A    between atoms: O_13  and  C_11 
REMARK    3  A    between atoms: C_18  and  O_13 
REMARK    4  A    between atoms: C_15  and  C_18 
REMARK       I    between atoms: N_21  and  C_15 
REMARK    5  A    between atoms: C_23  and  C_16 
REMARK    6  A    between atoms: C_26  and  N_21 
REMARK    7  A    between atoms: C_27  and  C_26 
ROOT
ATOM      1  C   UNL d   1      32.109  18.097 -24.013  0.00  0.00     0.087 A 
ATOM      2  C   UNL d   1      32.281  18.365 -23.251  0.00  0.00     0.201 A 
ATOM      3  C   UNL d   1      32.506  19.161 -23.139  0.00  0.00     0.062 A 
ATOM      4  C   UNL d   1      32.158  18.606 -24.655  0.00  0.00     0.128 A 
ATOM      5  C   UNL d   1      32.555  19.670 -23.780  0.00  0.00     0.105 A 
ATOM      6  O   UNL d   1      32.380  19.401 -24.557  0.00  0.00    -0.305 OA
ATOM      7  C   UNL d   1      32.677  19.428 -22.378  0.00  0.00     0.007 A 
ATOM      8  C   UNL d   1      32.948  20.725 -22.913  0.00  0.00     0.102 A 
ATOM      9  C   UNL d   1      32.777  20.464 -23.683  0.00  0.00     0.050 A 
ATOM     10  C   UNL d   1      32.899  20.216 -22.271  0.00  0.00     0.023 A 
ATOM     11  O   UNL d   1      32.231  17.855 -22.610  0.00  0.00    -0.286 OA
ENDROOT
BRANCH   8  12
ATOM     12  O   UNL d   1      33.172  21.524 -22.812  0.00  0.00    -0.302 OA
BRANCH  12  13
ATOM     13  C   UNL d   1      32.992  22.071 -23.387  0.00  0.00     0.158 C 
ATOM     14  C   UNL d   1      33.086  21.895 -24.190  0.00  0.00     0.032 C 
BRANCH  13  15
ATOM     15  C   UNL d   1      32.705  22.830 -23.169  0.00  0.00     0.302 C 
ATOM     16  O   UNL d   1      32.513  23.371 -23.755  0.00  0.00    -0.263 OA
ATOM     17  N   UNL d   1      32.628  23.002 -22.380  0.00  0.00    -0.201 NA
BRANCH  17  18
ATOM     18  C   UNL d   1      32.370  23.683 -22.134  0.00  0.00     0.148 C 
BRANCH  18  19
ATOM     19  C   UNL d   1      31.753  23.693 -21.421  0.00  0.00     0.255 C 
ATOM     20  O   UNL d   1      31.948  23.433 -20.666  0.00  0.00    -0.281 OA
ENDBRANCH  18  19
ENDBRANCH  17  18
ENDBRANCH  13  15
ENDBRANCH  12  13
ENDBRANCH   8  12
BRANCH  10  21
ATOM     21  C   UNL d   1      33.061  20.487 -21.592  0.00  0.00     0.002 C 
ATOM     22  C   UNL d   1      33.029  20.043 -20.981  0.00  0.00     0.000 C 
ENDBRANCH  10  21
BRANCH   1  23
ATOM     23  C   UNL d   1      31.885  17.306 -24.122  0.00  0.00     0.116 A 
ATOM     24  N   UNL d   1      31.230  16.876 -23.904  0.00  0.00    -0.238 NA
ATOM     25  C   UNL d   1      31.320  16.101 -24.172  0.00  0.00     0.088 A 
ATOM     26  C   UNL d   1      30.790  15.453 -24.081  0.00  0.00     0.021 C 
ATOM     27  C   UNL d   1      32.008  16.048 -24.544  0.00  0.00     0.056 A 
ATOM     28  S   UNL d   1      32.392  16.798 -24.530  0.00  0.00    -0.066 SA
ENDBRANCH   1  23
TORSDOF 7
ENDMDL
