MODEL 1
REMARK VINA RESULT:       0.7      0.000      0.000
REMARK  2 active torsions:
REMARK  status: ('A' for Active; 'I' for Inactive)
REMARK    1  A    between atoms: N_9  and  C_3 
REMARK    2  A    between atoms: C_13  and  C_5 
ROOT
ATOM      1  N   UNL d   1      58.715  -0.061  31.090  0.00  0.00    -0.196 N 
ATOM      2  C   UNL d   1      57.950  -0.312  31.342  0.00  0.00     0.167 A 
ATOM      3  C   UNL d   1      59.010  -0.316  30.356  0.00  0.00     0.153 A 
ATOM      4  N   UNL d   1      58.868   0.682  32.298  0.00  0.00    -0.163 NA
ATOM      5  C   UNL d   1      57.661  -0.064  32.058  0.00  0.00     0.055 A 
ATOM      6  N   UNL d   1      57.508  -0.808  30.850  0.00  0.00    -0.227 NA
ATOM      7  C   UNL d   1      58.561  -0.805  29.883  0.00  0.00     0.052 A 
ATOM      8  C   UNL d   1      58.115   0.435  32.545  0.00  0.00     0.104 A 
ATOM      9  C   UNL d   1      57.795  -1.060  30.127  0.00  0.00     0.086 A 
ATOM     10  C   UNL d   1      58.697  -1.138  29.152  0.00  0.00     0.005 A 
ATOM     11  C   UNL d   1      57.815   0.681  33.269  0.00  0.00     0.023 C 
ATOM     12  C   UNL d   1      57.480  -1.543  29.541  0.00  0.00     0.019 A 
ATOM     13  C   UNL d   1      58.048  -1.590  28.931  0.00  0.00     0.002 A 
ENDROOT
BRANCH   5  14
ATOM     14  C   UNL d   1      56.913  -0.310  32.304  0.00  0.00     0.004 A 
ATOM     15  C   UNL d   1      56.284   0.219  32.311  0.00  0.00     0.000 A 
ATOM     16  C   UNL d   1      55.528  -0.028  32.560  0.00  0.00     0.000 A 
ATOM     17  C   UNL d   1      55.415  -0.800  32.796  0.00  0.00     0.000 A 
ATOM     18  C   UNL d   1      56.046  -1.337  32.790  0.00  0.00     0.000 A 
ATOM     19  C   UNL d   1      56.790  -1.089  32.544  0.00  0.00     0.000 A 
ENDBRANCH   5  14
BRANCH   3  20
ATOM     20  N   UNL d   1      59.781  -0.065  30.099  0.00  0.00    -0.271 N 
ATOM     21  C   UNL d   1      60.503  -0.494  30.214  0.00  0.00     0.184 A 
ATOM     22  N   UNL d   1      61.127  -0.033  29.868  0.00  0.00    -0.222 NA
ATOM     23  C   UNL d   1      60.791   0.679  29.541  0.00  0.00     0.120 A 
ATOM     24  C   UNL d   1      59.950   0.650  29.690  0.00  0.00     0.104 A 
ENDBRANCH   3  20
TORSDOF 2
ENDMDL
MODEL 2
REMARK VINA RESULT:       1.3      1.030      4.296
REMARK  2 active torsions:
REMARK  status: ('A' for Active; 'I' for Inactive)
REMARK    1  A    between atoms: N_9  and  C_3 
REMARK    2  A    between atoms: C_13  and  C_5 
ROOT
ATOM      1  N   UNL d   1      57.911  -0.099  30.877  0.00  0.00    -0.196 N 
ATOM      2  C   UNL d   1      58.689  -0.014  30.563  0.00  0.00     0.167 A 
ATOM      3  C   UNL d   1      57.774   0.058  31.682  0.00  0.00     0.153 A 
ATOM      4  N   UNL d   1      57.435  -0.489  29.591  0.00  0.00    -0.163 NA
ATOM      5  C   UNL d   1      58.825  -0.167  29.779  0.00  0.00     0.055 A 
ATOM      6  N   UNL d   1      59.301   0.223  31.065  0.00  0.00    -0.227 NA
ATOM      7  C   UNL d   1      58.388   0.292  32.163  0.00  0.00     0.052 A 
ATOM      8  C   UNL d   1      58.200  -0.406  29.282  0.00  0.00     0.104 A 
ATOM      9  C   UNL d   1      59.169   0.379  31.857  0.00  0.00     0.086 A 
ATOM     10  C   UNL d   1      58.425   0.481  32.955  0.00  0.00     0.005 A 
ATOM     11  C   UNL d   1      58.346  -0.559  28.488  0.00  0.00     0.023 C 
ATOM     12  C   UNL d   1      59.666   0.618  32.468  0.00  0.00     0.019 A 
ATOM     13  C   UNL d   1      59.196   0.682  33.155  0.00  0.00     0.002 A 
ENDROOT
BRANCH   5  14
ATOM     14  C   UNL d   1      59.586  -0.085  29.472  0.00  0.00     0.004 A 
ATOM     15  C   UNL d   1      59.798   0.597  29.066  0.00  0.00     0.000 A 
ATOM     16  C   UNL d   1      60.568   0.681  28.756  0.00  0.00     0.000 A 
ATOM     17  C   UNL d   1      61.109   0.080  28.857  0.00  0.00     0.000 A 
ATOM     18  C   UNL d   1      60.899  -0.610  29.265  0.00  0.00     0.000 A 
ATOM     19  C   UNL d   1      60.140  -0.688  29.569  0.00  0.00     0.000 A 
ENDBRANCH   5  14
BRANCH   3  20
ATOM     20  N   UNL d   1      56.990  -0.026  32.002  0.00  0.00    -0.271 N 
ATOM     21  C   UNL d   1      56.440   0.606  32.133  0.00  0.00     0.184 A 
ATOM     22  N   UNL d   1      55.735   0.262  32.458  0.00  0.00    -0.222 NA
ATOM     23  C   UNL d   1      55.849  -0.579  32.527  0.00  0.00     0.120 A 
ATOM     24  C   UNL d   1      56.636  -0.750  32.240  0.00  0.00     0.104 A 
ENDBRANCH   3  20
TORSDOF 2
ENDMDL
MODEL 3
REMARK VINA RESULT:       2.5      9.005      9.607
REMARK  2 active torsions:
REMARK  status: ('A' for Active; 'I' for Inactive)
REMARK    1  A    between atoms: N_9  and  C_3 
REMARK    2  A    between atoms: C_13  and  C_5 
ROOT
ATOM      1  N   UNL d   1      58.812  -9.167  33.186  0.00  0.00    -0.196 N 
ATOM      2  C   UNL d   1      59.443  -9.050  33.733  0.00  0.00     0.167 A 
ATOM      3  C   UNL d   1      58.980  -9.414  32.411  0.00  0.00     0.153 A 
ATOM      4  N   UNL d   1      57.872  -8.793  34.191  0.00  0.00    -0.163 NA
ATOM      5  C   UNL d   1      59.280  -8.810  34.490  0.00  0.00     0.055 A 
ATOM      6  N   UNL d   1      60.220  -9.184  33.485  0.00  0.00    -0.227 NA
ATOM      7  C   UNL d   1      59.752  -9.542  32.181  0.00  0.00     0.052 A 
ATOM      8  C   UNL d   1      58.493  -8.678  34.729  0.00  0.00     0.104 A 
ATOM      9  C   UNL d   1      60.389  -9.427  32.722  0.00  0.00     0.086 A 
ATOM     10  C   UNL d   1      60.083  -9.780  31.476  0.00  0.00     0.005 A 
ATOM     11  C   UNL d   1      58.336  -8.434  35.498  0.00  0.00     0.023 C 
ATOM     12  C   UNL d   1      61.095  -9.597  32.336  0.00  0.00     0.019 A 
ATOM     13  C   UNL d   1      60.900  -9.818  31.555  0.00  0.00     0.002 A 
ENDROOT
BRANCH   5  14
ATOM     14  C   UNL d   1      59.897  -8.695  35.025  0.00  0.00     0.004 A 
ATOM     15  C   UNL d   1      60.154  -9.314  35.500  0.00  0.00     0.000 A 
ATOM     16  C   UNL d   1      60.778  -9.198  36.041  0.00  0.00     0.000 A 
ATOM     17  C   UNL d   1      61.133  -8.466  36.095  0.00  0.00     0.000 A 
ATOM     18  C   UNL d   1      60.876  -7.840  35.617  0.00  0.00     0.000 A 
ATOM     19  C   UNL d   1      60.262  -7.958  35.086  0.00  0.00     0.000 A 
ENDBRANCH   5  14
BRANCH   3  20
ATOM     20  N   UNL d   1      58.346  -9.533  31.856  0.00  0.00    -0.271 N 
ATOM     21  C   UNL d   1      58.401  -9.439  31.015  0.00  0.00     0.184 A 
ATOM     22  N   UNL d   1      57.636  -9.616  30.693  0.00  0.00    -0.222 NA
ATOM     23  C   UNL d   1      57.110  -9.818  31.332  0.00  0.00     0.120 A 
ATOM     24  C   UNL d   1      57.562  -9.763  32.054  0.00  0.00     0.104 A 
ENDBRANCH   3  20
TORSDOF 2
ENDMDL
MODEL 4
REMARK VINA RESULT:       2.9      1.067      4.286
REMARK  2 active torsions:
REMARK  status: ('A' for Active; 'I' for Inactive)
REMARK    1  A    between atoms: N_9  and  C_3 
REMARK    2  A    between atoms: C_13  and  C_5 
ROOT
ATOM      1  N   UNL d   1      57.306  -0.068  31.602  0.00  0.00    -0.196 N 
ATOM      2  C   UNL d   1      58.097   0.006  31.319  0.00  0.00     0.167 A 
ATOM      3  C   UNL d   1      57.140   0.088  32.401  0.00  0.00     0.153 A 
ATOM      4  N   UNL d   1      56.874  -0.445  30.297  0.00  0.00    -0.163 NA
ATOM      5  C   UNL d   1      58.260  -0.146  30.540  0.00  0.00     0.055 A 
ATOM      6  N   UNL d   1      58.693   0.232  31.845  0.00  0.00    -0.227 NA
ATOM      7  C   UNL d   1      57.739   0.310  32.908  0.00  0.00     0.052 A 
ATOM      8  C   UNL d   1      57.652  -0.373  30.018  0.00  0.00     0.104 A 
ATOM      9  C   UNL d   1      58.532   0.385  32.633  0.00  0.00     0.086 A 
ATOM     10  C   UNL d   1      57.748   0.494  33.701  0.00  0.00     0.005 A 
ATOM     11  C   UNL d   1      57.826  -0.524  29.230  0.00  0.00     0.023 C 
ATOM     12  C   UNL d   1      59.009   0.614  33.263  0.00  0.00     0.019 A 
ATOM     13  C   UNL d   1      58.514   0.682  33.932  0.00  0.00     0.002 A 
ENDROOT
BRANCH   5  14
ATOM     14  C   UNL d   1      59.034  -0.074  30.262  0.00  0.00     0.004 A 
ATOM     15  C   UNL d   1      59.274   0.609  29.874  0.00  0.00     0.000 A 
ATOM     16  C   UNL d   1      60.056   0.682  29.594  0.00  0.00     0.000 A 
ATOM     17  C   UNL d   1      60.582   0.070  29.708  0.00  0.00     0.000 A 
ATOM     18  C   UNL d   1      60.344  -0.621  30.099  0.00  0.00     0.000 A 
ATOM     19  C   UNL d   1      59.573  -0.688  30.373  0.00  0.00     0.000 A 
ENDBRANCH   5  14
BRANCH   3  20
ATOM     20  N   UNL d   1      56.343   0.015  32.691  0.00  0.00    -0.271 N 
ATOM     21  C   UNL d   1      55.973  -0.705  32.944  0.00  0.00     0.184 A 
ATOM     22  N   UNL d   1      55.183  -0.511  33.185  0.00  0.00    -0.222 NA
ATOM     23  C   UNL d   1      55.065   0.327  33.081  0.00  0.00     0.120 A 
ATOM     24  C   UNL d   1      55.794   0.646  32.772  0.00  0.00     0.104 A 
ENDBRANCH   3  20
TORSDOF 2
ENDMDL
MODEL 5
REMARK VINA RESULT:       3.0      1.140      3.729
REMARK  2 active torsions:
REMARK  status: ('A' for Active; 'I' for Inactive)
REMARK    1  A    between atoms: N_9  and  C_3 
REMARK    2  A    between atoms: C_13  and  C_5 
ROOT
ATOM      1  N   UNL d   1      57.913   0.077  32.327  0.00  0.00    -0.196 N 
ATOM      2  C   UNL d   1      57.846  -0.221  31.541  0.00  0.00     0.167 A 
ATOM      3  C   UNL d   1      57.315  -0.084  32.881  0.00  0.00     0.153 A 
ATOM      4  N   UNL d   1      59.160   0.681  31.990  0.00  0.00    -0.163 NA
ATOM      5  C   UNL d   1      58.429  -0.065  31.001  0.00  0.00     0.055 A 
ATOM      6  N   UNL d   1      57.182  -0.670  31.337  0.00  0.00    -0.227 NA
ATOM      7  C   UNL d   1      56.666  -0.528  32.664  0.00  0.00     0.052 A 
ATOM      8  C   UNL d   1      59.094   0.387  31.217  0.00  0.00     0.104 A 
ATOM      9  C   UNL d   1      56.591  -0.830  31.880  0.00  0.00     0.086 A 
ATOM     10  C   UNL d   1      56.006  -0.772  33.073  0.00  0.00     0.005 A 
ATOM     11  C   UNL d   1      59.680   0.541  30.663  0.00  0.00     0.023 C 
ATOM     12  C   UNL d   1      55.887  -1.251  31.828  0.00  0.00     0.019 A 
ATOM     13  C   UNL d   1      55.522  -1.213  32.577  0.00  0.00     0.002 A 
ENDROOT
BRANCH   5  14
ATOM     14  C   UNL d   1      58.363  -0.357  30.232  0.00  0.00     0.004 A 
ATOM     15  C   UNL d   1      58.043   0.110  29.637  0.00  0.00     0.000 A 
ATOM     16  C   UNL d   1      57.976  -0.185  28.860  0.00  0.00     0.000 A 
ATOM     17  C   UNL d   1      58.230  -0.942  28.693  0.00  0.00     0.000 A 
ATOM     18  C   UNL d   1      58.554  -1.416  29.291  0.00  0.00     0.000 A 
ATOM     19  C   UNL d   1      58.618  -1.122  30.055  0.00  0.00     0.000 A 
ENDBRANCH   5  14
BRANCH   3  20
ATOM     20  N   UNL d   1      57.380   0.216  33.675  0.00  0.00    -0.271 N 
ATOM     21  C   UNL d   1      56.731   0.377  34.196  0.00  0.00     0.184 A 
ATOM     22  N   UNL d   1      57.059   0.665  34.924  0.00  0.00    -0.222 NA
ATOM     23  C   UNL d   1      57.908   0.682  34.852  0.00  0.00     0.120 A 
ATOM     24  C   UNL d   1      58.099   0.399  34.069  0.00  0.00     0.104 A 
ENDBRANCH   3  20
TORSDOF 2
ENDMDL
MODEL 6
REMARK VINA RESULT:       3.3      2.700      4.695
REMARK  2 active torsions:
REMARK  status: ('A' for Active; 'I' for Inactive)
REMARK    1  A    between atoms: N_9  and  C_3 
REMARK    2  A    between atoms: C_13  and  C_5 
ROOT
ATOM      1  N   UNL d   1      58.831  -2.747  28.911  0.00  0.00    -0.196 N 
ATOM      2  C   UNL d   1      59.455  -2.190  29.015  0.00  0.00     0.167 A 
ATOM      3  C   UNL d   1      59.012  -3.536  28.725  0.00  0.00     0.153 A 
ATOM      4  N   UNL d   1      57.874  -1.725  29.179  0.00  0.00    -0.163 NA
ATOM      5  C   UNL d   1      59.280  -1.419  29.197  0.00  0.00     0.055 A 
ATOM      6  N   UNL d   1      60.238  -2.441  28.929  0.00  0.00    -0.227 NA
ATOM      7  C   UNL d   1      59.789  -3.769  28.643  0.00  0.00     0.052 A 
ATOM      8  C   UNL d   1      58.488  -1.176  29.282  0.00  0.00     0.104 A 
ATOM      9  C   UNL d   1      60.419  -3.218  28.745  0.00  0.00     0.086 A 
ATOM     10  C   UNL d   1      60.132  -4.487  28.467  0.00  0.00     0.005 A 
ATOM     11  C   UNL d   1      58.319  -0.394  29.467  0.00  0.00     0.023 C 
ATOM     12  C   UNL d   1      61.133  -3.610  28.630  0.00  0.00     0.019 A 
ATOM     13  C   UNL d   1      60.950  -4.405  28.455  0.00  0.00     0.002 A 
ENDROOT
BRANCH   5  14
ATOM     14  C   UNL d   1      59.890  -0.874  29.299  0.00  0.00     0.004 A 
ATOM     15  C   UNL d   1      60.195  -0.467  28.654  0.00  0.00     0.000 A 
ATOM     16  C   UNL d   1      60.813   0.084  28.757  0.00  0.00     0.000 A 
ATOM     17  C   UNL d   1      61.112   0.217  29.503  0.00  0.00     0.000 A 
ATOM     18  C   UNL d   1      60.807  -0.191  30.156  0.00  0.00     0.000 A 
ATOM     19  C   UNL d   1      60.200  -0.733  30.051  0.00  0.00     0.000 A 
ENDBRANCH   5  14
BRANCH   3  20
ATOM     20  N   UNL d   1      58.385  -4.102  28.619  0.00  0.00    -0.271 N 
ATOM     21  C   UNL d   1      57.559  -3.918  28.560  0.00  0.00     0.184 A 
ATOM     22  N   UNL d   1      57.146  -4.652  28.459  0.00  0.00    -0.222 NA
ATOM     23  C   UNL d   1      57.713  -5.287  28.455  0.00  0.00     0.120 A 
ATOM     24  C   UNL d   1      58.485  -4.934  28.556  0.00  0.00     0.104 A 
ENDBRANCH   3  20
TORSDOF 2
ENDMDL
