MODEL 1
REMARK VINA RESULT:      54.3      0.000      0.000
REMARK  3 active torsions:
REMARK  status: ('A' for Active; 'I' for Inactive)
REMARK    1  A    between atoms: C_4  and  S_13 
REMARK    2  A    between atoms: C_16  and  C_6 
REMARK    3  A    between atoms: S_13  and  C_16 
ROOT
ATOM      1  C   UNL d   1     -49.783  26.559  33.466  0.00  0.00     0.059 C 
ENDROOT
BRANCH   1   2
ATOM      2  S   UNL d   1     -50.029  27.310  33.642  0.00  0.00    -0.046 SA
BRANCH   2   3
ATOM      3  C   UNL d   1     -49.512  27.817  34.037  0.00  0.00     0.194 A 
ATOM      4  N   UNL d   1     -49.067  28.469  33.799  0.00  0.00    -0.220 NA
ATOM      5  C   UNL d   1     -48.656  28.749  34.448  0.00  0.00     0.101 A 
ATOM      6  C   UNL d   1     -48.137  29.376  34.529  0.00  0.00     0.021 A 
ATOM      7  C   UNL d   1     -48.837  28.289  35.074  0.00  0.00     0.101 A 
ATOM      8  C   UNL d   1     -47.792  29.548  35.245  0.00  0.00     0.002 A 
ATOM      9  C   UNL d   1     -47.966  29.080  35.915  0.00  0.00     0.002 A 
ATOM     10  C   UNL d   1     -48.505  28.433  35.823  0.00  0.00     0.021 A 
ATOM     11  N   UNL d   1     -49.375  27.691  34.850  0.00  0.00    -0.220 NA
ENDBRANCH   2   3
ENDBRANCH   1   2
BRANCH   1  12
ATOM     12  C   UNL d   1     -50.329  25.955  33.431  0.00  0.00     0.107 A 
ATOM     13  C   UNL d   1     -51.139  26.030  33.401  0.00  0.00     0.101 A 
ATOM     14  N   UNL d   1     -51.500  25.292  33.370  0.00  0.00    -0.289 N 
ATOM     15  C   UNL d   1     -50.890  24.731  33.381  0.00  0.00     0.148 A 
ATOM     16  C   UNL d   1     -52.295  25.033  33.333  0.00  0.00     0.066 A 
ATOM     17  N   UNL d   1     -50.161  25.132  33.418  0.00  0.00    -0.226 NA
ATOM     18  C   UNL d   1     -51.067  23.926  33.356  0.00  0.00     0.037 A 
ATOM     19  C   UNL d   1     -51.864  23.675  33.319  0.00  0.00     0.005 A 
ATOM     20  C   UNL d   1     -52.473  24.235  33.308  0.00  0.00     0.018 A 
ATOM     21  C   UNL d   1     -52.906  25.601  33.322  0.00  0.00     0.019 C 
ENDBRANCH   1  12
TORSDOF 3
ENDMDL
