MODEL 1
REMARK VINA RESULT:      -1.1      0.000      0.000
REMARK  5 active torsions:
REMARK  status: ('A' for Active; 'I' for Inactive)
REMARK    1  A    between atoms: N_7  and  C_1 
REMARK    2  A    between atoms: S_6  and  C_2 
REMARK    3  A    between atoms: C_3  and  S_6 
REMARK    4  A    between atoms: C_13  and  N_5 
REMARK    5  A    between atoms: C_18  and  C_13 
ROOT
ATOM      1  C   UNL d   1      32.545  17.429 -23.462  0.00  0.00     0.232 A 
ATOM      2  C   UNL d   1      32.224  17.867 -24.075  0.00  0.00     0.139 A 
ATOM      3  N   UNL d   1      32.174  16.689 -23.442  0.00  0.00    -0.204 NA
ATOM      4  N   UNL d   1      31.649  17.405 -24.443  0.00  0.00    -0.282 N 
ATOM      5  C   UNL d   1      31.615  16.677 -24.056  0.00  0.00     0.150 A 
ATOM      6  C   UNL d   1      31.119  16.049 -24.240  0.00  0.00     0.041 C 
ENDROOT
BRANCH   2   7
ATOM      7  S   UNL d   1      32.435  18.634 -24.288  0.00  0.00    -0.029 SA
BRANCH   7   8
ATOM      8  C   UNL d   1      32.560  19.205 -23.706  0.00  0.00     0.181 A 
ATOM      9  N   UNL d   1      32.344  19.144 -22.908  0.00  0.00    -0.221 NA
ATOM     10  C   UNL d   1      32.571  19.832 -22.528  0.00  0.00     0.100 A 
ATOM     11  C   UNL d   1      32.505  20.091 -21.746  0.00  0.00     0.021 A 
ATOM     12  C   UNL d   1      32.930  20.329 -23.082  0.00  0.00     0.084 A 
ATOM     13  C   UNL d   1      32.787  20.819 -21.524  0.00  0.00     0.002 A 
ATOM     14  C   UNL d   1      33.145  21.310 -22.083  0.00  0.00     0.002 A 
ATOM     15  C   UNL d   1      33.220  21.072 -22.864  0.00  0.00     0.019 A 
ATOM     16  N   UNL d   1      32.922  19.937 -23.812  0.00  0.00    -0.282 N 
ATOM     17  C   UNL d   1      33.225  20.231 -24.521  0.00  0.00     0.101 C 
ENDBRANCH   7   8
ENDBRANCH   2   7
BRANCH   1  18
ATOM     18  N   UNL d   1      32.944  17.088 -22.819  0.00  0.00    -0.093 N 
ATOM     19  O   UNL d   1      33.045  16.269 -22.785  0.00  0.00    -0.530 OA
ATOM     20  O   UNL d   1      33.241  17.561 -22.213  0.00  0.00    -0.530 OA
ENDBRANCH   1  18
BRANCH   4  21
ATOM     21  C   UNL d   1      31.186  17.632 -25.091  0.00  0.00     0.082 C 
BRANCH  21  22
ATOM     22  C   UNL d   1      30.366  17.656 -25.012  0.00  0.00     0.018 A 
ATOM     23  C   UNL d   1      29.913  16.965 -25.090  0.00  0.00     0.002 A 
ATOM     24  C   UNL d   1      29.099  16.992 -25.011  0.00  0.00     0.000 A 
ATOM     25  C   UNL d   1      28.728  17.716 -24.852  0.00  0.00     0.000 A 
ATOM     26  C   UNL d   1      29.171  18.401 -24.774  0.00  0.00     0.000 A 
ATOM     27  C   UNL d   1      29.993  18.373 -24.854  0.00  0.00     0.002 A 
ENDBRANCH  21  22
ENDBRANCH   4  21
TORSDOF 5
ENDMDL
MODEL 2
REMARK VINA RESULT:       1.5      2.830      4.955
REMARK  5 active torsions:
REMARK  status: ('A' for Active; 'I' for Inactive)
REMARK    1  A    between atoms: N_7  and  C_1 
REMARK    2  A    between atoms: S_6  and  C_2 
REMARK    3  A    between atoms: C_3  and  S_6 
REMARK    4  A    between atoms: C_13  and  N_5 
REMARK    5  A    between atoms: C_18  and  C_13 
ROOT
ATOM      1  C   UNL d   1      32.215  21.568 -21.241  0.00  0.00     0.232 A 
ATOM      2  C   UNL d   1      32.703  21.909 -21.803  0.00  0.00     0.139 A 
ATOM      3  N   UNL d   1      31.765  22.164 -20.883  0.00  0.00    -0.204 NA
ATOM      4  N   UNL d   1      32.563  22.721 -21.800  0.00  0.00    -0.282 N 
ATOM      5  C   UNL d   1      31.985  22.884 -21.235  0.00  0.00     0.150 A 
ATOM      6  C   UNL d   1      31.678  23.621 -21.048  0.00  0.00     0.041 C 
ENDROOT
BRANCH   2   7
ATOM      7  S   UNL d   1      33.240  21.514 -22.286  0.00  0.00    -0.029 SA
BRANCH   7   8
ATOM      8  C   UNL d   1      33.177  20.698 -22.393  0.00  0.00     0.181 A 
ATOM      9  N   UNL d   1      33.227  20.123 -21.798  0.00  0.00    -0.221 NA
ATOM     10  C   UNL d   1      33.135  19.388 -22.145  0.00  0.00     0.100 A 
ATOM     11  C   UNL d   1      33.133  18.619 -21.843  0.00  0.00     0.021 A 
ATOM     12  C   UNL d   1      33.028  19.495 -22.957  0.00  0.00     0.084 A 
ATOM     13  C   UNL d   1      33.027  17.980 -22.331  0.00  0.00     0.002 A 
ATOM     14  C   UNL d   1      32.920  18.095 -23.142  0.00  0.00     0.002 A 
ATOM     15  C   UNL d   1      32.919  18.849 -23.463  0.00  0.00     0.019 A 
ATOM     16  N   UNL d   1      33.054  20.310 -23.108  0.00  0.00    -0.282 N 
ATOM     17  C   UNL d   1      32.971  20.667 -23.848  0.00  0.00     0.101 C 
ENDBRANCH   7   8
ENDBRANCH   2   7
BRANCH   1  18
ATOM     18  N   UNL d   1      31.773  21.111 -20.707  0.00  0.00    -0.093 N 
ATOM     19  O   UNL d   1      31.019  20.847 -20.916  0.00  0.00    -0.530 OA
ATOM     20  O   UNL d   1      32.082  20.918 -19.968  0.00  0.00    -0.530 OA
ENDBRANCH   1  18
BRANCH   4  21
ATOM     21  C   UNL d   1      32.938  23.280 -22.284  0.00  0.00     0.082 C 
BRANCH  21  22
ATOM     22  C   UNL d   1      32.645  23.421 -23.041  0.00  0.00     0.018 A 
ATOM     23  C   UNL d   1      31.829  23.499 -23.170  0.00  0.00     0.002 A 
ATOM     24  C   UNL d   1      31.540  23.639 -23.923  0.00  0.00     0.000 A 
ATOM     25  C   UNL d   1      32.070  23.701 -24.558  0.00  0.00     0.000 A 
ATOM     26  C   UNL d   1      32.876  23.624 -24.435  0.00  0.00     0.000 A 
ATOM     27  C   UNL d   1      33.166  23.484 -23.675  0.00  0.00     0.002 A 
ENDBRANCH  21  22
ENDBRANCH   4  21
TORSDOF 5
ENDMDL
