MODEL 1
REMARK VINA RESULT:     102.6      0.000      0.000
REMARK  3 active torsions:
REMARK  status: ('A' for Active; 'I' for Inactive)
REMARK    1  A    between atoms: N_3  and  C_1 
REMARK       I    between atoms: C_5  and  N_3 
REMARK    2  A    between atoms: C_6  and  C_5 
REMARK    3  A    between atoms: O_19  and  C_17 
ROOT
ATOM      1  N   UNL d   1      60.020  47.437  50.366  0.00  0.00    -0.181 NA
ATOM      2  C   UNL d   1      60.015  48.240  50.552  0.00  0.00     0.306 C 
ATOM      3  O   UNL d   1      60.721  48.690  50.468  0.00  0.00    -0.263 OA
ENDROOT
BRANCH   1   4
ATOM      4  C   UNL d   1      60.706  47.070  50.099  0.00  0.00     0.197 A 
ATOM      5  N   UNL d   1      61.440  47.444  50.013  0.00  0.00    -0.221 NA
ATOM      6  C   UNL d   1      61.971  46.872  49.731  0.00  0.00     0.090 A 
ATOM      7  C   UNL d   1      62.771  46.920  49.544  0.00  0.00     0.022 A 
ATOM      8  C   UNL d   1      61.559  46.163  49.649  0.00  0.00     0.052 A 
ATOM      9  C   UNL d   1      63.157  46.240  49.270  0.00  0.00     0.026 A 
ATOM     10  C   UNL d   1      62.751  45.539  49.189  0.00  0.00     0.095 A 
ATOM     11  C   UNL d   1      61.946  45.483  49.375  0.00  0.00     0.032 A 
ATOM     12  S   UNL d   1      60.788  46.297  49.877  0.00  0.00    -0.047 SA
BRANCH  10  13
ATOM     13  O   UNL d   1      63.142  44.833  48.907  0.00  0.00    -0.328 OA
ATOM     14  C   UNL d   1      63.035  44.114  49.327  0.00  0.00     0.181 C 
ENDBRANCH  10  13
ENDBRANCH   1   4
BRANCH   2  15
ATOM     15  C   UNL d   1      59.328  48.607  50.820  0.00  0.00     0.182 A 
ATOM     16  O   UNL d   1      58.629  48.494  50.404  0.00  0.00    -0.298 OA
ATOM     17  C   UNL d   1      57.931  48.865  50.673  0.00  0.00     0.123 A 
ATOM     18  C   UNL d   1      57.221  48.756  50.259  0.00  0.00     0.027 A 
ATOM     19  C   UNL d   1      57.954  49.334  51.342  0.00  0.00     0.123 A 
ATOM     20  C   UNL d   1      56.536  49.126  50.531  0.00  0.00     0.002 A 
ATOM     21  C   UNL d   1      56.548  49.594  51.194  0.00  0.00     0.002 A 
ATOM     22  C   UNL d   1      57.258  49.703  51.607  0.00  0.00     0.027 A 
ATOM     23  O   UNL d   1      58.664  49.444  51.755  0.00  0.00    -0.301 OA
ATOM     24  C   UNL d   1      59.344  49.074  51.483  0.00  0.00     0.152 A 
ENDBRANCH   2  15
TORSDOF 3
ENDMDL
MODEL 2
REMARK VINA RESULT:     103.6      2.123      3.176
REMARK  3 active torsions:
REMARK  status: ('A' for Active; 'I' for Inactive)
REMARK    1  A    between atoms: N_3  and  C_1 
REMARK       I    between atoms: C_5  and  N_3 
REMARK    2  A    between atoms: C_6  and  C_5 
REMARK    3  A    between atoms: O_19  and  C_17 
ROOT
ATOM      1  N   UNL d   1      61.281  45.715  50.743  0.00  0.00    -0.181 NA
ATOM      2  C   UNL d   1      61.672  46.320  50.343  0.00  0.00     0.306 C 
ATOM      3  O   UNL d   1      62.382  46.150  49.924  0.00  0.00    -0.263 OA
ENDROOT
BRANCH   1   4
ATOM      4  C   UNL d   1      61.576  44.946  50.738  0.00  0.00     0.197 A 
ATOM      5  N   UNL d   1      61.456  44.391  51.341  0.00  0.00    -0.221 NA
ATOM      6  C   UNL d   1      61.847  43.697  51.109  0.00  0.00     0.090 A 
ATOM      7  C   UNL d   1      61.920  42.966  51.482  0.00  0.00     0.022 A 
ATOM      8  C   UNL d   1      62.196  43.835  50.377  0.00  0.00     0.052 A 
ATOM      9  C   UNL d   1      62.354  42.369  51.104  0.00  0.00     0.026 A 
ATOM     10  C   UNL d   1      62.700  42.505  50.379  0.00  0.00     0.095 A 
ATOM     11  C   UNL d   1      62.630  43.237  49.999  0.00  0.00     0.032 A 
ATOM     12  S   UNL d   1      62.024  44.602  50.160  0.00  0.00    -0.047 SA
BRANCH  10  13
ATOM     13  O   UNL d   1      63.149  41.894  49.984  0.00  0.00    -0.328 OA
ATOM     14  C   UNL d   1      63.158  41.121  50.312  0.00  0.00     0.181 C 
ENDBRANCH  10  13
ENDBRANCH   1   4
BRANCH   2  15
ATOM     15  C   UNL d   1      61.377  47.089  50.347  0.00  0.00     0.182 A 
ATOM     16  O   UNL d   1      61.067  47.391  51.045  0.00  0.00    -0.298 OA
ATOM     17  C   UNL d   1      60.767  48.171  51.053  0.00  0.00     0.123 A 
ATOM     18  C   UNL d   1      60.452  48.484  51.753  0.00  0.00     0.027 A 
ATOM     19  C   UNL d   1      60.787  48.619  50.370  0.00  0.00     0.123 A 
ATOM     20  C   UNL d   1      60.159  49.254  51.752  0.00  0.00     0.002 A 
ATOM     21  C   UNL d   1      60.174  49.708  51.080  0.00  0.00     0.002 A 
ATOM     22  C   UNL d   1      60.489  49.395  50.380  0.00  0.00     0.027 A 
ATOM     23  O   UNL d   1      61.102  48.306  49.670  0.00  0.00    -0.301 OA
ATOM     24  C   UNL d   1      61.394  47.540  49.673  0.00  0.00     0.152 A 
ENDBRANCH   2  15
TORSDOF 3
ENDMDL
