MODEL 1
REMARK VINA RESULT:      -5.1      0.000      0.000
REMARK  3 active torsions:
REMARK  status: ('A' for Active; 'I' for Inactive)
REMARK    1  A    between atoms: S_8  and  C_1 
REMARK    2  A    between atoms: C_7  and  C_12 
REMARK    3  A    between atoms: C_12  and  S_8 
ROOT
ATOM      1  C   UNL d   1      57.268   0.048  31.285  0.00  0.00     0.141 A 
ATOM      2  N   UNL d   1      57.045  -0.719  31.452  0.00  0.00    -0.232 NA
ATOM      3  S   UNL d   1      56.909   0.551  31.809  0.00  0.00    -0.060 SA
ATOM      4  C   UNL d   1      56.543  -0.678  32.090  0.00  0.00     0.088 A 
ATOM      5  C   UNL d   1      56.459   0.107  32.310  0.00  0.00     0.049 A 
ATOM      6  C   UNL d   1      56.143  -1.278  32.504  0.00  0.00     0.020 A 
ATOM      7  C   UNL d   1      55.974   0.298  32.947  0.00  0.00     0.008 A 
ATOM      8  C   UNL d   1      55.654  -1.071  33.149  0.00  0.00     0.002 A 
ATOM      9  C   UNL d   1      55.570  -0.285  33.370  0.00  0.00     0.001 A 
ENDROOT
BRANCH   1  10
ATOM     10  S   UNL d   1      57.778   0.274  30.677  0.00  0.00    -0.060 SA
BRANCH  10  11
ATOM     11  C   UNL d   1      58.126  -0.284  30.193  0.00  0.00     0.044 C 
BRANCH  11  12
ATOM     12  C   UNL d   1      58.618  -0.054  29.555  0.00  0.00     0.036 A 
ATOM     13  S   UNL d   1      58.924  -0.633  29.051  0.00  0.00    -0.086 SA
ATOM     14  C   UNL d   1      59.378  -0.245  28.489  0.00  0.00     0.035 A 
ATOM     15  C   UNL d   1      59.352   0.567  28.647  0.00  0.00     0.007 A 
ATOM     16  C   UNL d   1      58.877   0.680  29.312  0.00  0.00     0.007 A 
ENDBRANCH  11  12
ENDBRANCH  10  11
ENDBRANCH   1  10
TORSDOF 3
ENDMDL
MODEL 2
REMARK VINA RESULT:      -4.6      0.916      4.160
REMARK  3 active torsions:
REMARK  status: ('A' for Active; 'I' for Inactive)
REMARK    1  A    between atoms: S_8  and  C_1 
REMARK    2  A    between atoms: C_7  and  C_12 
REMARK    3  A    between atoms: C_12  and  S_8 
ROOT
ATOM      1  C   UNL d   1      57.810   0.324  30.868  0.00  0.00     0.141 A 
ATOM      2  N   UNL d   1      57.759  -0.094  30.169  0.00  0.00    -0.232 NA
ATOM      3  S   UNL d   1      58.536   0.680  30.915  0.00  0.00    -0.060 SA
ATOM      4  C   UNL d   1      58.469   0.011  29.787  0.00  0.00     0.088 A 
ATOM      5  C   UNL d   1      58.949   0.490  30.249  0.00  0.00     0.049 A 
ATOM      6  C   UNL d   1      58.740  -0.279  29.056  0.00  0.00     0.020 A 
ATOM      7  C   UNL d   1      59.703   0.682  29.983  0.00  0.00     0.008 A 
ATOM      8  C   UNL d   1      59.508  -0.077  28.797  0.00  0.00     0.002 A 
ATOM      9  C   UNL d   1      59.988   0.402  29.259  0.00  0.00     0.001 A 
ENDROOT
BRANCH   1  10
ATOM     10  S   UNL d   1      57.213   0.374  31.436  0.00  0.00    -0.060 SA
BRANCH  10  11
ATOM     11  C   UNL d   1      56.978  -0.284  31.856  0.00  0.00     0.044 C 
BRANCH  11  12
ATOM     12  C   UNL d   1      56.361  -0.236  32.422  0.00  0.00     0.036 A 
ATOM     13  S   UNL d   1      56.060  -0.932  32.751  0.00  0.00    -0.086 SA
ATOM     14  C   UNL d   1      55.471  -0.712  33.278  0.00  0.00     0.035 A 
ATOM     15  C   UNL d   1      55.410   0.114  33.272  0.00  0.00     0.007 A 
ATOM     16  C   UNL d   1      55.967   0.405  32.737  0.00  0.00     0.007 A 
ENDBRANCH  11  12
ENDBRANCH  10  11
ENDBRANCH   1  10
TORSDOF 3
ENDMDL
MODEL 3
REMARK VINA RESULT:      -3.9      0.939      1.451
REMARK  3 active torsions:
REMARK  status: ('A' for Active; 'I' for Inactive)
REMARK    1  A    between atoms: S_8  and  C_1 
REMARK    2  A    between atoms: C_7  and  C_12 
REMARK    3  A    between atoms: C_12  and  S_8 
ROOT
ATOM      1  C   UNL d   1      56.641  -0.153  32.192  0.00  0.00     0.141 A 
ATOM      2  N   UNL d   1      55.869  -0.361  32.356  0.00  0.00    -0.232 NA
ATOM      3  S   UNL d   1      56.944   0.266  32.815  0.00  0.00    -0.060 SA
ATOM      4  C   UNL d   1      55.704  -0.061  33.093  0.00  0.00     0.088 A 
ATOM      5  C   UNL d   1      56.368   0.327  33.376  0.00  0.00     0.049 A 
ATOM      6  C   UNL d   1      55.009  -0.096  33.549  0.00  0.00     0.020 A 
ATOM      7  C   UNL d   1      56.343   0.682  34.118  0.00  0.00     0.008 A 
ATOM      8  C   UNL d   1      54.996   0.269  34.301  0.00  0.00     0.002 A 
ATOM      9  C   UNL d   1      55.661   0.656  34.584  0.00  0.00     0.001 A 
ENDROOT
BRANCH   1  10
ATOM     10  S   UNL d   1      57.047  -0.342  31.498  0.00  0.00    -0.060 SA
BRANCH  10  11
ATOM     11  C   UNL d   1      57.642   0.140  31.215  0.00  0.00     0.044 C 
BRANCH  11  12
ATOM     12  C   UNL d   1      57.985   0.004  30.463  0.00  0.00     0.036 A 
ATOM     13  S   UNL d   1      58.160   0.649  29.976  0.00  0.00    -0.086 SA
ATOM     14  C   UNL d   1      58.486   0.347  29.288  0.00  0.00     0.035 A 
ATOM     15  C   UNL d   1      58.512  -0.478  29.351  0.00  0.00     0.007 A 
ATOM     16  C   UNL d   1      58.199  -0.686  30.085  0.00  0.00     0.007 A 
ENDBRANCH  11  12
ENDBRANCH  10  11
ENDBRANCH   1  10
TORSDOF 3
ENDMDL
MODEL 4
REMARK VINA RESULT:      -3.2      1.050      4.200
REMARK  3 active torsions:
REMARK  status: ('A' for Active; 'I' for Inactive)
REMARK    1  A    between atoms: S_8  and  C_1 
REMARK    2  A    between atoms: C_7  and  C_12 
REMARK    3  A    between atoms: C_12  and  S_8 
ROOT
ATOM      1  C   UNL d   1      57.092   0.207  31.475  0.00  0.00     0.141 A 
ATOM      2  N   UNL d   1      57.217  -0.574  31.275  0.00  0.00    -0.232 NA
ATOM      3  S   UNL d   1      57.542   0.682  30.999  0.00  0.00    -0.060 SA
ATOM      4  C   UNL d   1      57.753  -0.570  30.664  0.00  0.00     0.088 A 
ATOM      5  C   UNL d   1      57.954   0.207  30.494  0.00  0.00     0.049 A 
ATOM      6  C   UNL d   1      58.090  -1.197  30.234  0.00  0.00     0.020 A 
ATOM      7  C   UNL d   1      58.493   0.361  29.891  0.00  0.00     0.008 A 
ATOM      8  C   UNL d   1      58.636  -1.027  29.625  0.00  0.00     0.002 A 
ATOM      9  C   UNL d   1      58.837  -0.250  29.455  0.00  0.00     0.001 A 
ENDROOT
BRANCH   1  10
ATOM     10  S   UNL d   1      56.585   0.470  32.072  0.00  0.00    -0.060 SA
BRANCH  10  11
ATOM     11  C   UNL d   1      56.484   0.037  32.756  0.00  0.00     0.044 C 
BRANCH  11  12
ATOM     12  C   UNL d   1      55.948   0.289  33.350  0.00  0.00     0.036 A 
ATOM     13  S   UNL d   1      56.232   0.450  34.109  0.00  0.00    -0.086 SA
ATOM     14  C   UNL d   1      55.588   0.681  34.561  0.00  0.00     0.035 A 
ATOM     15  C   UNL d   1      54.913   0.662  34.083  0.00  0.00     0.007 A 
ATOM     16  C   UNL d   1      55.143   0.417  33.329  0.00  0.00     0.007 A 
ENDBRANCH  11  12
ENDBRANCH  10  11
ENDBRANCH   1  10
TORSDOF 3
ENDMDL
MODEL 5
REMARK VINA RESULT:      -2.6      9.725     10.053
REMARK  3 active torsions:
REMARK  status: ('A' for Active; 'I' for Inactive)
REMARK    1  A    between atoms: S_8  and  C_1 
REMARK    2  A    between atoms: C_7  and  C_12 
REMARK    3  A    between atoms: C_12  and  S_8 
ROOT
ATOM      1  C   UNL d   1      59.592  -9.523  33.704  0.00  0.00     0.141 A 
ATOM      2  N   UNL d   1      59.172  -9.104  34.264  0.00  0.00    -0.232 NA
ATOM      3  S   UNL d   1      60.359  -9.603  33.948  0.00  0.00    -0.060 SA
ATOM      4  C   UNL d   1      59.697  -8.928  34.859  0.00  0.00     0.088 A 
ATOM      5  C   UNL d   1      60.431  -9.236  34.663  0.00  0.00     0.049 A 
ATOM      6  C   UNL d   1      59.591  -8.513  35.572  0.00  0.00     0.020 A 
ATOM      7  C   UNL d   1      61.064  -9.132  35.179  0.00  0.00     0.008 A 
ATOM      8  C   UNL d   1      60.241  -8.414  36.087  0.00  0.00     0.002 A 
ATOM      9  C   UNL d   1      60.975  -8.723  35.891  0.00  0.00     0.001 A 
ENDROOT
BRANCH   1  10
ATOM     10  S   UNL d   1      59.279  -9.818  32.998  0.00  0.00    -0.060 SA
BRANCH  10  11
ATOM     11  C   UNL d   1      58.479  -9.778  32.845  0.00  0.00     0.044 C 
BRANCH  11  12
ATOM     12  C   UNL d   1      58.190  -9.793  32.059  0.00  0.00     0.036 A 
ATOM     13  S   UNL d   1      57.374  -9.795  31.928  0.00  0.00    -0.086 SA
ATOM     14  C   UNL d   1      57.261  -9.810  31.116  0.00  0.00     0.035 A 
ATOM     15  C   UNL d   1      58.004  -9.818  30.750  0.00  0.00     0.007 A 
ATOM     16  C   UNL d   1      58.578  -9.807  31.342  0.00  0.00     0.007 A 
ENDBRANCH  11  12
ENDBRANCH  10  11
ENDBRANCH   1  10
TORSDOF 3
ENDMDL
