MODEL 1
REMARK VINA RESULT:      -0.7      0.000      0.000
REMARK  10 active torsions:
REMARK  status: ('A' for Active; 'I' for Inactive)
REMARK       I    between atoms: C_6  and  N_1 
REMARK    1  A    between atoms: C_7  and  C_3 
REMARK    2  A    between atoms: C_9  and  C_4 
REMARK    3  A    between atoms: C_19  and  C_6 
REMARK    4  A    between atoms: C_10  and  C_25 
REMARK    5  A    between atoms: O_23  and  C_10 
REMARK    6  A    between atoms: S_18  and  C_19 
REMARK    7  A    between atoms: C_25  and  S_18 
REMARK    8  A    between atoms: C_26  and  O_23 
REMARK    9  A    between atoms: C_27  and  C_26 
REMARK   10  A    between atoms: C_28  and  C_27 
ROOT
ATOM      1  N   UNL d   1      58.518  -1.314  29.751  0.00  0.00    -0.195 N 
ATOM      2  N   UNL d   1      58.988  -0.638  29.755  0.00  0.00    -0.162 NA
ATOM      3  C   UNL d   1      59.627  -0.768  29.294  0.00  0.00     0.109 A 
ATOM      4  C   UNL d   1      58.893  -1.866  29.270  0.00  0.00     0.088 A 
ATOM      5  C   UNL d   1      59.579  -1.532  28.985  0.00  0.00     0.041 A 
ATOM      6  C   UNL d   1      57.800  -1.421  30.156  0.00  0.00     0.275 C 
ATOM      7  O   UNL d   1      57.391  -2.131  30.099  0.00  0.00    -0.266 OA
ENDROOT
BRANCH   4   8
ATOM      8  C   UNL d   1      58.646  -2.626  29.088  0.00  0.00     0.018 A 
ATOM      9  C   UNL d   1      59.110  -3.268  29.310  0.00  0.00     0.004 A 
ATOM     10  C   UNL d   1      58.863  -4.028  29.128  0.00  0.00     0.030 A 
ATOM     11  C   UNL d   1      58.157  -4.159  28.726  0.00  0.00     0.140 A 
ATOM     12  C   UNL d   1      57.693  -3.502  28.505  0.00  0.00     0.030 A 
ATOM     13  F   UNL d   1      57.917  -4.926  28.548  0.00  0.00    -0.204 F 
ATOM     14  C   UNL d   1      57.936  -2.744  28.684  0.00  0.00     0.004 A 
ENDBRANCH   4   8
BRANCH   6  15
ATOM     15  C   UNL d   1      57.498  -0.808  30.619  0.00  0.00     0.127 C 
BRANCH  15  16
ATOM     16  S   UNL d   1      57.213  -0.959  31.374  0.00  0.00    -0.089 SA
BRANCH  16  17
ATOM     17  C   UNL d   1      56.703  -0.425  31.732  0.00  0.00     0.103 C 
BRANCH  17  18
ATOM     18  C   UNL d   1      56.857  -0.137  32.487  0.00  0.00     0.307 C 
ATOM     19  O   UNL d   1      57.417   0.464  32.586  0.00  0.00    -0.258 OA
BRANCH  18  20
ATOM     20  O   UNL d   1      56.457  -0.441  33.147  0.00  0.00    -0.271 OA
BRANCH  20  21
ATOM     21  C   UNL d   1      56.210   0.061  33.746  0.00  0.00     0.126 C 
BRANCH  21  22
ATOM     22  C   UNL d   1      55.433   0.002  34.041  0.00  0.00     0.027 C 
BRANCH  22  23
ATOM     23  C   UNL d   1      54.971   0.681  34.122  0.00  0.00     0.002 C 
ATOM     24  C   UNL d   1      54.174   0.602  34.320  0.00  0.00     0.000 C 
ENDBRANCH  22  23
ENDBRANCH  21  22
ENDBRANCH  20  21
ENDBRANCH  18  20
ENDBRANCH  17  18
ENDBRANCH  16  17
ENDBRANCH  15  16
ENDBRANCH   6  15
BRANCH   3  25
ATOM     25  C   UNL d   1      60.216  -0.202  29.175  0.00  0.00     0.049 A 
ATOM     26  S   UNL d   1      60.570   0.140  28.521  0.00  0.00    -0.085 SA
ATOM     27  C   UNL d   1      61.132   0.680  28.784  0.00  0.00     0.035 A 
ATOM     28  C   UNL d   1      61.130   0.676  29.610  0.00  0.00     0.007 A 
ATOM     29  C   UNL d   1      60.561   0.129  29.856  0.00  0.00     0.009 A 
ENDBRANCH   3  25
TORSDOF 10
ENDMDL
