MODEL 1
REMARK VINA RESULT:      -2.2      0.000      0.000
REMARK  7 active torsions:
REMARK  status: ('A' for Active; 'I' for Inactive)
REMARK    1  A    between atoms: S_9  and  C_2 
REMARK    2  A    between atoms: C_15  and  C_5 
REMARK    3  A    between atoms: C_6  and  C_7 
REMARK       I    between atoms: C_7  and  N_8 
REMARK    4  A    between atoms: N_8  and  C_15 
REMARK    5  A    between atoms: C_14  and  S_9 
REMARK    6  A    between atoms: C_10  and  C_14 
REMARK    7  A    between atoms: C_12  and  C_10 
ROOT
ATOM      1  O   UNL d   1      57.646   0.260  31.101  0.00  0.00    -0.262 OA
ATOM      2  C   UNL d   1      57.697  -0.408  30.612  0.00  0.00     0.236 A 
ATOM      3  N   UNL d   1      57.328  -1.026  30.996  0.00  0.00    -0.114 NA
ATOM      4  N   UNL d   1      57.048  -0.748  31.716  0.00  0.00    -0.119 NA
ATOM      5  C   UNL d   1      57.244   0.043  31.780  0.00  0.00     0.224 A 
ENDROOT
BRANCH   2   6
ATOM      6  S   UNL d   1      58.058  -0.435  29.874  0.00  0.00    -0.037 SA
BRANCH   6   7
ATOM      7  C   UNL d   1      58.373  -1.132  29.596  0.00  0.00     0.081 C 
BRANCH   7   8
ATOM      8  C   UNL d   1      59.019  -1.127  29.073  0.00  0.00     0.202 C 
ATOM      9  O   UNL d   1      59.178  -0.459  28.628  0.00  0.00    -0.286 OA
BRANCH   8  10
ATOM     10  C   UNL d   1      59.497  -1.794  29.005  0.00  0.00     0.040 A 
ATOM     11  C   UNL d   1      60.218  -1.820  29.400  0.00  0.00     0.004 A 
ATOM     12  C   UNL d   1      60.702  -2.488  29.334  0.00  0.00     0.011 A 
ATOM     13  C   UNL d   1      60.464  -3.131  28.874  0.00  0.00     0.058 A 
ATOM     14  C   UNL d   1      59.741  -3.101  28.479  0.00  0.00     0.011 A 
ATOM     15 CL   UNL d   1      60.944  -3.790  28.810  0.00  0.00    -0.082 Cl
ATOM     16  C   UNL d   1      59.252  -2.439  28.539  0.00  0.00     0.004 A 
ENDBRANCH   8  10
ENDBRANCH   7   8
ENDBRANCH   6   7
ENDBRANCH   2   6
BRANCH   5  17
ATOM     17  C   UNL d   1      57.068   0.534  32.416  0.00  0.00     0.149 C 
BRANCH  17  18
ATOM     18  N   UNL d   1      56.317   0.534  32.746  0.00  0.00    -0.203 NA
ATOM     19  C   UNL d   1      56.228   0.588  33.564  0.00  0.00     0.281 C 
ATOM     20  O   UNL d   1      56.885   0.642  34.051  0.00  0.00    -0.265 OA
BRANCH  19  21
ATOM     21  C   UNL d   1      55.471   0.587  33.890  0.00  0.00     0.085 A 
ATOM     22  C   UNL d   1      55.389   0.613  34.700  0.00  0.00     0.145 A 
ATOM     23  F   UNL d   1      56.041   0.640  35.201  0.00  0.00    -0.204 F 
ATOM     24  C   UNL d   1      54.622   0.611  35.015  0.00  0.00     0.030 A 
ATOM     25  C   UNL d   1      53.947   0.584  34.533  0.00  0.00     0.002 A 
ATOM     26  C   UNL d   1      54.060   0.558  33.707  0.00  0.00     0.000 A 
ATOM     27  C   UNL d   1      54.827   0.560  33.393  0.00  0.00     0.007 A 
ENDBRANCH  19  21
ENDBRANCH  17  18
ENDBRANCH   5  17
TORSDOF 7
ENDMDL
MODEL 2
REMARK VINA RESULT:       0.6      8.315      9.887
REMARK  7 active torsions:
REMARK  status: ('A' for Active; 'I' for Inactive)
REMARK    1  A    between atoms: S_9  and  C_2 
REMARK    2  A    between atoms: C_15  and  C_5 
REMARK    3  A    between atoms: C_6  and  C_7 
REMARK       I    between atoms: C_7  and  N_8 
REMARK    4  A    between atoms: N_8  and  C_15 
REMARK    5  A    between atoms: C_14  and  S_9 
REMARK    6  A    between atoms: C_10  and  C_14 
REMARK    7  A    between atoms: C_12  and  C_10 
ROOT
ATOM      1  O   UNL d   1      58.700  -8.827  33.813  0.00  0.00    -0.262 OA
ATOM      2  C   UNL d   1      59.314  -9.193  34.232  0.00  0.00     0.236 A 
ATOM      3  N   UNL d   1      59.601  -9.803  33.771  0.00  0.00    -0.114 NA
ATOM      4  N   UNL d   1      59.171  -9.817  33.072  0.00  0.00    -0.119 NA
ATOM      5  C   UNL d   1      58.617  -9.217  33.098  0.00  0.00     0.224 A 
ENDROOT
BRANCH   2   6
ATOM      6  S   UNL d   1      59.581  -8.976  34.979  0.00  0.00    -0.037 SA
BRANCH   6   7
ATOM      7  C   UNL d   1      59.903  -8.238  35.101  0.00  0.00     0.081 C 
BRANCH   7   8
ATOM      8  C   UNL d   1      59.707  -7.798  35.778  0.00  0.00     0.202 C 
ATOM      9  O   UNL d   1      59.185  -8.106  36.328  0.00  0.00    -0.286 OA
BRANCH   8  10
ATOM     10  C   UNL d   1      60.038  -7.053  35.893  0.00  0.00     0.040 A 
ATOM     11  C   UNL d   1      60.793  -6.987  36.210  0.00  0.00     0.004 A 
ATOM     12  C   UNL d   1      61.130  -6.240  36.328  0.00  0.00     0.011 A 
ATOM     13  C   UNL d   1      60.711  -5.559  36.127  0.00  0.00     0.058 A 
ATOM     14  C   UNL d   1      59.953  -5.627  35.809  0.00  0.00     0.011 A 
ATOM     15 CL   UNL d   1      61.045  -4.822  36.244  0.00  0.00    -0.082 Cl
ATOM     16  C   UNL d   1      59.610  -6.369  35.688  0.00  0.00     0.004 A 
ENDBRANCH   8  10
ENDBRANCH   7   8
ENDBRANCH   6   7
ENDBRANCH   2   6
BRANCH   5  17
ATOM     17  C   UNL d   1      58.072  -9.036  32.509  0.00  0.00     0.149 C 
BRANCH  17  18
ATOM     18  N   UNL d   1      58.216  -9.251  31.731  0.00  0.00    -0.203 NA
ATOM     19  C   UNL d   1      57.624  -9.158  31.163  0.00  0.00     0.281 C 
ATOM     20  O   UNL d   1      56.893  -8.852  31.371  0.00  0.00    -0.265 OA
BRANCH  19  21
ATOM     21  C   UNL d   1      57.774  -9.376  30.382  0.00  0.00     0.085 A 
ATOM     22  C   UNL d   1      57.147  -9.479  29.872  0.00  0.00     0.145 A 
ATOM     23  F   UNL d   1      56.369  -9.371  30.116  0.00  0.00    -0.204 F 
ATOM     24  C   UNL d   1      57.311  -9.697  29.090  0.00  0.00     0.030 A 
ATOM     25  C   UNL d   1      58.087  -9.812  28.818  0.00  0.00     0.002 A 
ATOM     26  C   UNL d   1      58.710  -9.700  29.361  0.00  0.00     0.000 A 
ATOM     27  C   UNL d   1      58.545  -9.482  30.143  0.00  0.00     0.007 A 
ENDBRANCH  19  21
ENDBRANCH  17  18
ENDBRANCH   5  17
TORSDOF 7
ENDMDL
