MODEL 1
REMARK VINA RESULT:      58.3      0.000      0.000
REMARK  6 active torsions:
REMARK  status: ('A' for Active; 'I' for Inactive)
REMARK    1  A    between atoms: C_10  and  N_1 
REMARK    2  A    between atoms: S_8  and  C_6 
REMARK    3  A    between atoms: C_13  and  S_8 
REMARK    4  A    between atoms: C_11  and  C_13 
REMARK    5  A    between atoms: O_18  and  C_11 
REMARK    6  A    between atoms: C_23  and  O_18 
ROOT
ATOM      1  N   UNL d   1     -48.368  28.626  34.732  0.00  0.00    -0.193 N 
ATOM      2  N   UNL d   1     -48.118  27.851  34.803  0.00  0.00    -0.058 NA
ATOM      3  C   UNL d   1     -49.041  28.629  34.261  0.00  0.00     0.188 A 
ATOM      4  C   UNL d   1     -49.197  27.848  34.046  0.00  0.00     0.164 A 
ATOM      5  N   UNL d   1     -48.618  27.376  34.388  0.00  0.00    -0.125 NA
ATOM      6  C   UNL d   1     -49.836  27.669  33.574  0.00  0.00     0.135 A 
ATOM      7  N   UNL d   1     -49.524  29.231  34.004  0.00  0.00    -0.203 NA
ATOM      8  N   UNL d   1     -50.331  28.277  33.309  0.00  0.00    -0.216 NA
ATOM      9  C   UNL d   1     -50.175  29.058  33.524  0.00  0.00     0.201 A 
ENDROOT
BRANCH   6  10
ATOM     10  S   UNL d   1     -49.992  26.888  33.360  0.00  0.00    -0.061 SA
BRANCH  10  11
ATOM     11  C   UNL d   1     -50.702  26.541  33.555  0.00  0.00     0.094 C 
ATOM     12  C   UNL d   1     -51.342  27.015  33.749  0.00  0.00     0.013 C 
BRANCH  11  13
ATOM     13  C   UNL d   1     -50.769  25.718  33.557  0.00  0.00     0.306 C 
ATOM     14  O   UNL d   1     -50.105  25.243  33.625  0.00  0.00    -0.258 OA
BRANCH  13  15
ATOM     15  O   UNL d   1     -51.519  25.374  33.488  0.00  0.00    -0.271 OA
BRANCH  15  16
ATOM     16  C   UNL d   1     -51.589  24.556  33.404  0.00  0.00     0.126 C 
ATOM     17  C   UNL d   1     -52.331  24.196  33.481  0.00  0.00     0.029 C 
ENDBRANCH  15  16
ENDBRANCH  13  15
ENDBRANCH  11  13
ENDBRANCH  10  11
ENDBRANCH   6  10
BRANCH   1  18
ATOM     18  C   UNL d   1     -47.987  29.255  35.083  0.00  0.00     0.086 A 
ATOM     19  C   UNL d   1     -47.497  29.128  35.737  0.00  0.00     0.022 A 
ATOM     20  C   UNL d   1     -47.109  29.762  36.096  0.00  0.00     0.031 A 
ATOM     21  C   UNL d   1     -47.207  30.520  35.809  0.00  0.00     0.140 A 
ATOM     22  C   UNL d   1     -47.696  30.648  35.156  0.00  0.00     0.031 A 
ATOM     23  F   UNL d   1     -46.793  31.150  36.202  0.00  0.00    -0.204 F 
ATOM     24  C   UNL d   1     -48.086  30.024  34.792  0.00  0.00     0.022 A 
ENDBRANCH   1  18
TORSDOF 6
ENDMDL
MODEL 2
REMARK VINA RESULT:      59.0      0.862      1.046
REMARK  6 active torsions:
REMARK  status: ('A' for Active; 'I' for Inactive)
REMARK    1  A    between atoms: C_10  and  N_1 
REMARK    2  A    between atoms: S_8  and  C_6 
REMARK    3  A    between atoms: C_13  and  S_8 
REMARK    4  A    between atoms: C_11  and  C_13 
REMARK    5  A    between atoms: O_18  and  C_11 
REMARK    6  A    between atoms: C_23  and  O_18 
ROOT
ATOM      1  N   UNL d   1     -48.803  28.358  35.435  0.00  0.00    -0.193 N 
ATOM      2  N   UNL d   1     -49.140  27.883  36.008  0.00  0.00    -0.058 NA
ATOM      3  C   UNL d   1     -49.065  28.091  34.704  0.00  0.00     0.188 A 
ATOM      4  C   UNL d   1     -49.565  27.449  34.838  0.00  0.00     0.164 A 
ATOM      5  N   UNL d   1     -49.603  27.331  35.650  0.00  0.00    -0.125 NA
ATOM      6  C   UNL d   1     -49.916  27.061  34.214  0.00  0.00     0.135 A 
ATOM      7  N   UNL d   1     -48.915  28.345  33.945  0.00  0.00    -0.203 NA
ATOM      8  N   UNL d   1     -49.768  27.314  33.441  0.00  0.00    -0.216 NA
ATOM      9  C   UNL d   1     -49.268  27.956  33.306  0.00  0.00     0.201 A 
ENDROOT
BRANCH   6  10
ATOM     10  S   UNL d   1     -50.417  26.419  34.349  0.00  0.00    -0.061 SA
BRANCH  10  11
ATOM     11  C   UNL d   1     -50.536  25.861  33.769  0.00  0.00     0.094 C 
ATOM     12  C   UNL d   1     -49.888  25.508  33.411  0.00  0.00     0.013 C 
BRANCH  11  13
ATOM     13  C   UNL d   1     -51.304  25.657  33.548  0.00  0.00     0.306 C 
ATOM     14  O   UNL d   1     -51.839  26.231  33.310  0.00  0.00    -0.258 OA
BRANCH  13  15
ATOM     15  O   UNL d   1     -51.533  24.862  33.569  0.00  0.00    -0.271 OA
BRANCH  15  16
ATOM     16  C   UNL d   1     -52.332  24.663  33.518  0.00  0.00     0.126 C 
ATOM     17  C   UNL d   1     -52.563  23.868  33.548  0.00  0.00     0.029 C 
ENDBRANCH  15  16
ENDBRANCH  13  15
ENDBRANCH  11  13
ENDBRANCH  10  11
ENDBRANCH   6  10
BRANCH   1  18
ATOM     18  C   UNL d   1     -48.300  28.977  35.604  0.00  0.00     0.086 A 
ATOM     19  C   UNL d   1     -47.903  29.001  36.328  0.00  0.00     0.022 A 
ATOM     20  C   UNL d   1     -47.393  29.626  36.503  0.00  0.00     0.031 A 
ATOM     21  C   UNL d   1     -47.275  30.225  35.961  0.00  0.00     0.140 A 
ATOM     22  C   UNL d   1     -47.671  30.201  35.237  0.00  0.00     0.031 A 
ATOM     23  F   UNL d   1     -46.743  30.853  36.173  0.00  0.00    -0.204 F 
ATOM     24  C   UNL d   1     -48.181  29.584  35.053  0.00  0.00     0.022 A 
ENDBRANCH   1  18
TORSDOF 6
ENDMDL
MODEL 3
REMARK VINA RESULT:      60.5      1.010      1.277
REMARK  6 active torsions:
REMARK  status: ('A' for Active; 'I' for Inactive)
REMARK    1  A    between atoms: C_10  and  N_1 
REMARK    2  A    between atoms: S_8  and  C_6 
REMARK    3  A    between atoms: C_13  and  S_8 
REMARK    4  A    between atoms: C_11  and  C_13 
REMARK    5  A    between atoms: O_18  and  C_11 
REMARK    6  A    between atoms: C_23  and  O_18 
ROOT
ATOM      1  N   UNL d   1     -48.772  28.178  34.630  0.00  0.00    -0.193 N 
ATOM      2  N   UNL d   1     -48.681  28.093  33.823  0.00  0.00    -0.058 NA
ATOM      3  C   UNL d   1     -49.335  27.633  34.877  0.00  0.00     0.188 A 
ATOM      4  C   UNL d   1     -49.584  27.216  34.210  0.00  0.00     0.164 A 
ATOM      5  N   UNL d   1     -49.171  27.510  33.564  0.00  0.00    -0.125 NA
ATOM      6  C   UNL d   1     -50.146  26.630  34.277  0.00  0.00     0.135 A 
ATOM      7  N   UNL d   1     -49.647  27.465  35.609  0.00  0.00    -0.203 NA
ATOM      8  N   UNL d   1     -50.468  26.454  35.018  0.00  0.00    -0.216 NA
ATOM      9  C   UNL d   1     -50.218  26.872  35.685  0.00  0.00     0.201 A 
ENDROOT
BRANCH   6  10
ATOM     10  S   UNL d   1     -50.396  26.212  33.610  0.00  0.00    -0.061 SA
BRANCH  10  11
ATOM     11  C   UNL d   1     -51.177  26.003  33.524  0.00  0.00     0.094 C 
ATOM     12  C   UNL d   1     -51.742  26.589  33.421  0.00  0.00     0.013 C 
BRANCH  11  13
ATOM     13  C   UNL d   1     -51.393  25.207  33.541  0.00  0.00     0.306 C 
ATOM     14  O   UNL d   1     -50.865  24.624  33.307  0.00  0.00    -0.258 OA
BRANCH  13  15
ATOM     15  O   UNL d   1     -52.152  24.999  33.797  0.00  0.00    -0.271 OA
BRANCH  15  16
ATOM     16  C   UNL d   1     -52.643  24.553  33.307  0.00  0.00     0.126 C 
ATOM     17  C   UNL d   1     -52.675  23.730  33.392  0.00  0.00     0.029 C 
ENDBRANCH  15  16
ENDBRANCH  13  15
ENDBRANCH  11  13
ENDBRANCH  10  11
ENDBRANCH   6  10
BRANCH   1  18
ATOM     18  C   UNL d   1     -48.358  28.722  35.074  0.00  0.00     0.086 A 
ATOM     19  C   UNL d   1     -48.502  28.789  35.885  0.00  0.00     0.022 A 
ATOM     20  C   UNL d   1     -48.085  29.339  36.338  0.00  0.00     0.031 A 
ATOM     21  C   UNL d   1     -47.526  29.820  35.989  0.00  0.00     0.140 A 
ATOM     22  C   UNL d   1     -47.381  29.754  35.179  0.00  0.00     0.031 A 
ATOM     23  F   UNL d   1     -47.114  30.375  36.485  0.00  0.00    -0.204 F 
ATOM     24  C   UNL d   1     -47.791  29.211  34.719  0.00  0.00     0.022 A 
ENDBRANCH   1  18
TORSDOF 6
ENDMDL
