MODEL 1
REMARK VINA RESULT:      55.5      0.000      0.000
REMARK  4 active torsions:
REMARK  status: ('A' for Active; 'I' for Inactive)
REMARK    1  A    between atoms: C_5  and  N_1 
REMARK    2  A    between atoms: C_7  and  C_3 
REMARK    3  A    between atoms: C_8  and  C_4 
REMARK    4  A    between atoms: N_10  and  C_5 
ROOT
ATOM      1  N   UNL d   1     -50.406  25.219  33.621  0.00  0.00    -0.203 N 
ATOM      2  N   UNL d   1     -50.013  25.948  33.612  0.00  0.00    -0.163 NA
ATOM      3  C   UNL d   1     -50.545  26.547  33.521  0.00  0.00     0.103 A 
ATOM      4  C   UNL d   1     -51.223  25.364  33.531  0.00  0.00     0.087 A 
ATOM      5  C   UNL d   1     -51.316  26.184  33.469  0.00  0.00     0.040 A 
ENDROOT
BRANCH   3   6
ATOM      6  C   UNL d   1     -50.352  27.357  33.487  0.00  0.00     0.019 A 
ATOM      7  C   UNL d   1     -50.933  27.923  33.340  0.00  0.00     0.002 A 
ATOM      8  C   UNL d   1     -50.721  28.731  33.310  0.00  0.00     0.000 A 
ATOM      9  C   UNL d   1     -49.944  28.955  33.424  0.00  0.00     0.000 A 
ATOM     10  C   UNL d   1     -49.376  28.375  33.570  0.00  0.00     0.000 A 
ATOM     11  C   UNL d   1     -49.743  29.926  33.378  0.00  0.00     0.000 C 
ATOM     12  C   UNL d   1     -49.574  27.590  33.601  0.00  0.00     0.002 A 
ENDBRANCH   3   6
BRANCH   1  13
ATOM     13  C   UNL d   1     -50.052  24.459  33.706  0.00  0.00     0.222 C 
ATOM     14  S   UNL d   1     -50.406  23.796  33.317  0.00  0.00    -0.037 SA
BRANCH  13  15
ATOM     15  N   UNL d   1     -49.353  24.346  34.169  0.00  0.00    -0.214 NA
ATOM     16  C   UNL d   1     -48.786  23.784  33.935  0.00  0.00     0.122 C 
ENDBRANCH  13  15
ENDBRANCH   1  13
BRANCH   4  17
ATOM     17  C   UNL d   1     -51.846  24.820  33.506  0.00  0.00     0.018 A 
ATOM     18  C   UNL d   1     -52.618  25.056  33.652  0.00  0.00     0.002 A 
ATOM     19  C   UNL d   1     -53.237  24.513  33.627  0.00  0.00     0.007 A 
ATOM     20  C   UNL d   1     -53.079  23.726  33.452  0.00  0.00     0.035 A 
ATOM     21  C   UNL d   1     -52.328  23.483  33.306  0.00  0.00     0.007 A 
ATOM     22 BR   UNL d   1     -53.724  23.189  33.430  0.00  0.00    -0.049 Br
ATOM     23  C   UNL d   1     -51.705  24.026  33.332  0.00  0.00     0.002 A 
ENDBRANCH   4  17
TORSDOF 4
ENDMDL
