MODEL 1
REMARK VINA RESULT:      -6.2      0.000      0.000
REMARK  3 active torsions:
REMARK  status: ('A' for Active; 'I' for Inactive)
REMARK    1  A    between atoms: C_10  and  C_4 
REMARK    2  A    between atoms: S_9  and  C_10 
REMARK    3  A    between atoms: C_11  and  S_9 
ROOT
ATOM      1  C   UNL d   1     -48.160  14.015  22.673  0.00  0.00     0.056 C 
ENDROOT
BRANCH   1   2
ATOM      2  S   UNL d   1     -47.572  13.875  23.206  0.00  0.00    -0.085 SA
BRANCH   2   3
ATOM      3  C   UNL d   1     -46.859  13.547  22.953  0.00  0.00     0.030 A 
ATOM      4  C   UNL d   1     -46.331  14.002  22.515  0.00  0.00     0.007 A 
ATOM      5  C   UNL d   1     -45.621  13.661  22.269  0.00  0.00     0.012 A 
ATOM      6  C   UNL d   1     -45.435  12.882  22.451  0.00  0.00     0.058 A 
ATOM      7  C   UNL d   1     -45.970  12.435  22.890  0.00  0.00     0.012 A 
ATOM      8 CL   UNL d   1     -44.718  12.552  22.197  0.00  0.00    -0.082 Cl
ATOM      9  C   UNL d   1     -46.679  12.761  23.142  0.00  0.00     0.007 A 
ENDBRANCH   2   3
ENDBRANCH   1   2
BRANCH   1  10
ATOM     10  C   UNL d   1     -48.848  14.368  22.916  0.00  0.00     0.107 A 
ATOM     11  N   UNL d   1     -49.549  13.966  23.156  0.00  0.00    -0.220 NA
ATOM     12  C   UNL d   1     -50.129  14.553  23.364  0.00  0.00     0.180 A 
ATOM     13  N   UNL d   1     -49.776  15.322  23.248  0.00  0.00    -0.282 N 
ATOM     14  S   UNL d   1     -50.925  14.671  23.642  0.00  0.00    -0.048 SA
ATOM     15  C   UNL d   1     -48.984  15.195  22.971  0.00  0.00     0.102 A 
ATOM     16  C   UNL d   1     -50.357  15.908  23.456  0.00  0.00     0.089 A 
ATOM     17  C   UNL d   1     -51.064  15.504  23.698  0.00  0.00     0.057 A 
ENDBRANCH   1  10
TORSDOF 3
ENDMDL
MODEL 2
REMARK VINA RESULT:      -5.5      2.289      4.533
REMARK  3 active torsions:
REMARK  status: ('A' for Active; 'I' for Inactive)
REMARK    1  A    between atoms: C_10  and  C_4 
REMARK    2  A    between atoms: S_9  and  C_10 
REMARK    3  A    between atoms: C_11  and  S_9 
ROOT
ATOM      1  C   UNL d   1     -47.648  14.102  23.154  0.00  0.00     0.056 C 
ENDROOT
BRANCH   1   2
ATOM      2  S   UNL d   1     -48.339  13.941  22.771  0.00  0.00    -0.085 SA
BRANCH   2   3
ATOM      3  C   UNL d   1     -49.018  14.373  22.953  0.00  0.00     0.030 A 
ATOM      4  C   UNL d   1     -49.048  15.179  22.789  0.00  0.00     0.007 A 
ATOM      5  C   UNL d   1     -49.733  15.598  22.976  0.00  0.00     0.012 A 
ATOM      6  C   UNL d   1     -50.381  15.228  23.320  0.00  0.00     0.058 A 
ATOM      7  C   UNL d   1     -50.341  14.421  23.480  0.00  0.00     0.012 A 
ATOM      8 CL   UNL d   1     -51.063  15.662  23.502  0.00  0.00    -0.082 Cl
ATOM      9  C   UNL d   1     -49.666  13.992  23.300  0.00  0.00     0.007 A 
ENDBRANCH   2   3
ENDBRANCH   1   2
BRANCH   1  10
ATOM     10  C   UNL d   1     -46.986  13.664  22.991  0.00  0.00     0.107 A 
ATOM     11  N   UNL d   1     -46.346  13.904  22.499  0.00  0.00    -0.220 NA
ATOM     12  C   UNL d   1     -45.775  13.274  22.485  0.00  0.00     0.180 A 
ATOM     13  N   UNL d   1     -46.072  12.642  22.976  0.00  0.00    -0.282 N 
ATOM     14  S   UNL d   1     -45.022  13.028  22.172  0.00  0.00    -0.048 SA
ATOM     15  C   UNL d   1     -46.821  12.894  23.284  0.00  0.00     0.102 A 
ATOM     16  C   UNL d   1     -45.500  12.011  22.963  0.00  0.00     0.089 A 
ATOM     17  C   UNL d   1     -44.854  12.253  22.466  0.00  0.00     0.057 A 
ENDBRANCH   1  10
TORSDOF 3
ENDMDL
MODEL 3
REMARK VINA RESULT:      -5.5      1.509      1.989
REMARK  3 active torsions:
REMARK  status: ('A' for Active; 'I' for Inactive)
REMARK    1  A    between atoms: C_10  and  C_4 
REMARK    2  A    between atoms: S_9  and  C_10 
REMARK    3  A    between atoms: C_11  and  S_9 
ROOT
ATOM      1  C   UNL d   1     -47.885  12.834  22.494  0.00  0.00     0.056 C 
ENDROOT
BRANCH   1   2
ATOM      2  S   UNL d   1     -47.272  12.937  23.007  0.00  0.00    -0.085 SA
BRANCH   2   3
ATOM      3  C   UNL d   1     -46.497  12.937  22.726  0.00  0.00     0.030 A 
ATOM      4  C   UNL d   1     -46.040  12.254  22.781  0.00  0.00     0.007 A 
ATOM      5  C   UNL d   1     -45.267  12.269  22.495  0.00  0.00     0.012 A 
ATOM      6  C   UNL d   1     -44.947  12.947  22.159  0.00  0.00     0.058 A 
ATOM      7  C   UNL d   1     -45.413  13.625  22.108  0.00  0.00     0.012 A 
ATOM      8 CL   UNL d   1     -44.168  12.947  21.876  0.00  0.00    -0.082 Cl
ATOM      9  C   UNL d   1     -46.183  13.625  22.388  0.00  0.00     0.007 A 
ENDBRANCH   2   3
ENDBRANCH   1   2
BRANCH   1  10
ATOM     10  C   UNL d   1     -48.638  12.743  22.780  0.00  0.00     0.107 A 
ATOM     11  N   UNL d   1     -49.165  13.367  22.986  0.00  0.00    -0.220 NA
ATOM     12  C   UNL d   1     -49.891  13.018  23.259  0.00  0.00     0.180 A 
ATOM     13  N   UNL d   1     -49.804  12.169  23.217  0.00  0.00    -0.282 N 
ATOM     14  S   UNL d   1     -50.671  13.185  23.557  0.00  0.00    -0.048 SA
ATOM     15  C   UNL d   1     -49.026  12.011  22.919  0.00  0.00     0.102 A 
ATOM     16  C   UNL d   1     -50.531  11.819  23.489  0.00  0.00     0.089 A 
ATOM     17  C   UNL d   1     -51.064  12.449  23.698  0.00  0.00     0.057 A 
ENDBRANCH   1  10
TORSDOF 3
ENDMDL
MODEL 4
REMARK VINA RESULT:      -4.9      8.947      9.683
REMARK  3 active torsions:
REMARK  status: ('A' for Active; 'I' for Inactive)
REMARK    1  A    between atoms: C_10  and  C_4 
REMARK    2  A    between atoms: S_9  and  C_10 
REMARK    3  A    between atoms: C_11  and  S_9 
ROOT
ATOM      1  C   UNL d   1     -39.565  14.820  19.822  0.00  0.00     0.056 C 
ENDROOT
BRANCH   1   2
ATOM      2  S   UNL d   1     -40.224  14.540  19.455  0.00  0.00    -0.085 SA
BRANCH   2   3
ATOM      3  C   UNL d   1     -40.454  14.856  18.728  0.00  0.00     0.030 A 
ATOM      4  C   UNL d   1     -40.761  15.619  18.691  0.00  0.00     0.007 A 
ATOM      5  C   UNL d   1     -40.986  15.922  17.957  0.00  0.00     0.012 A 
ATOM      6  C   UNL d   1     -40.909  15.479  17.270  0.00  0.00     0.058 A 
ATOM      7  C   UNL d   1     -40.601  14.716  17.318  0.00  0.00     0.012 A 
ATOM      8 CL   UNL d   1     -41.140  15.796  16.539  0.00  0.00    -0.082 Cl
ATOM      9  C   UNL d   1     -40.373  14.403  18.040  0.00  0.00     0.007 A 
ENDBRANCH   2   3
ENDBRANCH   1   2
BRANCH   1  10
ATOM     10  C   UNL d   1     -39.280  14.443  20.482  0.00  0.00     0.107 A 
ATOM     11  N   UNL d   1     -38.549  14.028  20.535  0.00  0.00    -0.220 NA
ATOM     12  C   UNL d   1     -38.477  13.723  21.325  0.00  0.00     0.180 A 
ATOM     13  N   UNL d   1     -39.175  13.956  21.759  0.00  0.00    -0.282 N 
ATOM     14  S   UNL d   1     -37.981  13.275  21.853  0.00  0.00    -0.048 SA
ATOM     15  C   UNL d   1     -39.664  14.400  21.228  0.00  0.00     0.102 A 
ATOM     16  C   UNL d   1     -39.103  13.650  22.551  0.00  0.00     0.089 A 
ATOM     17  C   UNL d   1     -38.365  13.231  22.604  0.00  0.00     0.057 A 
ENDBRANCH   1  10
TORSDOF 3
ENDMDL
MODEL 5
REMARK VINA RESULT:      -4.8      9.053      9.443
REMARK  3 active torsions:
REMARK  status: ('A' for Active; 'I' for Inactive)
REMARK    1  A    between atoms: C_10  and  C_4 
REMARK    2  A    between atoms: S_9  and  C_10 
REMARK    3  A    between atoms: C_11  and  S_9 
ROOT
ATOM      1  C   UNL d   1     -39.837  14.146  19.746  0.00  0.00     0.056 C 
ENDROOT
BRANCH   1   2
ATOM      2  S   UNL d   1     -39.275  14.499  20.201  0.00  0.00    -0.085 SA
BRANCH   2   3
ATOM      3  C   UNL d   1     -39.000  14.121  20.881  0.00  0.00     0.030 A 
ATOM      4  C   UNL d   1     -38.295  13.697  20.858  0.00  0.00     0.007 A 
ATOM      5  C   UNL d   1     -38.032  13.323  21.545  0.00  0.00     0.012 A 
ATOM      6  C   UNL d   1     -38.459  13.367  22.245  0.00  0.00     0.058 A 
ATOM      7  C   UNL d   1     -39.164  13.793  22.258  0.00  0.00     0.012 A 
ATOM      8 CL   UNL d   1     -38.183  12.986  22.928  0.00  0.00    -0.082 Cl
ATOM      9  C   UNL d   1     -39.437  14.170  21.582  0.00  0.00     0.007 A 
ENDBRANCH   2   3
ENDBRANCH   1   2
BRANCH   1  10
ATOM     10  C   UNL d   1     -40.072  14.494  19.053  0.00  0.00     0.107 A 
ATOM     11  N   UNL d   1     -40.490  15.223  18.985  0.00  0.00    -0.220 NA
ATOM     12  C   UNL d   1     -40.620  15.375  18.158  0.00  0.00     0.180 A 
ATOM     13  N   UNL d   1     -40.276  14.730  17.717  0.00  0.00    -0.282 N 
ATOM     14  S   UNL d   1     -40.960  15.920  17.599  0.00  0.00    -0.048 SA
ATOM     15  C   UNL d   1     -39.940  14.192  18.280  0.00  0.00     0.102 A 
ATOM     16  C   UNL d   1     -40.406  14.882  16.889  0.00  0.00     0.089 A 
ATOM     17  C   UNL d   1     -40.828  15.617  16.821  0.00  0.00     0.057 A 
ENDBRANCH   1  10
TORSDOF 3
ENDMDL
MODEL 6
REMARK VINA RESULT:      -4.7      3.036      5.264
REMARK  3 active torsions:
REMARK  status: ('A' for Active; 'I' for Inactive)
REMARK    1  A    between atoms: C_10  and  C_4 
REMARK    2  A    between atoms: S_9  and  C_10 
REMARK    3  A    between atoms: C_11  and  S_9 
ROOT
ATOM      1  C   UNL d   1     -46.819  11.851  23.613  0.00  0.00     0.056 C 
ENDROOT
BRANCH   1   2
ATOM      2  S   UNL d   1     -47.337  11.834  22.996  0.00  0.00    -0.085 SA
BRANCH   2   3
ATOM      3  C   UNL d   1     -48.067  12.213  23.064  0.00  0.00     0.030 A 
ATOM      4  C   UNL d   1     -48.733  11.782  23.285  0.00  0.00     0.007 A 
ATOM      5  C   UNL d   1     -49.456  12.174  23.349  0.00  0.00     0.012 A 
ATOM      6  C   UNL d   1     -49.522  12.979  23.197  0.00  0.00     0.058 A 
ATOM      7  C   UNL d   1     -48.850  13.400  22.976  0.00  0.00     0.012 A 
ATOM      8 CL   UNL d   1     -50.256  13.359  23.265  0.00  0.00    -0.082 Cl
ATOM      9  C   UNL d   1     -48.124  13.024  22.909  0.00  0.00     0.007 A 
ENDBRANCH   2   3
ENDBRANCH   1   2
BRANCH   1  10
ATOM     10  C   UNL d   1     -46.106  11.469  23.550  0.00  0.00     0.107 A 
ATOM     11  N   UNL d   1     -45.376  11.824  23.326  0.00  0.00    -0.220 NA
ATOM     12  C   UNL d   1     -44.777  11.220  23.334  0.00  0.00     0.180 A 
ATOM     13  N   UNL d   1     -45.149  10.487  23.567  0.00  0.00    -0.282 N 
ATOM     14  S   UNL d   1     -43.951  11.061  23.201  0.00  0.00    -0.048 SA
ATOM     15  C   UNL d   1     -45.970  10.653  23.698  0.00  0.00     0.102 A 
ATOM     16  C   UNL d   1     -44.550   9.882  23.576  0.00  0.00     0.089 A 
ATOM     17  C   UNL d   1     -43.812  10.240  23.349  0.00  0.00     0.057 A 
ENDBRANCH   1  10
TORSDOF 3
ENDMDL
MODEL 7
REMARK VINA RESULT:      -4.6      8.511     10.043
REMARK  3 active torsions:
REMARK  status: ('A' for Active; 'I' for Inactive)
REMARK    1  A    between atoms: C_10  and  C_4 
REMARK    2  A    between atoms: S_9  and  C_10 
REMARK    3  A    between atoms: C_11  and  S_9 
ROOT
ATOM      1  C   UNL d   1     -39.249  15.141  18.417  0.00  0.00     0.056 C 
ENDROOT
BRANCH   1   2
ATOM      2  S   UNL d   1     -39.375  14.410  18.104  0.00  0.00    -0.085 SA
BRANCH   2   3
ATOM      3  C   UNL d   1     -39.018  14.204  17.389  0.00  0.00     0.030 A 
ATOM      4  C   UNL d   1     -39.096  14.697  16.734  0.00  0.00     0.007 A 
ATOM      5  C   UNL d   1     -38.734  14.478  16.026  0.00  0.00     0.012 A 
ATOM      6  C   UNL d   1     -38.301  13.782  15.964  0.00  0.00     0.058 A 
ATOM      7  C   UNL d   1     -38.229  13.296  16.626  0.00  0.00     0.012 A 
ATOM      8 CL   UNL d   1     -37.942  13.575  15.246  0.00  0.00    -0.082 Cl
ATOM      9  C   UNL d   1     -38.584  13.501  17.336  0.00  0.00     0.007 A 
ENDBRANCH   2   3
ENDBRANCH   1   2
BRANCH   1  10
ATOM     10  C   UNL d   1     -39.557  15.326  19.144  0.00  0.00     0.107 A 
ATOM     11  N   UNL d   1     -40.367  15.491  19.309  0.00  0.00    -0.220 NA
ATOM     12  C   UNL d   1     -40.437  15.656  20.140  0.00  0.00     0.180 A 
ATOM     13  N   UNL d   1     -39.659  15.590  20.486  0.00  0.00    -0.282 N 
ATOM     14  S   UNL d   1     -40.981  15.861  20.762  0.00  0.00    -0.048 SA
ATOM     15  C   UNL d   1     -39.123  15.386  19.861  0.00  0.00     0.102 A 
ATOM     16  C   UNL d   1     -39.729  15.755  21.319  0.00  0.00     0.089 A 
ATOM     17  C   UNL d   1     -40.547  15.921  21.485  0.00  0.00     0.057 A 
ENDBRANCH   1  10
TORSDOF 3
ENDMDL
MODEL 8
REMARK VINA RESULT:      -4.4      8.596     10.548
REMARK  3 active torsions:
REMARK  status: ('A' for Active; 'I' for Inactive)
REMARK    1  A    between atoms: C_10  and  C_4 
REMARK    2  A    between atoms: S_9  and  C_10 
REMARK    3  A    between atoms: C_11  and  S_9 
ROOT
ATOM      1  C   UNL d   1     -39.889  14.691  18.021  0.00  0.00     0.056 C 
ENDROOT
BRANCH   1   2
ATOM      2  S   UNL d   1     -39.655  14.531  18.775  0.00  0.00    -0.085 SA
BRANCH   2   3
ATOM      3  C   UNL d   1     -40.095  14.820  19.410  0.00  0.00     0.030 A 
ATOM      4  C   UNL d   1     -40.512  14.297  19.891  0.00  0.00     0.007 A 
ATOM      5  C   UNL d   1     -40.948  14.600  20.523  0.00  0.00     0.012 A 
ATOM      6  C   UNL d   1     -40.973  15.406  20.679  0.00  0.00     0.058 A 
ATOM      7  C   UNL d   1     -40.552  15.920  20.191  0.00  0.00     0.012 A 
ATOM      8 CL   UNL d   1     -41.415  15.696  21.317  0.00  0.00    -0.082 Cl
ATOM      9  C   UNL d   1     -40.115  15.634  19.560  0.00  0.00     0.007 A 
ENDBRANCH   2   3
ENDBRANCH   1   2
BRANCH   1  10
ATOM     10  C   UNL d   1     -39.427  14.456  17.398  0.00  0.00     0.107 A 
ATOM     11  N   UNL d   1     -38.905  13.795  17.395  0.00  0.00    -0.220 NA
ATOM     12  C   UNL d   1     -38.535  13.756  16.629  0.00  0.00     0.180 A 
ATOM     13  N   UNL d   1     -38.838  14.403  16.161  0.00  0.00    -0.282 N 
ATOM     14  S   UNL d   1     -37.981  13.323  16.148  0.00  0.00    -0.048 SA
ATOM     15  C   UNL d   1     -39.388  14.828  16.646  0.00  0.00     0.102 A 
ATOM     16  C   UNL d   1     -38.468  14.364  15.395  0.00  0.00     0.089 A 
ATOM     17  C   UNL d   1     -37.940  13.697  15.391  0.00  0.00     0.057 A 
ENDBRANCH   1  10
TORSDOF 3
ENDMDL
