MODEL 1
REMARK VINA RESULT:      57.5      0.000      0.000
REMARK  5 active torsions:
REMARK  status: ('A' for Active; 'I' for Inactive)
REMARK    1  A    between atoms: N_5  and  C_1 
REMARK    2  A    between atoms: C_8  and  C_2 
REMARK       I    between atoms: C_7  and  N_5 
REMARK    3  A    between atoms: C_9  and  C_7 
REMARK    4  A    between atoms: O_16  and  C_8 
REMARK    5  A    between atoms: C_20  and  O_16 
ROOT
ATOM      1  C   UNL d   1      57.842  49.554  52.485  0.00  0.00     0.119 A 
ATOM      2  C   UNL d   1      58.469  49.523  51.939  0.00  0.00     0.088 A 
ATOM      3  S   UNL d   1      57.134  49.620  52.079  0.00  0.00    -0.068 SA
ATOM      4  C   UNL d   1      58.131  49.570  51.161  0.00  0.00     0.013 A 
ATOM      5  C   UNL d   1      57.306  49.630  51.269  0.00  0.00     0.031 A 
ATOM      6  C   UNL d   1      58.274  49.583  50.350  0.00  0.00     0.001 A 
ATOM      7  C   UNL d   1      56.945  49.679  50.498  0.00  0.00     0.006 A 
ATOM      8  C   UNL d   1      57.556  49.649  49.957  0.00  0.00     0.001 A 
ENDROOT
BRANCH   1   9
ATOM      9  N   UNL d   1      57.909  49.525  53.342  0.00  0.00    -0.201 NA
ATOM     10  C   UNL d   1      57.216  49.502  53.811  0.00  0.00     0.286 C 
ATOM     11  O   UNL d   1      56.465  49.507  53.490  0.00  0.00    -0.265 OA
BRANCH  10  12
ATOM     12  C   UNL d   1      57.277  49.473  54.651  0.00  0.00     0.087 A 
ATOM     13  S   UNL d   1      56.653  49.158  55.058  0.00  0.00    -0.082 SA
ATOM     14  C   UNL d   1      56.852  49.193  55.882  0.00  0.00     0.036 A 
ATOM     15  C   UNL d   1      57.582  49.526  55.942  0.00  0.00     0.008 A 
ATOM     16  C   UNL d   1      57.847  49.699  55.186  0.00  0.00     0.012 A 
ENDBRANCH  10  12
ENDBRANCH   1   9
BRANCH   2  17
ATOM     17  C   UNL d   1      59.276  49.457  52.105  0.00  0.00     0.302 C 
ATOM     18  O   UNL d   1      59.542  49.149  52.835  0.00  0.00    -0.259 OA
BRANCH  17  19
ATOM     19  O   UNL d   1      59.842  49.702  51.531  0.00  0.00    -0.271 OA
BRANCH  19  20
ATOM     20  C   UNL d   1      60.292  49.121  51.151  0.00  0.00     0.126 C 
ATOM     21  C   UNL d   1      61.055  48.971  51.393  0.00  0.00     0.029 C 
ENDBRANCH  19  20
ENDBRANCH  17  19
ENDBRANCH   2  17
TORSDOF 5
ENDMDL
