MODEL 1
REMARK VINA RESULT:      -7.1      0.000      0.000
REMARK  5 active torsions:
REMARK  status: ('A' for Active; 'I' for Inactive)
REMARK    1  A    between atoms: N_8  and  C_1 
REMARK    2  A    between atoms: C_3  and  S_13 
REMARK       I    between atoms: C_12  and  N_8 
REMARK    3  A    between atoms: C_16  and  C_9 
REMARK    4  A    between atoms: C_15  and  C_12 
REMARK    5  A    between atoms: S_13  and  C_15 
ROOT
ATOM      1  C   UNL d   1     -47.468  12.868  23.042  0.00  0.00     0.100 C 
ENDROOT
BRANCH   1   2
ATOM      2  S   UNL d   1     -47.603  13.542  22.582  0.00  0.00    -0.056 SA
BRANCH   2   3
ATOM      3  C   UNL d   1     -48.341  13.900  22.608  0.00  0.00     0.141 A 
ATOM      4  N   UNL d   1     -48.579  14.514  23.110  0.00  0.00    -0.232 NA
ATOM      5  C   UNL d   1     -49.364  14.703  22.948  0.00  0.00     0.088 A 
ATOM      6  C   UNL d   1     -49.890  15.260  23.265  0.00  0.00     0.020 A 
ATOM      7  C   UNL d   1     -49.625  14.200  22.333  0.00  0.00     0.049 A 
ATOM      8  C   UNL d   1     -50.661  15.316  22.976  0.00  0.00     0.002 A 
ATOM      9  C   UNL d   1     -50.910  14.819  22.374  0.00  0.00     0.001 A 
ATOM     10  C   UNL d   1     -50.388  14.254  22.047  0.00  0.00     0.008 A 
ATOM     11  S   UNL d   1     -48.989  13.706  22.127  0.00  0.00    -0.060 SA
ENDBRANCH   2   3
ENDBRANCH   1   2
BRANCH   1  12
ATOM     12  C   UNL d   1     -46.729  12.506  23.021  0.00  0.00     0.288 C 
ATOM     13  N   UNL d   1     -46.573  11.859  23.507  0.00  0.00    -0.181 NA
ATOM     14  O   UNL d   1     -46.143  12.784  22.518  0.00  0.00    -0.265 OA
BRANCH  13  15
ATOM     15  C   UNL d   1     -45.840  11.493  23.492  0.00  0.00     0.219 A 
ATOM     16  S   UNL d   1     -45.685  10.705  23.665  0.00  0.00    -0.026 SA
ATOM     17  C   UNL d   1     -44.874  10.575  23.580  0.00  0.00     0.135 A 
ATOM     18  N   UNL d   1     -44.529  11.292  23.352  0.00  0.00    -0.139 NA
ATOM     19  N   UNL d   1     -45.124  11.858  23.298  0.00  0.00    -0.121 NA
BRANCH  17  20
ATOM     20  C   UNL d   1     -44.475   9.865  23.698  0.00  0.00     0.028 C 
ATOM     21  C   UNL d   1     -43.655   9.840  23.586  0.00  0.00     0.002 C 
ENDBRANCH  17  20
ENDBRANCH  13  15
ENDBRANCH   1  12
TORSDOF 5
ENDMDL
MODEL 2
REMARK VINA RESULT:      -5.8      0.965      5.632
REMARK  5 active torsions:
REMARK  status: ('A' for Active; 'I' for Inactive)
REMARK    1  A    between atoms: N_8  and  C_1 
REMARK    2  A    between atoms: C_3  and  S_13 
REMARK       I    between atoms: C_12  and  N_8 
REMARK    3  A    between atoms: C_16  and  C_9 
REMARK    4  A    between atoms: C_15  and  C_12 
REMARK    5  A    between atoms: S_13  and  C_15 
ROOT
ATOM      1  C   UNL d   1     -46.892  12.597  23.183  0.00  0.00     0.100 C 
ENDROOT
BRANCH   1   2
ATOM      2  S   UNL d   1     -46.824  11.860  23.551  0.00  0.00    -0.056 SA
BRANCH   2   3
ATOM      3  C   UNL d   1     -46.105  11.466  23.522  0.00  0.00     0.141 A 
ATOM      4  N   UNL d   1     -45.369  11.785  23.316  0.00  0.00    -0.232 NA
ATOM      5  C   UNL d   1     -44.799  11.193  23.361  0.00  0.00     0.088 A 
ATOM      6  C   UNL d   1     -43.981  11.181  23.222  0.00  0.00     0.020 A 
ATOM      7  C   UNL d   1     -45.182  10.488  23.598  0.00  0.00     0.049 A 
ATOM      8  C   UNL d   1     -43.552  10.483  23.316  0.00  0.00     0.002 A 
ATOM      9  C   UNL d   1     -43.934   9.796  23.549  0.00  0.00     0.001 A 
ATOM     10  C   UNL d   1     -44.758   9.796  23.692  0.00  0.00     0.008 A 
ATOM     11  S   UNL d   1     -45.988  10.663  23.696  0.00  0.00    -0.060 SA
ENDBRANCH   2   3
ENDBRANCH   1   2
BRANCH   1  12
ATOM     12  C   UNL d   1     -47.625  12.972  23.162  0.00  0.00     0.288 C 
ATOM     13  N   UNL d   1     -47.749  13.605  22.649  0.00  0.00    -0.181 NA
ATOM     14  O   UNL d   1     -48.236  12.720  23.648  0.00  0.00    -0.265 OA
BRANCH  13  15
ATOM     15  C   UNL d   1     -48.476  13.984  22.622  0.00  0.00     0.219 A 
ATOM     16  S   UNL d   1     -48.717  14.610  23.096  0.00  0.00    -0.026 SA
ATOM     17  C   UNL d   1     -49.486  14.816  22.881  0.00  0.00     0.135 A 
ATOM     18  N   UNL d   1     -49.719  14.311  22.268  0.00  0.00    -0.139 NA
ATOM     19  N   UNL d   1     -49.095  13.798  22.109  0.00  0.00    -0.121 NA
BRANCH  17  20
ATOM     20  C   UNL d   1     -49.945  15.415  23.211  0.00  0.00     0.028 C 
ATOM     21  C   UNL d   1     -50.662  15.219  23.577  0.00  0.00     0.002 C 
ENDBRANCH  17  20
ENDBRANCH  13  15
ENDBRANCH   1  12
TORSDOF 5
ENDMDL
MODEL 3
REMARK VINA RESULT:      -4.3      4.776      6.705
REMARK  5 active torsions:
REMARK  status: ('A' for Active; 'I' for Inactive)
REMARK    1  A    between atoms: N_8  and  C_1 
REMARK    2  A    between atoms: C_3  and  S_13 
REMARK       I    between atoms: C_12  and  N_8 
REMARK    3  A    between atoms: C_16  and  C_9 
REMARK    4  A    between atoms: C_15  and  C_12 
REMARK    5  A    between atoms: S_13  and  C_15 
ROOT
ATOM      1  C   UNL d   1     -42.959  13.208  21.013  0.00  0.00     0.100 C 
ENDROOT
BRANCH   1   2
ATOM      2  S   UNL d   1     -42.174  13.285  21.260  0.00  0.00    -0.056 SA
BRANCH   2   3
ATOM      3  C   UNL d   1     -41.659  13.741  20.813  0.00  0.00     0.141 A 
ATOM      4  N   UNL d   1     -41.465  13.637  20.015  0.00  0.00    -0.232 NA
ATOM      5  C   UNL d   1     -40.928  14.219  19.791  0.00  0.00     0.088 A 
ATOM      6  C   UNL d   1     -40.544  14.392  19.077  0.00  0.00     0.020 A 
ATOM      7  C   UNL d   1     -40.779  14.698  20.460  0.00  0.00     0.049 A 
ATOM      8  C   UNL d   1     -40.023  15.030  19.028  0.00  0.00     0.002 A 
ATOM      9  C   UNL d   1     -39.882  15.496  19.688  0.00  0.00     0.001 A 
ATOM     10  C   UNL d   1     -40.263  15.330  20.413  0.00  0.00     0.008 A 
ATOM     11  S   UNL d   1     -41.234  14.399  21.088  0.00  0.00    -0.060 SA
ENDBRANCH   2   3
ENDBRANCH   1   2
BRANCH   1  12
ATOM     12  C   UNL d   1     -43.513  12.876  21.524  0.00  0.00     0.288 C 
ATOM     13  N   UNL d   1     -44.241  13.245  21.638  0.00  0.00    -0.181 NA
ATOM     14  O   UNL d   1     -43.346  12.178  21.922  0.00  0.00    -0.265 OA
BRANCH  13  15
ATOM     15  C   UNL d   1     -44.797  12.920  22.145  0.00  0.00     0.219 A 
ATOM     16  S   UNL d   1     -45.551  13.212  22.292  0.00  0.00    -0.026 SA
ATOM     17  C   UNL d   1     -45.920  12.714  22.837  0.00  0.00     0.135 A 
ATOM     18  N   UNL d   1     -45.386  12.111  23.026  0.00  0.00    -0.139 NA
ATOM     19  N   UNL d   1     -44.694  12.238  22.599  0.00  0.00    -0.121 NA
BRANCH  17  20
ATOM     20  C   UNL d   1     -46.681  12.796  23.142  0.00  0.00     0.028 C 
ATOM     21  C   UNL d   1     -46.978  12.213  23.649  0.00  0.00     0.002 C 
ENDBRANCH  17  20
ENDBRANCH  13  15
ENDBRANCH   1  12
TORSDOF 5
ENDMDL
