MODEL 1
REMARK VINA RESULT:      18.4      0.000      0.000
REMARK  6 active torsions:
REMARK  status: ('A' for Active; 'I' for Inactive)
REMARK    1  A    between atoms: O_9  and  S_1 
REMARK    2  A    between atoms: C_10  and  C_4 
REMARK    3  A    between atoms: C_14  and  O_9 
REMARK    4  A    between atoms: C_13  and  C_10 
REMARK    5  A    between atoms: C_16  and  C_13 
REMARK    6  A    between atoms: C_19  and  C_16 
ROOT
ATOM      1  C   UNL d   1      45.459 -17.399  43.796  0.00  0.00     0.064 A 
ATOM      2  C   UNL d   1      46.253 -17.515  43.994  0.00  0.00     0.105 A 
ATOM      3  C   UNL d   1      45.852 -16.358  44.537  0.00  0.00     0.139 A 
ATOM      4  C   UNL d   1      45.214 -16.686  44.132  0.00  0.00     0.220 A 
ATOM      5  O   UNL d   1      46.502 -16.870  44.454  0.00  0.00    -0.304 OA
ATOM      6  C   UNL d   1      46.646 -18.188  43.731  0.00  0.00     0.050 A 
ATOM      7  C   UNL d   1      45.061 -17.958  43.337  0.00  0.00     0.007 A 
ATOM      8  C   UNL d   1      46.249 -18.740  43.276  0.00  0.00     0.115 A 
ATOM      9  O   UNL d   1      44.456 -16.356  44.072  0.00  0.00    -0.284 OA
ATOM     10  C   UNL d   1      45.459 -18.632  43.075  0.00  0.00     0.026 A 
ENDROOT
BRANCH   3  11
ATOM     11  C   UNL d   1      45.852 -15.644  44.954  0.00  0.00     0.028 C 
BRANCH  11  12
ATOM     12  C   UNL d   1      45.662 -14.935  44.571  0.00  0.00     0.002 C 
BRANCH  12  13
ATOM     13  C   UNL d   1      45.889 -14.215  44.894  0.00  0.00     0.000 C 
BRANCH  13  14
ATOM     14  C   UNL d   1      45.726 -13.512  44.505  0.00  0.00     0.000 A 
ATOM     15  C   UNL d   1      45.290 -13.515  43.804  0.00  0.00     0.000 A 
ATOM     16  C   UNL d   1      45.125 -12.803  43.410  0.00  0.00     0.000 A 
ATOM     17  C   UNL d   1      45.400 -12.089  43.723  0.00  0.00     0.000 A 
ATOM     18  C   UNL d   1      45.839 -12.091  44.428  0.00  0.00     0.000 A 
ATOM     19  C   UNL d   1      45.998 -12.802  44.814  0.00  0.00     0.000 A 
ENDBRANCH  13  14
ENDBRANCH  12  13
ENDBRANCH  11  12
ENDBRANCH   3  11
BRANCH   8  20
ATOM     20  O   UNL d   1      46.646 -19.421  43.010  0.00  0.00    -0.230 OA
BRANCH  20  21
ATOM     21  S   UNL d   1      46.558 -19.667  42.225  0.00  0.00     0.285 S 
ATOM     22  O   UNL d   1      46.497 -20.231  42.826  0.00  0.00    -0.197 OA
ATOM     23  O   UNL d   1      46.616 -19.123  41.625  0.00  0.00    -0.197 OA
ATOM     24  C   UNL d   1      46.423 -20.268  41.662  0.00  0.00     0.172 C 
ENDBRANCH  20  21
ENDBRANCH   8  20
TORSDOF 6
ENDMDL
MODEL 2
REMARK VINA RESULT:      19.5      1.308      2.020
REMARK  6 active torsions:
REMARK  status: ('A' for Active; 'I' for Inactive)
REMARK    1  A    between atoms: O_9  and  S_1 
REMARK    2  A    between atoms: C_10  and  C_4 
REMARK    3  A    between atoms: C_14  and  O_9 
REMARK    4  A    between atoms: C_13  and  C_10 
REMARK    5  A    between atoms: C_16  and  C_13 
REMARK    6  A    between atoms: C_19  and  C_16 
ROOT
ATOM      1  C   UNL d   1      46.340 -19.084  43.503  0.00  0.00     0.064 A 
ATOM      2  C   UNL d   1      46.432 -18.430  43.006  0.00  0.00     0.105 A 
ATOM      3  C   UNL d   1      46.288 -17.984  44.261  0.00  0.00     0.139 A 
ATOM      4  C   UNL d   1      46.252 -18.807  44.275  0.00  0.00     0.220 A 
ATOM      5  O   UNL d   1      46.400 -17.744  43.473  0.00  0.00    -0.304 OA
ATOM      6  C   UNL d   1      46.532 -18.541  42.197  0.00  0.00     0.050 A 
ATOM      7  C   UNL d   1      46.349 -19.847  43.188  0.00  0.00     0.007 A 
ATOM      8  C   UNL d   1      46.541 -19.298  41.888  0.00  0.00     0.115 A 
ATOM      9  O   UNL d   1      46.144 -19.276  44.950  0.00  0.00    -0.284 OA
ATOM     10  C   UNL d   1      46.450 -19.954  42.376  0.00  0.00     0.026 A 
ENDROOT
BRANCH   3  11
ATOM     11  C   UNL d   1      46.224 -17.480  44.914  0.00  0.00     0.028 C 
BRANCH  11  12
ATOM     12  C   UNL d   1      45.787 -16.780  44.860  0.00  0.00     0.002 C 
BRANCH  12  13
ATOM     13  C   UNL d   1      46.147 -16.083  44.616  0.00  0.00     0.000 C 
BRANCH  13  14
ATOM     14  C   UNL d   1      45.774 -15.360  44.719  0.00  0.00     0.000 A 
ATOM     15  C   UNL d   1      44.950 -15.319  44.766  0.00  0.00     0.000 A 
ATOM     16  C   UNL d   1      44.573 -14.587  44.870  0.00  0.00     0.000 A 
ATOM     17  C   UNL d   1      45.025 -13.898  44.926  0.00  0.00     0.000 A 
ATOM     18  C   UNL d   1      45.853 -13.943  44.878  0.00  0.00     0.000 A 
ATOM     19  C   UNL d   1      46.221 -14.674  44.775  0.00  0.00     0.000 A 
ENDBRANCH  13  14
ENDBRANCH  12  13
ENDBRANCH  11  12
ENDBRANCH   3  11
BRANCH   8  20
ATOM     20  O   UNL d   1      46.642 -19.411  41.071  0.00  0.00    -0.230 OA
BRANCH  20  21
ATOM     21  S   UNL d   1      46.126 -19.045  40.538  0.00  0.00     0.285 S 
ATOM     22  O   UNL d   1      46.326 -19.838  40.414  0.00  0.00    -0.197 OA
ATOM     23  O   UNL d   1      45.921 -18.267  40.649  0.00  0.00    -0.197 OA
ATOM     24  C   UNL d   1      45.645 -19.071  39.857  0.00  0.00     0.172 C 
ENDBRANCH  20  21
ENDBRANCH   8  20
TORSDOF 6
ENDMDL
