MODEL 1
REMARK VINA RESULT:      18.9      0.000      0.000
REMARK  3 active torsions:
REMARK  status: ('A' for Active; 'I' for Inactive)
REMARK    1  A    between atoms: N_3  and  S_1 
REMARK    2  A    between atoms: C_11  and  S_1 
REMARK    3  A    between atoms: C_2  and  N_3 
ROOT
ATOM      1  C   UNL d   1      13.342  12.503  -3.621  0.00  0.00     0.095 A 
ATOM      2  C   UNL d   1      13.122  12.494  -4.425  0.00  0.00     0.032 A 
ATOM      3  C   UNL d   1      13.009  13.195  -4.815  0.00  0.00     0.098 A 
ATOM      4  C   UNL d   1      13.110  13.918  -4.423  0.00  0.00     0.206 A 
ATOM      5  C   UNL d   1      13.325  13.926  -3.635  0.00  0.00     0.041 A 
ATOM      6  C   UNL d   1      13.442  13.230  -3.228  0.00  0.00     0.023 A 
ATOM      7 CL   UNL d   1      12.790  13.186  -5.619  0.00  0.00    -0.079 Cl
ATOM      8  O   UNL d   1      12.987  14.618  -4.848  0.00  0.00    -0.286 OA
ATOM      9  C   UNL d   1      13.018  11.789  -4.830  0.00  0.00     0.003 C 
ATOM     10  C   UNL d   1      13.425  14.658  -3.244  0.00  0.00     0.003 C 
ENDROOT
BRANCH   1  11
ATOM     11  N   UNL d   1      13.459  11.803  -3.215  0.00  0.00    -0.158 NA
BRANCH  11  12
ATOM     12  S   UNL d   1      13.682  11.814  -2.428  0.00  0.00     0.285 S 
ATOM     13  O   UNL d   1      14.478  11.837  -2.632  0.00  0.00    -0.198 OA
ATOM     14  O   UNL d   1      12.877  11.791  -2.188  0.00  0.00    -0.198 OA
BRANCH  12  15
ATOM     15  C   UNL d   1      13.900  11.825  -1.612  0.00  0.00     0.105 A 
ATOM     16  C   UNL d   1      13.343  11.782  -1.021  0.00  0.00     0.013 A 
ATOM     17  C   UNL d   1      13.556  11.793  -0.228  0.00  0.00     0.001 A 
ATOM     18  C   UNL d   1      14.358  11.850  -0.021  0.00  0.00     0.000 A 
ATOM     19  C   UNL d   1      14.915  11.893  -0.613  0.00  0.00     0.001 A 
ATOM     20  C   UNL d   1      14.698  11.882  -1.409  0.00  0.00     0.013 A 
ENDBRANCH  12  15
ENDBRANCH  11  12
ENDBRANCH   1  11
TORSDOF 3
ENDMDL
