MODEL 1
REMARK VINA RESULT:      41.3      0.000      0.000
REMARK  8 active torsions:
REMARK  status: ('A' for Active; 'I' for Inactive)
REMARK    1  A    between atoms: N_4  and  C_1 
REMARK    2  A    between atoms: C_2  and  O_12 
REMARK    3  A    between atoms: C_8  and  C_2 
REMARK       I    between atoms: C_10  and  N_4 
REMARK    4  A    between atoms: O_12  and  C_5 
REMARK    5  A    between atoms: S_20  and  C_6 
REMARK    6  A    between atoms: C_14  and  C_10 
REMARK    7  A    between atoms: C_16  and  C_26 
REMARK    8  A    between atoms: C_26  and  S_20 
ROOT
ATOM      1  C   UNL d   1     -56.191 -99.480 -44.332  0.00  0.00     0.167 A 
ATOM      2  C   UNL d   1     -55.440 -99.436 -44.662  0.00  0.00     0.222 A 
ATOM      3  C   UNL d   1     -54.951-100.105 -44.610  0.00  0.00     0.069 A 
ATOM      4  C   UNL d   1     -56.453-100.166 -43.959  0.00  0.00     0.151 A 
ATOM      5  C   UNL d   1     -55.213-100.791 -44.237  0.00  0.00     0.110 A 
ATOM      6  O   UNL d   1     -55.967-100.816 -43.912  0.00  0.00    -0.302 OA
ATOM      7  O   UNL d   1     -55.180 -98.757 -45.032  0.00  0.00    -0.284 OA
ENDROOT
BRANCH   5   8
ATOM      8  C   UNL d   1     -54.722-101.448 -44.190  0.00  0.00     0.062 C 
BRANCH   8   9
ATOM      9  S   UNL d   1     -54.728-101.914 -43.509  0.00  0.00    -0.057 SA
BRANCH   9  10
ATOM     10  C   UNL d   1     -54.798-101.968 -42.568  0.00  0.00     0.166 A 
ATOM     11  S   UNL d   1     -54.835-102.476 -41.921  0.00  0.00    -0.006 SA
ATOM     12  C   UNL d   1     -54.896-102.020 -41.236  0.00  0.00     0.269 A 
ATOM     13  N   UNL d   1     -54.897-101.223 -41.464  0.00  0.00    -0.107 NA
ATOM     14  N   UNL d   1     -54.836-101.191 -42.286  0.00  0.00    -0.132 NA
BRANCH  12  15
ATOM     15  N   UNL d   1     -54.957-102.052 -40.415  0.00  0.00    -0.337 NA
ATOM     16  C   UNL d   1     -55.018-102.084 -39.592  0.00  0.00     0.330 C 
ATOM     17  O   UNL d   1     -55.231-102.879 -39.648  0.00  0.00    -0.251 OA
BRANCH  16  18
ATOM     18  C   UNL d   1     -54.911-101.545 -38.975  0.00  0.00     0.070 A 
ATOM     19  C   UNL d   1     -54.713-101.396 -38.188  0.00  0.00     0.006 A 
ATOM     20  C   UNL d   1     -54.924-100.762 -38.696  0.00  0.00     0.006 A 
ENDBRANCH  16  18
ENDBRANCH  12  15
ENDBRANCH   9  10
ENDBRANCH   8   9
ENDBRANCH   5   8
BRANCH   1  21
ATOM     21  O   UNL d   1     -56.690 -98.818 -44.378  0.00  0.00    -0.268 OA
BRANCH  21  22
ATOM     22  C   UNL d   1     -57.377 -98.851 -44.839  0.00  0.00     0.305 C 
ATOM     23  O   UNL d   1     -57.325 -98.915 -45.659  0.00  0.00    -0.259 OA
BRANCH  22  24
ATOM     24  C   UNL d   1     -58.126 -98.821 -44.471  0.00  0.00     0.118 A 
ATOM     25  C   UNL d   1     -58.193 -98.821 -43.642  0.00  0.00     0.147 A 
ATOM     26  F   UNL d   1     -57.501 -98.852 -43.175  0.00  0.00    -0.204 F 
ATOM     27  C   UNL d   1     -58.919 -98.791 -43.274  0.00  0.00     0.030 A 
ATOM     28  C   UNL d   1     -59.602 -98.761 -43.735  0.00  0.00     0.005 A 
ATOM     29  C   UNL d   1     -59.562 -98.760 -44.567  0.00  0.00     0.030 A 
ATOM     30  C   UNL d   1     -58.810 -98.790 -44.932  0.00  0.00     0.147 A 
ATOM     31  F   UNL d   1     -58.745 -98.790 -45.764  0.00  0.00    -0.204 F 
ENDBRANCH  22  24
ENDBRANCH  21  22
ENDBRANCH   1  21
TORSDOF 8
ENDMDL
