MODEL 1
REMARK VINA RESULT:      -7.7      0.000      0.000
REMARK  3 active torsions:
REMARK  status: ('A' for Active; 'I' for Inactive)
REMARK    1  A    between atoms: N_3  and  C_1 
REMARK       I    between atoms: C_5  and  N_3 
REMARK    2  A    between atoms: C_8  and  C_5 
REMARK       I    between atoms: C_11  and  N_12 
REMARK    3  A    between atoms: N_12  and  C_13 
ROOT
ATOM      1  C   UNL d   1      51.064  33.912  52.995  0.00  0.00     0.197 A 
ATOM      2  N   UNL d   1      51.366  33.152  52.913  0.00  0.00    -0.221 NA
ATOM      3  S   UNL d   1      51.643  34.383  53.320  0.00  0.00    -0.047 SA
ATOM      4  C   UNL d   1      52.303  33.918  53.440  0.00  0.00     0.051 A 
ATOM      5  C   UNL d   1      52.130  33.151  53.186  0.00  0.00     0.090 A 
ATOM      6  C   UNL d   1      53.055  34.103  53.755  0.00  0.00     0.027 A 
ATOM      7  C   UNL d   1      53.626  33.514  53.812  0.00  0.00     0.085 A 
ATOM      8  C   UNL d   1      52.709  32.566  53.247  0.00  0.00     0.021 A 
ATOM      9  C   UNL d   1      53.450  32.732  53.554  0.00  0.00     0.021 A 
ENDROOT
BRANCH   1  10
ATOM     10  N   UNL d   1      50.305  34.168  52.787  0.00  0.00    -0.182 NA
ATOM     11  C   UNL d   1      50.156  34.344  51.999  0.00  0.00     0.287 C 
ATOM     12  O   UNL d   1      50.780  34.257  51.434  0.00  0.00    -0.265 OA
BRANCH  11  13
ATOM     13  C   UNL d   1      49.424  34.596  51.764  0.00  0.00     0.087 A 
ATOM     14  S   UNL d   1      48.833  35.030  52.156  0.00  0.00    -0.082 SA
ATOM     15  C   UNL d   1      48.205  35.131  51.661  0.00  0.00     0.036 A 
ATOM     16  C   UNL d   1      48.372  34.771  50.952  0.00  0.00     0.008 A 
ATOM     17  C   UNL d   1      49.145  34.428  51.009  0.00  0.00     0.012 A 
ENDBRANCH  11  13
ENDBRANCH   1  10
BRANCH   7  18
ATOM     18  N   UNL d   1      54.379  33.717  54.133  0.00  0.00    -0.208 NA
ATOM     19  C   UNL d   1      54.612  33.401  54.874  0.00  0.00     0.279 C 
ATOM     20  O   UNL d   1      55.355  33.600  55.192  0.00  0.00    -0.265 OA
ATOM     21  C   UNL d   1      54.103  32.893  55.285  0.00  0.00     0.068 C 
ENDBRANCH   7  18
TORSDOF 3
ENDMDL
MODEL 2
REMARK VINA RESULT:      -7.2      2.947      4.001
REMARK  3 active torsions:
REMARK  status: ('A' for Active; 'I' for Inactive)
REMARK    1  A    between atoms: N_3  and  C_1 
REMARK       I    between atoms: C_5  and  N_3 
REMARK    2  A    between atoms: C_8  and  C_5 
REMARK       I    between atoms: C_11  and  N_12 
REMARK    3  A    between atoms: N_12  and  C_13 
ROOT
ATOM      1  C   UNL d   1      53.377  32.531  53.528  0.00  0.00     0.197 A 
ATOM      2  N   UNL d   1      52.829  32.146  53.053  0.00  0.00    -0.221 NA
ATOM      3  S   UNL d   1      53.807  31.968  53.931  0.00  0.00    -0.047 SA
ATOM      4  C   UNL d   1      53.527  31.236  53.707  0.00  0.00     0.051 A 
ATOM      5  C   UNL d   1      52.917  31.347  53.160  0.00  0.00     0.090 A 
ATOM      6  C   UNL d   1      53.757  30.466  53.939  0.00  0.00     0.027 A 
ATOM      7  C   UNL d   1      53.371  29.814  53.619  0.00  0.00     0.085 A 
ATOM      8  C   UNL d   1      52.536  30.687  52.843  0.00  0.00     0.021 A 
ATOM      9  C   UNL d   1      52.749  29.927  53.060  0.00  0.00     0.021 A 
ENDROOT
BRANCH   1  10
ATOM     10  N   UNL d   1      53.486  33.349  53.595  0.00  0.00    -0.182 NA
ATOM     11  C   UNL d   1      52.947  33.777  54.044  0.00  0.00     0.287 C 
ATOM     12  O   UNL d   1      52.307  33.368  54.417  0.00  0.00    -0.265 OA
BRANCH  11  13
ATOM     13  C   UNL d   1      53.025  34.577  54.129  0.00  0.00     0.087 A 
ATOM     14  S   UNL d   1      53.238  35.050  54.779  0.00  0.00    -0.082 SA
ATOM     15  C   UNL d   1      53.229  35.825  54.559  0.00  0.00     0.036 A 
ATOM     16  C   UNL d   1      53.016  35.871  53.776  0.00  0.00     0.008 A 
ATOM     17  C   UNL d   1      52.884  35.082  53.495  0.00  0.00     0.012 A 
ENDBRANCH  11  13
ENDBRANCH   1  10
BRANCH   7  18
ATOM     18  N   UNL d   1      53.614  29.046  53.863  0.00  0.00    -0.208 NA
ATOM     19  C   UNL d   1      53.347  28.741  54.597  0.00  0.00     0.279 C 
ATOM     20  O   UNL d   1      53.586  27.982  54.841  0.00  0.00    -0.265 OA
ATOM     21  C   UNL d   1      52.847  29.196  55.077  0.00  0.00     0.068 C 
ENDBRANCH   7  18
TORSDOF 3
ENDMDL
MODEL 3
REMARK VINA RESULT:      -7.0      1.412      5.053
REMARK  3 active torsions:
REMARK  status: ('A' for Active; 'I' for Inactive)
REMARK    1  A    between atoms: N_3  and  C_1 
REMARK       I    between atoms: C_5  and  N_3 
REMARK    2  A    between atoms: C_8  and  C_5 
REMARK       I    between atoms: C_11  and  N_12 
REMARK    3  A    between atoms: N_12  and  C_13 
ROOT
ATOM      1  C   UNL d   1      51.847  33.618  53.291  0.00  0.00     0.197 A 
ATOM      2  N   UNL d   1      51.861  33.668  52.472  0.00  0.00    -0.221 NA
ATOM      3  S   UNL d   1      51.129  33.903  53.552  0.00  0.00    -0.047 SA
ATOM      4  C   UNL d   1      50.699  34.128  52.897  0.00  0.00     0.051 A 
ATOM      5  C   UNL d   1      51.156  33.981  52.223  0.00  0.00     0.090 A 
ATOM      6  C   UNL d   1      49.933  34.455  52.829  0.00  0.00     0.027 A 
ATOM      7  C   UNL d   1      49.632  34.632  52.084  0.00  0.00     0.085 A 
ATOM      8  C   UNL d   1      50.846  34.162  51.480  0.00  0.00     0.021 A 
ATOM      9  C   UNL d   1      50.097  34.482  51.397  0.00  0.00     0.021 A 
ENDROOT
BRANCH   1  10
ATOM     10  N   UNL d   1      52.450  33.331  53.781  0.00  0.00    -0.182 NA
ATOM     11  C   UNL d   1      53.064  33.839  53.979  0.00  0.00     0.287 C 
ATOM     12  O   UNL d   1      53.056  34.630  53.678  0.00  0.00    -0.265 OA
BRANCH  11  13
ATOM     13  C   UNL d   1      53.668  33.589  54.455  0.00  0.00     0.087 A 
ATOM     14  S   UNL d   1      53.911  32.830  54.693  0.00  0.00    -0.082 SA
ATOM     15  C   UNL d   1      54.554  32.896  55.176  0.00  0.00     0.036 A 
ATOM     16  C   UNL d   1      54.737  33.683  55.259  0.00  0.00     0.008 A 
ATOM     17  C   UNL d   1      54.179  34.131  54.804  0.00  0.00     0.012 A 
ENDBRANCH  11  13
ENDBRANCH   1  10
BRANCH   7  18
ATOM     18  N   UNL d   1      48.858  34.961  52.034  0.00  0.00    -0.208 NA
ATOM     19  C   UNL d   1      48.424  34.888  51.320  0.00  0.00     0.279 C 
ATOM     20  O   UNL d   1      47.658  35.213  51.268  0.00  0.00    -0.265 OA
ATOM     21  C   UNL d   1      48.756  34.495  50.672  0.00  0.00     0.068 C 
ENDBRANCH   7  18
TORSDOF 3
ENDMDL
MODEL 4
REMARK VINA RESULT:      -6.6      2.196      2.618
REMARK  3 active torsions:
REMARK  status: ('A' for Active; 'I' for Inactive)
REMARK    1  A    between atoms: N_3  and  C_1 
REMARK       I    between atoms: C_5  and  N_3 
REMARK    2  A    between atoms: C_8  and  C_5 
REMARK       I    between atoms: C_11  and  N_12 
REMARK    3  A    between atoms: N_12  and  C_13 
ROOT
ATOM      1  C   UNL d   1      52.090  32.851  52.843  0.00  0.00     0.197 A 
ATOM      2  N   UNL d   1      52.772  32.961  53.288  0.00  0.00    -0.221 NA
ATOM      3  S   UNL d   1      51.995  32.053  52.712  0.00  0.00    -0.047 SA
ATOM      4  C   UNL d   1      52.617  31.668  53.074  0.00  0.00     0.051 A 
ATOM      5  C   UNL d   1      53.101  32.234  53.433  0.00  0.00     0.090 A 
ATOM      6  C   UNL d   1      52.805  30.854  53.121  0.00  0.00     0.027 A 
ATOM      7  C   UNL d   1      53.479  30.618  53.530  0.00  0.00     0.085 A 
ATOM      8  C   UNL d   1      53.774  31.988  53.841  0.00  0.00     0.021 A 
ATOM      9  C   UNL d   1      53.972  31.195  53.896  0.00  0.00     0.021 A 
ENDROOT
BRANCH   1  10
ATOM     10  N   UNL d   1      51.578  33.441  52.569  0.00  0.00    -0.182 NA
ATOM     11  C   UNL d   1      50.863  33.548  52.959  0.00  0.00     0.287 C 
ATOM     12  O   UNL d   1      50.679  33.053  53.621  0.00  0.00    -0.265 OA
BRANCH  11  13
ATOM     13  C   UNL d   1      50.341  34.115  52.715  0.00  0.00     0.087 A 
ATOM     14  S   UNL d   1      50.003  34.279  51.973  0.00  0.00    -0.082 SA
ATOM     15  C   UNL d   1      49.513  34.915  52.039  0.00  0.00     0.036 A 
ATOM     16  C   UNL d   1      49.522  35.172  52.810  0.00  0.00     0.008 A 
ATOM     17  C   UNL d   1      50.045  34.669  53.247  0.00  0.00     0.012 A 
ENDBRANCH  11  13
ENDBRANCH   1  10
BRANCH   7  18
ATOM     18  N   UNL d   1      53.654  29.795  53.568  0.00  0.00    -0.208 NA
ATOM     19  C   UNL d   1      53.422  29.353  54.243  0.00  0.00     0.279 C 
ATOM     20  O   UNL d   1      53.595  28.539  54.283  0.00  0.00    -0.265 OA
ATOM     21  C   UNL d   1      53.023  29.727  54.865  0.00  0.00     0.068 C 
ENDBRANCH   7  18
TORSDOF 3
ENDMDL
