MODEL 1
REMARK VINA RESULT:      -3.8      0.000      0.000
REMARK  6 active torsions:
REMARK  status: ('A' for Active; 'I' for Inactive)
REMARK    1  A    between atoms: C_4  and  N_1 
REMARK    2  A    between atoms: N_6  and  C_2 
REMARK    3  A    between atoms: S_10  and  C_7 
REMARK    4  A    between atoms: C_12  and  C_9 
REMARK    5  A    between atoms: C_11  and  S_10 
REMARK    6  A    between atoms: O_24  and  C_20 
ROOT
ATOM      1  N   UNL d   1      58.160   0.261  30.723  0.00  0.00    -0.240 N 
ATOM      2  C   UNL d   1      57.458   0.497  30.377  0.00  0.00     0.268 A 
ATOM      3  C   UNL d   1      58.061   0.158  31.540  0.00  0.00     0.273 A 
ATOM      4  C   UNL d   1      57.261   0.339  31.698  0.00  0.00     0.091 A 
ATOM      5  C   UNL d   1      56.901   0.545  30.983  0.00  0.00     0.072 A 
ATOM      6  O   UNL d   1      57.127   0.675  29.786  0.00  0.00    -0.267 OA
ATOM      7  O   UNL d   1      58.616  -0.073  32.102  0.00  0.00    -0.266 OA
ENDROOT
BRANCH   1   8
ATOM      8  C   UNL d   1      58.871   0.144  30.305  0.00  0.00     0.092 A 
ATOM      9  C   UNL d   1      58.921  -0.519  29.830  0.00  0.00     0.145 A 
ATOM     10  C   UNL d   1      59.622  -0.657  29.403  0.00  0.00     0.049 A 
ATOM     11  C   UNL d   1      60.252  -0.128  29.465  0.00  0.00     0.096 A 
ATOM     12  C   UNL d   1      60.191   0.558  29.962  0.00  0.00     0.026 A 
ATOM     13  C   UNL d   1      59.491   0.682  30.378  0.00  0.00     0.021 A 
BRANCH   9  14
ATOM     14  N   UNL d   1      58.283  -1.041  29.776  0.00  0.00    -0.112 N 
ATOM     15  O   UNL d   1      57.817  -0.900  29.630  0.00  0.00    -0.532 OA
ATOM     16  O   UNL d   1      58.331  -1.846  29.954  0.00  0.00    -0.532 OA
ENDBRANCH   9  14
BRANCH  11  17
ATOM     17  O   UNL d   1      60.939  -0.286  29.031  0.00  0.00    -0.328 OA
ATOM     18  C   UNL d   1      61.036  -0.995  28.633  0.00  0.00     0.181 C 
ENDBRANCH  11  17
ENDBRANCH   1   8
BRANCH   4  19
ATOM     19  S   UNL d   1      56.978   0.291  32.466  0.00  0.00    -0.082 SA
BRANCH  19  20
ATOM     20  C   UNL d   1      56.485  -0.353  32.687  0.00  0.00     0.035 A 
ATOM     21  C   UNL d   1      56.050  -0.320  33.372  0.00  0.00     0.070 A 
ATOM     22  C   UNL d   1      55.570  -0.942  33.592  0.00  0.00     0.007 A 
ATOM     23  C   UNL d   1      55.530  -1.617  33.101  0.00  0.00     0.000 A 
ATOM     24  C   UNL d   1      55.971  -1.657  32.400  0.00  0.00     0.001 A 
ATOM     25  C   UNL d   1      56.449  -1.003  32.210  0.00  0.00     0.007 A 
BRANCH  21  26
ATOM     26  C   UNL d   1      56.078   0.338  33.867  0.00  0.00     0.211 C 
ATOM     27  O   UNL d   1      55.397   0.678  34.169  0.00  0.00    -0.644 OA
ATOM     28  O   UNL d   1      56.816   0.678  34.076  0.00  0.00    -0.644 OA
ENDBRANCH  21  26
ENDBRANCH  19  20
ENDBRANCH   4  19
TORSDOF 6
ENDMDL
MODEL 2
REMARK VINA RESULT:      -2.5      1.159      4.439
REMARK  6 active torsions:
REMARK  status: ('A' for Active; 'I' for Inactive)
REMARK    1  A    between atoms: C_4  and  N_1 
REMARK    2  A    between atoms: N_6  and  C_2 
REMARK    3  A    between atoms: S_10  and  C_7 
REMARK    4  A    between atoms: C_12  and  C_9 
REMARK    5  A    between atoms: C_11  and  S_10 
REMARK    6  A    between atoms: O_24  and  C_20 
ROOT
ATOM      1  N   UNL d   1      57.454   0.177  31.085  0.00  0.00    -0.240 N 
ATOM      2  C   UNL d   1      57.107   0.341  30.363  0.00  0.00     0.268 A 
ATOM      3  C   UNL d   1      58.280   0.142  31.011  0.00  0.00     0.273 A 
ATOM      4  C   UNL d   1      58.443   0.293  30.205  0.00  0.00     0.091 A 
ATOM      5  C   UNL d   1      57.722   0.412  29.818  0.00  0.00     0.072 A 
ATOM      6  O   UNL d   1      56.513   0.446  30.009  0.00  0.00    -0.267 OA
ATOM      7  O   UNL d   1      58.844  -0.006  31.590  0.00  0.00    -0.266 OA
ENDROOT
BRANCH   1   8
ATOM      8  C   UNL d   1      57.029   0.061  31.792  0.00  0.00     0.092 A 
ATOM      9  C   UNL d   1      56.704  -0.678  31.917  0.00  0.00     0.145 A 
ATOM     10  C   UNL d   1      56.275  -0.816  32.618  0.00  0.00     0.049 A 
ATOM     11  C   UNL d   1      56.185  -0.211  33.170  0.00  0.00     0.096 A 
ATOM     12  C   UNL d   1      56.527   0.553  33.032  0.00  0.00     0.026 A 
ATOM     13  C   UNL d   1      56.948   0.676  32.335  0.00  0.00     0.021 A 
BRANCH   9  14
ATOM     14  N   UNL d   1      56.801  -1.275  31.356  0.00  0.00    -0.112 N 
ATOM     15  O   UNL d   1      56.630  -1.241  30.877  0.00  0.00    -0.532 OA
ATOM     16  O   UNL d   1      57.185  -1.991  31.506  0.00  0.00    -0.532 OA
ENDBRANCH   9  14
BRANCH  11  17
ATOM     17  O   UNL d   1      55.754  -0.373  33.859  0.00  0.00    -0.328 OA
ATOM     18  C   UNL d   1      55.946  -0.019  34.571  0.00  0.00     0.181 C 
ENDBRANCH  11  17
ENDBRANCH   1   8
BRANCH   4  19
ATOM     19  S   UNL d   1      59.219   0.299  29.942  0.00  0.00    -0.082 SA
BRANCH  19  20
ATOM     20  C   UNL d   1      59.496  -0.326  29.453  0.00  0.00     0.035 A 
ATOM     21  C   UNL d   1      60.291  -0.482  29.399  0.00  0.00     0.070 A 
ATOM     22  C   UNL d   1      60.567  -1.087  28.926  0.00  0.00     0.007 A 
ATOM     23  C   UNL d   1      60.018  -1.547  28.495  0.00  0.00     0.000 A 
ATOM     24  C   UNL d   1      59.205  -1.392  28.545  0.00  0.00     0.001 A 
ATOM     25  C   UNL d   1      58.964  -0.767  29.038  0.00  0.00     0.007 A 
BRANCH  21  26
ATOM     26  C   UNL d   1      60.846  -0.039  29.818  0.00  0.00     0.211 C 
ATOM     27  O   UNL d   1      61.133   0.672  29.531  0.00  0.00    -0.644 OA
ATOM     28  O   UNL d   1      61.132  -0.311  30.558  0.00  0.00    -0.644 OA
ENDBRANCH  21  26
ENDBRANCH  19  20
ENDBRANCH   4  19
TORSDOF 6
ENDMDL
MODEL 3
REMARK VINA RESULT:      -1.8      0.916      1.007
REMARK  6 active torsions:
REMARK  status: ('A' for Active; 'I' for Inactive)
REMARK    1  A    between atoms: C_4  and  N_1 
REMARK    2  A    between atoms: N_6  and  C_2 
REMARK    3  A    between atoms: S_10  and  C_7 
REMARK    4  A    between atoms: C_12  and  C_9 
REMARK    5  A    between atoms: C_11  and  S_10 
REMARK    6  A    between atoms: O_24  and  C_20 
ROOT
ATOM      1  N   UNL d   1      57.951   0.338  30.908  0.00  0.00    -0.240 N 
ATOM      2  C   UNL d   1      57.186   0.529  30.697  0.00  0.00     0.268 A 
ATOM      3  C   UNL d   1      58.041   0.364  31.732  0.00  0.00     0.273 A 
ATOM      4  C   UNL d   1      57.294   0.583  32.037  0.00  0.00     0.091 A 
ATOM      5  C   UNL d   1      56.779   0.681  31.398  0.00  0.00     0.072 A 
ATOM      6  O   UNL d   1      56.727   0.620  30.176  0.00  0.00    -0.267 OA
ATOM      7  O   UNL d   1      58.712   0.213  32.183  0.00  0.00    -0.266 OA
ENDROOT
BRANCH   1   8
ATOM      8  C   UNL d   1      58.552   0.144  30.364  0.00  0.00     0.092 A 
ATOM      9  C   UNL d   1      58.509  -0.589  30.006  0.00  0.00     0.145 A 
ATOM     10  C   UNL d   1      59.099  -0.806  29.458  0.00  0.00     0.049 A 
ATOM     11  C   UNL d   1      59.712  -0.282  29.287  0.00  0.00     0.096 A 
ATOM     12  C   UNL d   1      59.748   0.478  29.665  0.00  0.00     0.026 A 
ATOM     13  C   UNL d   1      59.158   0.678  30.204  0.00  0.00     0.021 A 
BRANCH   9  14
ATOM     14  N   UNL d   1      57.890  -1.105  30.186  0.00  0.00    -0.112 N 
ATOM     15  O   UNL d   1      57.401  -0.964  30.198  0.00  0.00    -0.532 OA
ATOM     16  O   UNL d   1      57.994  -1.905  30.365  0.00  0.00    -0.532 OA
ENDBRANCH   9  14
BRANCH  11  17
ATOM     17  O   UNL d   1      60.286  -0.518  28.740  0.00  0.00    -0.328 OA
ATOM     18  C   UNL d   1      60.435  -1.310  28.597  0.00  0.00     0.181 C 
ENDBRANCH  11  17
ENDBRANCH   1   8
BRANCH   4  19
ATOM     19  S   UNL d   1      57.193   0.660  32.846  0.00  0.00    -0.082 SA
BRANCH  19  20
ATOM     20  C   UNL d   1      56.455   0.456  33.193  0.00  0.00     0.035 A 
ATOM     21  C   UNL d   1      56.401   0.322  33.992  0.00  0.00     0.070 A 
ATOM     22  C   UNL d   1      55.687   0.124  34.335  0.00  0.00     0.007 A 
ATOM     23  C   UNL d   1      55.009   0.061  33.851  0.00  0.00     0.000 A 
ATOM     24  C   UNL d   1      55.057   0.197  33.035  0.00  0.00     0.001 A 
ATOM     25  C   UNL d   1      55.802   0.397  32.723  0.00  0.00     0.007 A 
BRANCH  21  26
ATOM     26  C   UNL d   1      57.060   0.380  34.483  0.00  0.00     0.211 C 
ATOM     27  O   UNL d   1      57.814   0.212  34.213  0.00  0.00    -0.644 OA
ATOM     28  O   UNL d   1      56.970   0.615  35.284  0.00  0.00    -0.644 OA
ENDBRANCH  21  26
ENDBRANCH  19  20
ENDBRANCH   4  19
TORSDOF 6
ENDMDL
