MODEL 1
REMARK VINA RESULT:      89.9      0.000      0.000
REMARK  5 active torsions:
REMARK  status: ('A' for Active; 'I' for Inactive)
REMARK    1  A    between atoms: S_13  and  C_7 
REMARK    2  A    between atoms: C_22  and  C_10 
REMARK    3  A    between atoms: C_11  and  C_16 
REMARK       I    between atoms: N_12  and  C_11 
REMARK    4  A    between atoms: C_16  and  S_13 
REMARK    5  A    between atoms: C_23  and  C_22 
ROOT
ATOM      1  N   UNL d   1     -48.452  32.491  33.800  0.00  0.00    -0.224 N 
ATOM      2  N   UNL d   1     -47.428  32.138  34.743  0.00  0.00    -0.241 N 
ATOM      3  C   UNL d   1     -47.783  32.697  34.254  0.00  0.00     0.343 A 
ATOM      4  C   UNL d   1     -47.741  31.373  34.779  0.00  0.00     0.160 A 
ATOM      5  C   UNL d   1     -48.758  31.728  33.841  0.00  0.00     0.273 A 
ATOM      6  C   UNL d   1     -48.403  31.169  34.330  0.00  0.00     0.115 A 
ATOM      7  C   UNL d   1     -48.709  30.406  34.371  0.00  0.00     0.120 A 
ATOM      8  N   UNL d   1     -47.385  30.806  35.271  0.00  0.00    -0.209 NA
ATOM      9  N   UNL d   1     -48.358  29.846  34.858  0.00  0.00    -0.220 NA
ATOM     10  C   UNL d   1     -47.692  30.044  35.311  0.00  0.00     0.165 A 
ATOM     11  O   UNL d   1     -47.477  33.463  34.211  0.00  0.00    -0.245 OA
ATOM     12  O   UNL d   1     -49.420  31.528  33.391  0.00  0.00    -0.266 OA
ATOM     13  C   UNL d   1     -48.800  33.052  33.316  0.00  0.00     0.107 C 
ATOM     14  C   UNL d   1     -46.766  32.342  35.191  0.00  0.00     0.105 C 
ENDROOT
BRANCH   7  15
ATOM     15  S   UNL d   1     -49.371  30.205  33.921  0.00  0.00    -0.062 SA
BRANCH  15  16
ATOM     16  C   UNL d   1     -49.455  29.439  33.628  0.00  0.00     0.098 C 
BRANCH  16  17
ATOM     17  C   UNL d   1     -50.204  29.117  33.516  0.00  0.00     0.271 C 
ATOM     18  N   UNL d   1     -50.298  28.294  33.486  0.00  0.00    -0.272 N 
ATOM     19  C   UNL d   1     -51.120  28.050  33.367  0.00  0.00     0.083 A 
ATOM     20  C   UNL d   1     -49.667  27.919  33.567  0.00  0.00     0.083 A 
ATOM     21  C   UNL d   1     -51.454  27.411  33.307  0.00  0.00     0.019 A 
ATOM     22  C   UNL d   1     -51.100  26.649  33.341  0.00  0.00     0.002 A 
ATOM     23  C   UNL d   1     -50.239  26.486  33.458  0.00  0.00     0.002 A 
ATOM     24  C   UNL d   1     -49.575  27.072  33.562  0.00  0.00     0.019 A 
ATOM     25  O   UNL d   1     -50.860  29.611  33.435  0.00  0.00    -0.266 OA
ENDBRANCH  16  17
ENDBRANCH  15  16
ENDBRANCH   7  15
BRANCH  10  26
ATOM     26  C   UNL d   1     -47.340  29.480  35.800  0.00  0.00     0.039 C 
BRANCH  26  27
ATOM     27  C   UNL d   1     -46.815  28.927  35.477  0.00  0.00     0.003 C 
ATOM     28  C   UNL d   1     -46.489  28.341  35.944  0.00  0.00     0.000 C 
ENDBRANCH  26  27
ENDBRANCH  10  26
TORSDOF 5
ENDMDL
MODEL 2
REMARK VINA RESULT:      90.7      1.571      2.782
REMARK  5 active torsions:
REMARK  status: ('A' for Active; 'I' for Inactive)
REMARK    1  A    between atoms: S_13  and  C_7 
REMARK    2  A    between atoms: C_22  and  C_10 
REMARK    3  A    between atoms: C_11  and  C_16 
REMARK       I    between atoms: N_12  and  C_11 
REMARK    4  A    between atoms: C_16  and  S_13 
REMARK    5  A    between atoms: C_23  and  C_22 
ROOT
ATOM      1  N   UNL d   1     -47.153  29.581  36.578  0.00  0.00    -0.224 N 
ATOM      2  N   UNL d   1     -47.209  30.924  36.074  0.00  0.00    -0.241 N 
ATOM      3  C   UNL d   1     -46.978  30.393  36.660  0.00  0.00     0.343 A 
ATOM      4  C   UNL d   1     -47.613  30.645  35.409  0.00  0.00     0.160 A 
ATOM      5  C   UNL d   1     -47.556  29.311  35.913  0.00  0.00     0.273 A 
ATOM      6  C   UNL d   1     -47.786  29.842  35.329  0.00  0.00     0.115 A 
ATOM      7  C   UNL d   1     -48.189  29.572  34.663  0.00  0.00     0.120 A 
ATOM      8  N   UNL d   1     -47.847  31.179  34.817  0.00  0.00    -0.209 NA
ATOM      9  N   UNL d   1     -48.420  30.099  34.079  0.00  0.00    -0.220 NA
ATOM     10  C   UNL d   1     -48.250  30.907  34.152  0.00  0.00     0.165 A 
ATOM     11  O   UNL d   1     -46.574  30.662  37.328  0.00  0.00    -0.245 OA
ATOM     12  O   UNL d   1     -47.726  28.507  35.837  0.00  0.00    -0.266 OA
ATOM     13  C   UNL d   1     -46.921  29.057  37.164  0.00  0.00     0.107 C 
ATOM     14  C   UNL d   1     -47.037  31.727  36.155  0.00  0.00     0.105 C 
ENDROOT
BRANCH   7  15
ATOM     15  S   UNL d   1     -48.359  28.768  34.587  0.00  0.00    -0.062 SA
BRANCH  15  16
ATOM     16  C   UNL d   1     -49.020  28.525  34.156  0.00  0.00     0.098 C 
BRANCH  16  17
ATOM     17  C   UNL d   1     -49.157  27.724  34.024  0.00  0.00     0.271 C 
ATOM     18  N   UNL d   1     -49.913  27.467  33.801  0.00  0.00    -0.272 N 
ATOM     19  C   UNL d   1     -49.961  26.611  33.685  0.00  0.00     0.083 A 
ATOM     20  C   UNL d   1     -50.407  28.013  33.742  0.00  0.00     0.083 A 
ATOM     21  C   UNL d   1     -50.490  26.155  33.496  0.00  0.00     0.019 A 
ATOM     22  C   UNL d   1     -51.287  26.351  33.317  0.00  0.00     0.002 A 
ATOM     23  C   UNL d   1     -51.633  27.164  33.328  0.00  0.00     0.002 A 
ATOM     24  C   UNL d   1     -51.227  27.934  33.524  0.00  0.00     0.019 A 
ATOM     25  O   UNL d   1     -48.545  27.178  34.113  0.00  0.00    -0.266 OA
ENDBRANCH  16  17
ENDBRANCH  15  16
ENDBRANCH   7  15
BRANCH  10  26
ATOM     26  C   UNL d   1     -48.483  31.436  33.563  0.00  0.00     0.039 C 
BRANCH  26  27
ATOM     27  C   UNL d   1     -48.152  32.195  33.539  0.00  0.00     0.003 C 
ATOM     28  C   UNL d   1     -48.608  32.840  33.330  0.00  0.00     0.000 C 
ENDBRANCH  26  27
ENDBRANCH  10  26
TORSDOF 5
ENDMDL
