MODEL 1
REMARK VINA RESULT:      65.3      0.000      0.000
REMARK  4 active torsions:
REMARK  status: ('A' for Active; 'I' for Inactive)
REMARK    1  A    between atoms: C_3  and  C_1 
REMARK    2  A    between atoms: C_7  and  C_3 
REMARK    3  A    between atoms: N_9  and  C_4 
REMARK    4  A    between atoms: C_8  and  C_7 
ROOT
ATOM      1  C   UNL d   1     -49.803  26.926  33.780  0.00  0.00     0.106 C 
ATOM      2  C   UNL d   1     -49.072  26.705  33.549  0.00  0.00     0.104 C 
ATOM      3  N   UNL d   1     -48.323  26.462  33.306  0.00  0.00    -0.191 NA
ENDROOT
BRANCH   1   4
ATOM      4  C   UNL d   1     -50.461  26.439  33.676  0.00  0.00     0.172 A 
ATOM      5  N   UNL d   1     -50.479  25.643  33.585  0.00  0.00    -0.225 NA
ATOM      6  C   UNL d   1     -51.256  25.394  33.500  0.00  0.00     0.101 A 
ATOM      7  C   UNL d   1     -51.604  24.649  33.390  0.00  0.00     0.021 A 
ATOM      8  C   UNL d   1     -51.726  26.076  33.542  0.00  0.00     0.101 A 
ATOM      9  C   UNL d   1     -52.420  24.569  33.321  0.00  0.00     0.002 A 
ATOM     10  C   UNL d   1     -52.892  25.269  33.365  0.00  0.00     0.002 A 
ATOM     11  C   UNL d   1     -52.544  26.013  33.475  0.00  0.00     0.021 A 
ATOM     12  N   UNL d   1     -51.227  26.714  33.651  0.00  0.00    -0.225 NA
ENDBRANCH   1   4
BRANCH   1  13
ATOM     13  C   UNL d   1     -49.917  27.668  34.135  0.00  0.00     0.038 C 
BRANCH  13  14
ATOM     14  C   UNL d   1     -49.292  28.045  34.531  0.00  0.00     0.103 A 
ATOM     15  O   UNL d   1     -49.077  28.839  34.601  0.00  0.00    -0.290 OA
ATOM     16  C   UNL d   1     -48.407  28.871  35.064  0.00  0.00     0.168 A 
ATOM     17  C   UNL d   1     -48.202  28.120  35.282  0.00  0.00     0.045 A 
ATOM     18  C   UNL d   1     -48.747  27.597  34.956  0.00  0.00     0.028 A 
BRANCH  16  19
ATOM     19  N   UNL d   1     -47.968  29.528  35.304  0.00  0.00    -0.281 N 
ATOM     20  C   UNL d   1     -47.605  29.533  36.031  0.00  0.00     0.109 A 
ATOM     21  C   UNL d   1     -47.166  30.190  36.270  0.00  0.00     0.142 A 
ATOM     22  O   UNL d   1     -47.104  30.832  35.764  0.00  0.00    -0.300 OA
ATOM     23  C   UNL d   1     -47.466  30.834  35.031  0.00  0.00     0.142 A 
ATOM     24  C   UNL d   1     -47.903  30.173  34.799  0.00  0.00     0.109 A 
ENDBRANCH  16  19
ENDBRANCH  13  14
ENDBRANCH   1  13
TORSDOF 4
ENDMDL
MODEL 2
REMARK VINA RESULT:      66.8      1.558      5.572
REMARK  4 active torsions:
REMARK  status: ('A' for Active; 'I' for Inactive)
REMARK    1  A    between atoms: C_3  and  C_1 
REMARK    2  A    between atoms: C_7  and  C_3 
REMARK    3  A    between atoms: N_9  and  C_4 
REMARK    4  A    between atoms: C_8  and  C_7 
ROOT
ATOM      1  C   UNL d   1     -47.578  30.002  35.338  0.00  0.00     0.106 C 
ATOM      2  C   UNL d   1     -47.584  29.948  36.134  0.00  0.00     0.104 C 
ATOM      3  N   UNL d   1     -47.592  29.910  36.957  0.00  0.00    -0.191 NA
ENDROOT
BRANCH   1   4
ATOM      4  C   UNL d   1     -47.662  30.723  34.947  0.00  0.00     0.172 A 
ATOM      5  N   UNL d   1     -48.340  31.101  34.745  0.00  0.00    -0.225 NA
ATOM      6  C   UNL d   1     -48.157  31.803  34.363  0.00  0.00     0.101 A 
ATOM      7  C   UNL d   1     -48.623  32.409  34.036  0.00  0.00     0.021 A 
ATOM      8  C   UNL d   1     -47.329  31.847  34.334  0.00  0.00     0.101 A 
ATOM      9  C   UNL d   1     -48.275  33.064  33.679  0.00  0.00     0.002 A 
ATOM     10  C   UNL d   1     -47.431  33.101  33.654  0.00  0.00     0.002 A 
ATOM     11  C   UNL d   1     -46.966  32.496  33.980  0.00  0.00     0.021 A 
ATOM     12  N   UNL d   1     -47.034  31.177  34.697  0.00  0.00    -0.225 NA
ENDBRANCH   1   4
BRANCH   1  13
ATOM     13  C   UNL d   1     -47.483  29.316  34.880  0.00  0.00     0.038 C 
BRANCH  13  14
ATOM     14  C   UNL d   1     -48.092  28.752  34.834  0.00  0.00     0.103 A 
ATOM     15  O   UNL d   1     -48.486  28.411  34.196  0.00  0.00    -0.290 OA
ATOM     16  C   UNL d   1     -49.036  27.889  34.497  0.00  0.00     0.168 A 
ATOM     17  C   UNL d   1     -48.991  27.899  35.304  0.00  0.00     0.045 A 
ATOM     18  C   UNL d   1     -48.406  28.434  35.526  0.00  0.00     0.028 A 
BRANCH  16  19
ATOM     19  N   UNL d   1     -49.572  27.406  34.097  0.00  0.00    -0.281 N 
ATOM     20  C   UNL d   1     -50.298  27.698  33.878  0.00  0.00     0.109 A 
ATOM     21  C   UNL d   1     -50.835  27.215  33.477  0.00  0.00     0.142 A 
ATOM     22  O   UNL d   1     -50.624  26.441  33.307  0.00  0.00    -0.300 OA
ATOM     23  C   UNL d   1     -49.895  26.141  33.525  0.00  0.00     0.142 A 
ATOM     24  C   UNL d   1     -49.364  26.630  33.925  0.00  0.00     0.109 A 
ENDBRANCH  16  19
ENDBRANCH  13  14
ENDBRANCH   1  13
TORSDOF 4
ENDMDL
