MODEL 1
REMARK VINA RESULT:      -3.9      0.000      0.000
REMARK  7 active torsions:
REMARK  status: ('A' for Active; 'I' for Inactive)
REMARK    1  A    between atoms: N_7  and  S_1 
REMARK    2  A    between atoms: C_19  and  S_1 
REMARK    3  A    between atoms: N_2  and  C_3 
REMARK    4  A    between atoms: C_3  and  C_6 
REMARK    5  A    between atoms: C_5  and  C_3 
REMARK    6  A    between atoms: C_16  and  N_4 
REMARK    7  A    between atoms: C_6  and  N_7 
ROOT
ATOM      1  C   UNL d   1      58.548  -0.735  29.704  0.00  0.00     0.107 C 
ENDROOT
BRANCH   1   2
ATOM      2  N   UNL d   1      58.078  -0.565  30.361  0.00  0.00    -0.298 N 
ATOM      3  C   UNL d   1      57.712  -1.178  30.775  0.00  0.00     0.100 A 
ATOM      4  C   UNL d   1      57.244  -1.005  31.429  0.00  0.00     0.100 A 
ATOM      5  N   UNL d   1      57.137  -0.226  31.674  0.00  0.00    -0.301 N 
ATOM      6  C   UNL d   1      57.503   0.386  31.260  0.00  0.00     0.100 A 
ATOM      7  C   UNL d   1      57.973   0.216  30.604  0.00  0.00     0.100 A 
BRANCH   5   8
ATOM      8  C   UNL d   1      56.671  -0.057  32.326  0.00  0.00     0.064 A 
ATOM      9  C   UNL d   1      56.939   0.460  32.902  0.00  0.00     0.018 A 
ATOM     10  C   UNL d   1      56.471   0.632  33.558  0.00  0.00     0.002 A 
ATOM     11  C   UNL d   1      55.729   0.281  33.634  0.00  0.00     0.000 A 
ATOM     12  C   UNL d   1      55.457  -0.240  33.054  0.00  0.00     0.002 A 
ATOM     13  C   UNL d   1      55.928  -0.408  32.402  0.00  0.00     0.018 A 
ENDBRANCH   5   8
ENDBRANCH   1   2
BRANCH   1  14
ATOM     14  C   UNL d   1      58.460  -1.442  29.285  0.00  0.00     0.132 C 
BRANCH  14  15
ATOM     15  N   UNL d   1      59.037  -2.045  29.376  0.00  0.00    -0.155 NA
BRANCH  15  16
ATOM     16  S   UNL d   1      58.985  -2.730  28.927  0.00  0.00     0.286 S 
ATOM     17  O   UNL d   1      58.279  -2.459  28.587  0.00  0.00    -0.198 OA
ATOM     18  O   UNL d   1      59.692  -2.998  29.271  0.00  0.00    -0.198 OA
BRANCH  16  19
ATOM     19  C   UNL d   1      58.942  -3.425  28.479  0.00  0.00     0.117 C 
ATOM     20  C   UNL d   1      59.552  -3.980  28.524  0.00  0.00     0.014 C 
ENDBRANCH  16  19
ENDBRANCH  15  16
ENDBRANCH  14  15
ENDBRANCH   1  14
BRANCH   1  21
ATOM     21  C   UNL d   1      59.128  -0.182  29.454  0.00  0.00     0.118 A 
ATOM     22  O   UNL d   1      59.082   0.160  28.708  0.00  0.00    -0.304 OA
ATOM     23  C   UNL d   1      59.725   0.677  28.622  0.00  0.00     0.123 A 
ATOM     24  C   UNL d   1      60.160   0.651  29.311  0.00  0.00     0.029 A 
ATOM     25  C   UNL d   1      59.793   0.120  29.828  0.00  0.00     0.028 A 
ENDBRANCH   1  21
TORSDOF 7
ENDMDL
