MODEL 1
REMARK VINA RESULT:      44.7      0.000      0.000
REMARK  6 active torsions:
REMARK  status: ('A' for Active; 'I' for Inactive)
REMARK    1  A    between atoms: C_7  and  C_1 
REMARK    2  A    between atoms: C_19  and  N_2 
REMARK    3  A    between atoms: C_18  and  N_3 
REMARK    4  A    between atoms: C_13  and  C_9 
REMARK    5  A    between atoms: O_20  and  C_13 
REMARK    6  A    between atoms: C_23  and  O_20 
ROOT
ATOM      1  C   UNL d   1      14.217  13.565  -1.942  0.00  0.00     0.013 A 
ATOM      2  C   UNL d   1      14.706  14.211  -1.764  0.00  0.00     0.030 A 
ATOM      3  C   UNL d   1      15.039  14.292  -1.018  0.00  0.00     0.163 A 
ATOM      4  O   UNL d   1      14.889  13.723  -0.430  0.00  0.00    -0.302 OA
ATOM      5  C   UNL d   1      14.062  12.994  -1.363  0.00  0.00     0.023 A 
ATOM      6  C   UNL d   1      14.399  13.074  -0.605  0.00  0.00     0.100 A 
ATOM      7  C   UNL d   1      13.576  12.347  -1.529  0.00  0.00     0.002 A 
ATOM      8  C   UNL d   1      14.244  12.501  -0.023  0.00  0.00     0.025 A 
ATOM      9  C   UNL d   1      13.422  11.779  -0.952  0.00  0.00     0.000 A 
ATOM     10  C   UNL d   1      13.759  11.857  -0.192  0.00  0.00     0.002 A 
ENDROOT
BRANCH   1  11
ATOM     11  C   UNL d   1      13.883  13.486  -2.692  0.00  0.00     0.113 A 
ATOM     12  C   UNL d   1      13.826  12.737  -3.038  0.00  0.00     0.271 A 
ATOM     13  N   UNL d   1      13.494  12.653  -3.785  0.00  0.00    -0.250 N 
ATOM     14  O   UNL d   1      14.102  12.074  -2.631  0.00  0.00    -0.266 OA
ATOM     15  C   UNL d   1      13.219  13.314  -4.188  0.00  0.00     0.196 A 
ATOM     16  N   UNL d   1      13.276  14.064  -3.842  0.00  0.00    -0.250 N 
ATOM     17  S   UNL d   1      12.884  13.234  -4.941  0.00  0.00    -0.039 SA
ATOM     18  C   UNL d   1      13.609  14.156  -3.090  0.00  0.00     0.271 A 
ATOM     19  O   UNL d   1      13.666  14.903  -2.745  0.00  0.00    -0.266 OA
BRANCH  13  20
ATOM     20  C   UNL d   1      13.437  11.907  -4.130  0.00  0.00     0.085 C 
ATOM     21  C   UNL d   1      13.337  11.835  -4.942  0.00  0.00     0.021 C 
ENDBRANCH  13  20
BRANCH  16  22
ATOM     22  C   UNL d   1      12.998  14.726  -4.252  0.00  0.00     0.085 C 
ATOM     23  C   UNL d   1      13.419  15.025  -4.893  0.00  0.00     0.021 C 
ENDBRANCH  16  22
ENDBRANCH   1  11
BRANCH   3  24
ATOM     24  C   UNL d   1      15.522  14.935  -0.851  0.00  0.00     0.323 C 
ATOM     25  O   UNL d   1      16.314  14.813  -0.655  0.00  0.00    -0.257 OA
BRANCH  24  26
ATOM     26  O   UNL d   1      15.218  15.698  -0.878  0.00  0.00    -0.270 OA
BRANCH  26  27
ATOM     27  C   UNL d   1      15.727  16.342  -0.926  0.00  0.00     0.126 C 
ATOM     28  C   UNL d   1      15.427  17.101  -1.039  0.00  0.00     0.029 C 
ENDBRANCH  26  27
ENDBRANCH  24  26
ENDBRANCH   3  24
TORSDOF 6
ENDMDL
MODEL 2
REMARK VINA RESULT:      47.3      0.398      1.515
REMARK  6 active torsions:
REMARK  status: ('A' for Active; 'I' for Inactive)
REMARK    1  A    between atoms: C_7  and  C_1 
REMARK    2  A    between atoms: C_19  and  N_2 
REMARK    3  A    between atoms: C_18  and  N_3 
REMARK    4  A    between atoms: C_13  and  C_9 
REMARK    5  A    between atoms: O_20  and  C_13 
REMARK    6  A    between atoms: C_23  and  O_20 
ROOT
ATOM      1  C   UNL d   1      14.413  13.721  -1.866  0.00  0.00     0.013 A 
ATOM      2  C   UNL d   1      14.793  14.437  -1.692  0.00  0.00     0.030 A 
ATOM      3  C   UNL d   1      15.169  14.548  -0.970  0.00  0.00     0.163 A 
ATOM      4  O   UNL d   1      15.173  13.939  -0.404  0.00  0.00    -0.302 OA
ATOM      5  C   UNL d   1      14.412  13.109  -1.308  0.00  0.00     0.023 A 
ATOM      6  C   UNL d   1      14.793  13.220  -0.575  0.00  0.00     0.100 A 
ATOM      7  C   UNL d   1      14.037  12.392  -1.471  0.00  0.00     0.002 A 
ATOM      8  C   UNL d   1      14.793  12.605  -0.014  0.00  0.00     0.025 A 
ATOM      9  C   UNL d   1      14.036  11.784  -0.915  0.00  0.00     0.000 A 
ATOM     10  C   UNL d   1      14.417  11.891  -0.180  0.00  0.00     0.002 A 
ENDROOT
BRANCH   1  11
ATOM     11  C   UNL d   1      14.036  13.612  -2.590  0.00  0.00     0.113 A 
ATOM     12  C   UNL d   1      13.717  14.265  -2.989  0.00  0.00     0.271 A 
ATOM     13  N   UNL d   1      13.341  14.161  -3.711  0.00  0.00    -0.250 N 
ATOM     14  O   UNL d   1      13.780  15.018  -2.658  0.00  0.00    -0.266 OA
ATOM     15  C   UNL d   1      13.280  13.410  -4.039  0.00  0.00     0.196 A 
ATOM     16  N   UNL d   1      13.598  12.757  -3.641  0.00  0.00    -0.250 N 
ATOM     17  S   UNL d   1      12.900  13.302  -4.767  0.00  0.00    -0.039 SA
ATOM     18  C   UNL d   1      13.979  12.853  -2.913  0.00  0.00     0.271 A 
ATOM     19  O   UNL d   1      14.296  12.204  -2.516  0.00  0.00    -0.266 OA
BRANCH  13  20
ATOM     20  C   UNL d   1      13.024  14.810  -4.108  0.00  0.00     0.085 C 
ATOM     21  C   UNL d   1      12.836  14.754  -4.906  0.00  0.00     0.021 C 
ENDBRANCH  13  20
BRANCH  16  22
ATOM     22  C   UNL d   1      13.534  12.004  -3.975  0.00  0.00     0.085 C 
ATOM     23  C   UNL d   1      12.845  11.779  -4.364  0.00  0.00     0.021 C 
ENDBRANCH  16  22
ENDBRANCH   1  11
BRANCH   3  24
ATOM     24  C   UNL d   1      15.543  15.261  -0.806  0.00  0.00     0.323 C 
ATOM     25  O   UNL d   1      16.238  15.268  -0.364  0.00  0.00    -0.257 OA
BRANCH  24  26
ATOM     26  O   UNL d   1      15.224  15.967  -1.082  0.00  0.00    -0.270 OA
BRANCH  26  27
ATOM     27  C   UNL d   1      15.297  16.654  -0.634  0.00  0.00     0.126 C 
ATOM     28  C   UNL d   1      15.588  17.344  -0.976  0.00  0.00     0.029 C 
ENDBRANCH  26  27
ENDBRANCH  24  26
ENDBRANCH   3  24
TORSDOF 6
ENDMDL
