MODEL 1
REMARK VINA RESULT:      19.4      0.000      0.000
REMARK  0 active torsions:
REMARK  status: ('A' for Active; 'I' for Inactive)
ROOT
ATOM      1  N   UNL d   1     -54.713-100.322 -37.385  0.00  0.00    -0.208 NA
ATOM      2  C   UNL d   1     -54.713-100.516 -38.186  0.00  0.00     0.279 A 
ATOM      3  C   UNL d   1     -54.715-101.908 -37.855  0.00  0.00     0.006 A 
ATOM      4  C   UNL d   1     -54.714-101.307 -38.421  0.00  0.00     0.058 A 
ATOM      5  C   UNL d   1     -54.714-100.925 -36.814  0.00  0.00     0.085 A 
ATOM      6  C   UNL d   1     -54.715-101.719 -37.056  0.00  0.00     0.018 A 
ATOM      7  O   UNL d   1     -54.712 -99.914 -38.752  0.00  0.00    -0.265 OA
ATOM      8  C   UNL d   1     -54.717-102.691 -38.089  0.00  0.00     0.000 A 
ATOM      9  C   UNL d   1     -54.715-101.504 -39.214  0.00  0.00     0.005 A 
ATOM     10  C   UNL d   1     -54.716-102.319 -36.494  0.00  0.00     0.002 A 
ATOM     11  C   UNL d   1     -54.714-100.736 -36.012  0.00  0.00     0.019 A 
ATOM     12  C   UNL d   1     -54.717-102.880 -38.880  0.00  0.00     0.000 A 
ATOM     13  C   UNL d   1     -54.716-102.290 -39.449  0.00  0.00     0.000 A 
ATOM     14  C   UNL d   1     -54.716-102.127 -35.686  0.00  0.00     0.000 A 
ATOM     15  C   UNL d   1     -54.715-101.338 -35.445  0.00  0.00     0.002 A 
ENDROOT
TORSDOF 0
ENDMDL
MODEL 2
REMARK VINA RESULT:      20.5      7.453      8.381
REMARK  0 active torsions:
REMARK  status: ('A' for Active; 'I' for Inactive)
ROOT
ATOM      1  N   UNL d   1     -57.848 -98.809 -45.601  0.00  0.00    -0.208 NA
ATOM      2  C   UNL d   1     -58.653 -98.809 -45.422  0.00  0.00     0.279 A 
ATOM      3  C   UNL d   1     -58.349 -98.774 -44.025  0.00  0.00     0.006 A 
ATOM      4  C   UNL d   1     -58.904 -98.792 -44.636  0.00  0.00     0.058 A 
ATOM      5  C   UNL d   1     -57.289 -98.791 -44.988  0.00  0.00     0.085 A 
ATOM      6  C   UNL d   1     -57.546 -98.773 -44.199  0.00  0.00     0.018 A 
ATOM      7  O   UNL d   1     -59.208 -98.827 -46.034  0.00  0.00    -0.265 OA
ATOM      8  C   UNL d   1     -58.598 -98.756 -43.247  0.00  0.00     0.000 A 
ATOM      9  C   UNL d   1     -59.700 -98.792 -44.454  0.00  0.00     0.005 A 
ATOM     10  C   UNL d   1     -56.995 -98.755 -43.589  0.00  0.00     0.002 A 
ATOM     11  C   UNL d   1     -56.483 -98.791 -45.161  0.00  0.00     0.019 A 
ATOM     12  C   UNL d   1     -59.391 -98.756 -43.073  0.00  0.00     0.000 A 
ATOM     13  C   UNL d   1     -59.950 -98.774 -43.673  0.00  0.00     0.000 A 
ATOM     14  C   UNL d   1     -56.184 -98.755 -43.765  0.00  0.00     0.000 A 
ATOM     15  C   UNL d   1     -55.928 -98.773 -44.550  0.00  0.00     0.002 A 
ENDROOT
TORSDOF 0
ENDMDL
MODEL 3
REMARK VINA RESULT:      21.3      1.862      2.095
REMARK  0 active torsions:
REMARK  status: ('A' for Active; 'I' for Inactive)
ROOT
ATOM      1  N   UNL d   1     -56.860-102.821 -37.235  0.00  0.00    -0.208 NA
ATOM      2  C   UNL d   1     -56.855-102.836 -38.059  0.00  0.00     0.279 A 
ATOM      3  C   UNL d   1     -55.424-102.842 -38.055  0.00  0.00     0.006 A 
ATOM      4  C   UNL d   1     -56.139-102.846 -38.469  0.00  0.00     0.058 A 
ATOM      5  C   UNL d   1     -56.143-102.818 -36.818  0.00  0.00     0.085 A 
ATOM      6  C   UNL d   1     -55.426-102.828 -37.234  0.00  0.00     0.018 A 
ATOM      7  O   UNL d   1     -57.570-102.840 -38.473  0.00  0.00    -0.265 OA
ATOM      8  C   UNL d   1     -54.716-102.853 -38.462  0.00  0.00     0.000 A 
ATOM      9  C   UNL d   1     -56.129-102.861 -39.286  0.00  0.00     0.005 A 
ATOM     10  C   UNL d   1     -54.713-102.824 -36.824  0.00  0.00     0.002 A 
ATOM     11  C   UNL d   1     -56.143-102.803 -35.993  0.00  0.00     0.019 A 
ATOM     12  C   UNL d   1     -54.712-102.867 -39.275  0.00  0.00     0.000 A 
ATOM     13  C   UNL d   1     -55.417-102.871 -39.695  0.00  0.00     0.000 A 
ATOM     14  C   UNL d   1     -54.715-102.810 -35.994  0.00  0.00     0.000 A 
ATOM     15  C   UNL d   1     -55.429-102.799 -35.579  0.00  0.00     0.002 A 
ENDROOT
TORSDOF 0
ENDMDL
