MODEL 1
REMARK VINA RESULT:      -5.1      0.000      0.000
REMARK  3 active torsions:
REMARK  status: ('A' for Active; 'I' for Inactive)
REMARK    1  A    between atoms: C_8  and  C_1 
REMARK    2  A    between atoms: C_9  and  C_8 
REMARK    3  A    between atoms: O_16  and  C_13 
ROOT
ATOM      1  C   UNL d   1     -41.332-123.078 -51.558  0.00  0.00     0.013 A 
ATOM      2  C   UNL d   1     -41.176-122.342 -52.782  0.00  0.00     0.105 A 
ATOM      3  O   UNL d   1     -41.125-121.648 -52.354  0.00  0.00    -0.273 OA
ATOM      4  C   UNL d   1     -41.281-123.070 -52.384  0.00  0.00     0.023 A 
ATOM      5  C   UNL d   1     -41.177-121.661 -51.530  0.00  0.00     0.300 A 
ATOM      6  C   UNL d   1     -41.280-122.375 -51.134  0.00  0.00     0.069 A 
ATOM      7  C   UNL d   1     -41.126-122.334 -53.595  0.00  0.00     0.049 A 
ATOM      8  C   UNL d   1     -41.332-123.768 -52.809  0.00  0.00     0.004 A 
ATOM      9  O   UNL d   1     -41.124-120.942 -51.100  0.00  0.00    -0.259 OA
ATOM     10  C   UNL d   1     -41.178-123.042 -54.029  0.00  0.00     0.096 A 
ATOM     11  C   UNL d   1     -41.280-123.754 -53.637  0.00  0.00     0.024 A 
ENDROOT
BRANCH   1  12
ATOM     12  C   UNL d   1     -41.436-123.798 -51.169  0.00  0.00     0.070 C 
BRANCH  12  13
ATOM     13  C   UNL d   1     -41.733-123.801 -50.397  0.00  0.00     0.211 C 
ATOM     14  O   UNL d   1     -42.558-123.792 -50.271  0.00  0.00    -0.644 OA
ATOM     15  O   UNL d   1     -41.221-123.812 -49.751  0.00  0.00    -0.644 OA
ENDBRANCH  12  13
ENDBRANCH   1  12
BRANCH  10  16
ATOM     16  O   UNL d   1     -41.126-123.026 -54.851  0.00  0.00    -0.328 OA
ATOM     17  C   UNL d   1     -41.716-122.651 -55.297  0.00  0.00     0.181 C 
ENDBRANCH  10  16
TORSDOF 3
ENDMDL
MODEL 2
REMARK VINA RESULT:      -3.8      0.933      3.239
REMARK  3 active torsions:
REMARK  status: ('A' for Active; 'I' for Inactive)
REMARK    1  A    between atoms: C_8  and  C_1 
REMARK    2  A    between atoms: C_9  and  C_8 
REMARK    3  A    between atoms: O_16  and  C_13 
ROOT
ATOM      1  C   UNL d   1     -41.266-122.187 -52.409  0.00  0.00     0.013 A 
ATOM      2  C   UNL d   1     -41.158-122.129 -50.977  0.00  0.00     0.105 A 
ATOM      3  O   UNL d   1     -41.123-121.314 -51.016  0.00  0.00    -0.273 OA
ATOM      4  C   UNL d   1     -41.230-122.577 -51.680  0.00  0.00     0.023 A 
ATOM      5  C   UNL d   1     -41.159-120.929 -51.745  0.00  0.00     0.300 A 
ATOM      6  C   UNL d   1     -41.230-121.365 -52.440  0.00  0.00     0.069 A 
ATOM      7  C   UNL d   1     -41.123-122.513 -50.260  0.00  0.00     0.049 A 
ATOM      8  C   UNL d   1     -41.266-123.394 -51.645  0.00  0.00     0.004 A 
ATOM      9  O   UNL d   1     -41.123-120.091 -51.774  0.00  0.00    -0.259 OA
ATOM     10  C   UNL d   1     -41.159-123.344 -50.222  0.00  0.00     0.096 A 
ATOM     11  C   UNL d   1     -41.230-123.781 -50.912  0.00  0.00     0.024 A 
ENDROOT
BRANCH   1  12
ATOM     12  C   UNL d   1     -41.337-122.632 -53.099  0.00  0.00     0.070 C 
BRANCH  12  13
ATOM     13  C   UNL d   1     -41.656-122.279 -53.776  0.00  0.00     0.211 C 
ATOM     14  O   UNL d   1     -41.150-122.025 -54.389  0.00  0.00    -0.644 OA
ATOM     15  O   UNL d   1     -42.471-122.176 -53.850  0.00  0.00    -0.644 OA
ENDBRANCH  12  13
ENDBRANCH   1  12
BRANCH  10  16
ATOM     16  O   UNL d   1     -41.123-123.725 -49.492  0.00  0.00    -0.328 OA
ATOM     17  C   UNL d   1     -41.810-123.816 -49.038  0.00  0.00     0.181 C 
ENDBRANCH  10  16
TORSDOF 3
ENDMDL
MODEL 3
REMARK VINA RESULT:      -3.8      1.829      4.247
REMARK  3 active torsions:
REMARK  status: ('A' for Active; 'I' for Inactive)
REMARK    1  A    between atoms: C_8  and  C_1 
REMARK    2  A    between atoms: C_9  and  C_8 
REMARK    3  A    between atoms: O_16  and  C_13 
ROOT
ATOM      1  C   UNL d   1     -41.840-122.730 -50.464  0.00  0.00     0.013 A 
ATOM      2  C   UNL d   1     -42.495-122.920 -49.198  0.00  0.00     0.105 A 
ATOM      3  O   UNL d   1     -43.169-122.570 -49.498  0.00  0.00    -0.273 OA
ATOM      4  C   UNL d   1     -41.818-123.004 -49.683  0.00  0.00     0.023 A 
ATOM      5  C   UNL d   1     -43.187-122.298 -50.278  0.00  0.00     0.300 A 
ATOM      6  C   UNL d   1     -42.524-122.378 -50.758  0.00  0.00     0.069 A 
ATOM      7  C   UNL d   1     -42.473-123.190 -48.430  0.00  0.00     0.049 A 
ATOM      8  C   UNL d   1     -41.140-123.354 -49.386  0.00  0.00     0.004 A 
ATOM      9  O   UNL d   1     -43.885-121.939 -50.576  0.00  0.00    -0.259 OA
ATOM     10  C   UNL d   1     -41.785-123.546 -48.127  0.00  0.00     0.096 A 
ATOM     11  C   UNL d   1     -41.123-123.628 -48.603  0.00  0.00     0.024 A 
ENDROOT
BRANCH   1  12
ATOM     12  C   UNL d   1     -41.172-122.814 -50.938  0.00  0.00     0.070 C 
BRANCH  12  13
ATOM     13  C   UNL d   1     -41.232-122.670 -51.751  0.00  0.00     0.211 C 
ATOM     14  O   UNL d   1     -41.152-121.892 -52.040  0.00  0.00    -0.644 OA
ATOM     15  O   UNL d   1     -41.371-123.290 -52.277  0.00  0.00    -0.644 OA
ENDBRANCH  12  13
ENDBRANCH   1  12
BRANCH  10  16
ATOM     16  O   UNL d   1     -41.770-123.817 -47.348  0.00  0.00    -0.328 OA
ATOM     17  C   UNL d   1     -41.423-123.354 -46.755  0.00  0.00     0.181 C 
ENDBRANCH  10  16
TORSDOF 3
ENDMDL
