MODEL 1
REMARK VINA RESULT:      -8.2      0.000      0.000
REMARK  4 active torsions:
REMARK  status: ('A' for Active; 'I' for Inactive)
REMARK    1  A    between atoms: N_3  and  C_1 
REMARK    2  A    between atoms: C_7  and  C_2 
REMARK       I    between atoms: C_5  and  N_3 
REMARK    3  A    between atoms: C_4  and  C_5 
REMARK    4  A    between atoms: O_17  and  C_7 
ROOT
ATOM      1  N   UNL d   1      52.059  32.705  52.646  0.00  0.00    -0.200 NA
ATOM      2  C   UNL d   1      52.610  32.202  52.996  0.00  0.00     0.304 C 
ATOM      3  O   UNL d   1      52.492  31.379  52.951  0.00  0.00    -0.263 OA
ENDROOT
BRANCH   2   4
ATOM      4  C   UNL d   1      53.267  32.515  53.383  0.00  0.00     0.182 A 
ATOM      5  O   UNL d   1      53.246  32.619  54.194  0.00  0.00    -0.298 OA
ATOM      6  C   UNL d   1      53.901  32.930  54.573  0.00  0.00     0.123 A 
ATOM      7  C   UNL d   1      53.887  33.040  55.394  0.00  0.00     0.027 A 
ATOM      8  C   UNL d   1      54.575  33.139  54.162  0.00  0.00     0.123 A 
ATOM      9  C   UNL d   1      54.543  33.352  55.777  0.00  0.00     0.002 A 
ATOM     10  C   UNL d   1      55.222  33.559  55.350  0.00  0.00     0.002 A 
ATOM     11  C   UNL d   1      55.236  33.450  54.531  0.00  0.00     0.027 A 
ATOM     12  O   UNL d   1      54.587  33.028  53.333  0.00  0.00    -0.301 OA
ATOM     13  C   UNL d   1      53.933  32.716  52.944  0.00  0.00     0.152 A 
ENDBRANCH   2   4
BRANCH   1  14
ATOM     14  C   UNL d   1      52.168  33.519  52.686  0.00  0.00     0.119 A 
ATOM     15  C   UNL d   1      51.581  34.080  52.842  0.00  0.00     0.087 A 
ATOM     16  C   UNL d   1      51.936  34.832  52.829  0.00  0.00     0.014 A 
ATOM     17  C   UNL d   1      52.739  34.727  52.665  0.00  0.00     0.037 A 
ATOM     18  S   UNL d   1      52.875  33.920  52.578  0.00  0.00    -0.067 SA
BRANCH  15  19
ATOM     19  C   UNL d   1      50.785  33.928  52.986  0.00  0.00     0.298 C 
ATOM     20  O   UNL d   1      50.546  33.676  53.738  0.00  0.00    -0.259 OA
BRANCH  19  21
ATOM     21  O   UNL d   1      50.228  34.027  52.386  0.00  0.00    -0.296 OA
ATOM     22  C   UNL d   1      49.480  34.311  52.565  0.00  0.00     0.185 C 
ENDBRANCH  19  21
ENDBRANCH  15  19
ENDBRANCH   1  14
TORSDOF 4
ENDMDL
MODEL 2
REMARK VINA RESULT:      -7.9      1.802      3.738
REMARK  4 active torsions:
REMARK  status: ('A' for Active; 'I' for Inactive)
REMARK    1  A    between atoms: N_3  and  C_1 
REMARK    2  A    between atoms: C_7  and  C_2 
REMARK       I    between atoms: C_5  and  N_3 
REMARK    3  A    between atoms: C_4  and  C_5 
REMARK    4  A    between atoms: O_17  and  C_7 
ROOT
ATOM      1  N   UNL d   1      53.766  31.406  54.331  0.00  0.00    -0.200 NA
ATOM      2  C   UNL d   1      53.637  32.202  54.502  0.00  0.00     0.304 C 
ATOM      3  O   UNL d   1      53.927  32.515  55.216  0.00  0.00    -0.263 OA
ENDROOT
BRANCH   2   4
ATOM      4  C   UNL d   1      53.223  32.676  53.969  0.00  0.00     0.182 A 
ATOM      5  O   UNL d   1      52.422  32.798  54.074  0.00  0.00    -0.298 OA
ATOM      6  C   UNL d   1      52.017  33.270  53.542  0.00  0.00     0.123 A 
ATOM      7  C   UNL d   1      51.205  33.398  53.643  0.00  0.00     0.027 A 
ATOM      8  C   UNL d   1      52.393  33.621  52.908  0.00  0.00     0.123 A 
ATOM      9  C   UNL d   1      50.796  33.871  53.110  0.00  0.00     0.002 A 
ATOM     10  C   UNL d   1      51.187  34.223  52.471  0.00  0.00     0.002 A 
ATOM     11  C   UNL d   1      51.998  34.095  52.370  0.00  0.00     0.027 A 
ATOM     12  O   UNL d   1      53.213  33.490  52.809  0.00  0.00    -0.301 OA
ATOM     13  C   UNL d   1      53.628  33.018  53.339  0.00  0.00     0.152 A 
ENDBRANCH   2   4
BRANCH   1  14
ATOM     14  C   UNL d   1      53.482  31.089  53.628  0.00  0.00     0.119 A 
ATOM     15  C   UNL d   1      53.118  30.351  53.541  0.00  0.00     0.087 A 
ATOM     16  C   UNL d   1      52.920  30.257  52.739  0.00  0.00     0.014 A 
ATOM     17  C   UNL d   1      53.164  30.938  52.339  0.00  0.00     0.037 A 
ATOM     18  S   UNL d   1      53.508  31.444  52.890  0.00  0.00    -0.067 SA
BRANCH  15  19
ATOM     19  C   UNL d   1      52.974  29.803  54.137  0.00  0.00     0.298 C 
ATOM     20  O   UNL d   1      52.209  29.727  54.447  0.00  0.00    -0.259 OA
BRANCH  19  21
ATOM     21  O   UNL d   1      53.587  29.332  54.426  0.00  0.00    -0.296 OA
ATOM     22  C   UNL d   1      53.415  28.670  54.879  0.00  0.00     0.185 C 
ENDBRANCH  19  21
ENDBRANCH  15  19
ENDBRANCH   1  14
TORSDOF 4
ENDMDL
MODEL 3
REMARK VINA RESULT:      -7.7      1.780      2.813
REMARK  4 active torsions:
REMARK  status: ('A' for Active; 'I' for Inactive)
REMARK    1  A    between atoms: N_3  and  C_1 
REMARK    2  A    between atoms: C_7  and  C_2 
REMARK       I    between atoms: C_5  and  N_3 
REMARK    3  A    between atoms: C_4  and  C_5 
REMARK    4  A    between atoms: O_17  and  C_7 
ROOT
ATOM      1  N   UNL d   1      53.793  33.414  53.316  0.00  0.00    -0.200 NA
ATOM      2  C   UNL d   1      54.214  32.709  53.240  0.00  0.00     0.304 C 
ATOM      3  O   UNL d   1      55.043  32.737  53.177  0.00  0.00    -0.263 OA
ENDROOT
BRANCH   2   4
ATOM      4  C   UNL d   1      53.812  31.988  53.226  0.00  0.00     0.182 A 
ATOM      5  O   UNL d   1      53.861  31.487  53.870  0.00  0.00    -0.298 OA
ATOM      6  C   UNL d   1      53.461  30.773  53.851  0.00  0.00     0.123 A 
ATOM      7  C   UNL d   1      53.505  30.260  54.500  0.00  0.00     0.027 A 
ATOM      8  C   UNL d   1      53.015  30.550  53.205  0.00  0.00     0.123 A 
ATOM      9  C   UNL d   1      53.105  29.543  54.483  0.00  0.00     0.002 A 
ATOM     10  C   UNL d   1      52.655  29.326  53.823  0.00  0.00     0.002 A 
ATOM     11  C   UNL d   1      52.610  29.838  53.175  0.00  0.00     0.027 A 
ATOM     12  O   UNL d   1      52.971  31.069  52.551  0.00  0.00    -0.301 OA
ATOM     13  C   UNL d   1      53.370  31.788  52.562  0.00  0.00     0.152 A 
ENDBRANCH   2   4
BRANCH   1  14
ATOM     14  C   UNL d   1      52.973  33.394  53.379  0.00  0.00     0.119 A 
ATOM     15  C   UNL d   1      52.516  33.838  53.905  0.00  0.00     0.087 A 
ATOM     16  C   UNL d   1      51.718  33.644  53.777  0.00  0.00     0.014 A 
ATOM     17  C   UNL d   1      51.691  33.082  53.173  0.00  0.00     0.037 A 
ATOM     18  S   UNL d   1      52.463  32.933  52.932  0.00  0.00    -0.067 SA
BRANCH  15  19
ATOM     19  C   UNL d   1      52.795  34.378  54.460  0.00  0.00     0.298 C 
ATOM     20  O   UNL d   1      52.964  34.123  55.230  0.00  0.00    -0.259 OA
BRANCH  19  21
ATOM     21  O   UNL d   1      52.907  35.169  54.252  0.00  0.00    -0.296 OA
ATOM     22  C   UNL d   1      52.996  35.737  54.837  0.00  0.00     0.185 C 
ENDBRANCH  19  21
ENDBRANCH  15  19
ENDBRANCH   1  14
TORSDOF 4
ENDMDL
MODEL 4
REMARK VINA RESULT:      -7.4      1.794      3.183
REMARK  4 active torsions:
REMARK  status: ('A' for Active; 'I' for Inactive)
REMARK    1  A    between atoms: N_3  and  C_1 
REMARK    2  A    between atoms: C_7  and  C_2 
REMARK       I    between atoms: C_5  and  N_3 
REMARK    3  A    between atoms: C_4  and  C_5 
REMARK    4  A    between atoms: O_17  and  C_7 
ROOT
ATOM      1  N   UNL d   1      52.417  31.161  53.172  0.00  0.00    -0.200 NA
ATOM      2  C   UNL d   1      52.329  31.943  53.414  0.00  0.00     0.304 C 
ATOM      3  O   UNL d   1      51.566  32.276  53.440  0.00  0.00    -0.263 OA
ENDROOT
BRANCH   2   4
ATOM      4  C   UNL d   1      52.992  32.387  53.626  0.00  0.00     0.182 A 
ATOM      5  O   UNL d   1      53.192  32.461  54.415  0.00  0.00    -0.298 OA
ATOM      6  C   UNL d   1      53.850  32.902  54.619  0.00  0.00     0.123 A 
ATOM      7  C   UNL d   1      54.060  32.982  55.417  0.00  0.00     0.027 A 
ATOM      8  C   UNL d   1      54.311  33.270  54.055  0.00  0.00     0.123 A 
ATOM      9  C   UNL d   1      54.720  33.424  55.625  0.00  0.00     0.002 A 
ATOM     10  C   UNL d   1      55.181  33.793  55.044  0.00  0.00     0.002 A 
ATOM     11  C   UNL d   1      54.972  33.714  54.248  0.00  0.00     0.027 A 
ATOM     12  O   UNL d   1      54.098  33.189  53.251  0.00  0.00    -0.301 OA
ATOM     13  C   UNL d   1      53.438  32.747  53.036  0.00  0.00     0.152 A 
ENDBRANCH   2   4
BRANCH   1  14
ATOM     14  C   UNL d   1      53.167  30.825  53.144  0.00  0.00     0.119 A 
ATOM     15  C   UNL d   1      53.393  30.111  53.495  0.00  0.00     0.087 A 
ATOM     16  C   UNL d   1      54.198  29.987  53.327  0.00  0.00     0.014 A 
ATOM     17  C   UNL d   1      54.460  30.625  52.873  0.00  0.00     0.037 A 
ATOM     18  S   UNL d   1      53.824  31.136  52.764  0.00  0.00    -0.067 SA
BRANCH  15  19
ATOM     19  C   UNL d   1      52.912  29.609  53.935  0.00  0.00     0.298 C 
ATOM     20  O   UNL d   1      52.247  29.265  53.580  0.00  0.00    -0.259 OA
BRANCH  19  21
ATOM     21  O   UNL d   1      53.090  29.447  54.724  0.00  0.00    -0.296 OA
ATOM     22  C   UNL d   1      53.023  28.682  55.010  0.00  0.00     0.185 C 
ENDBRANCH  19  21
ENDBRANCH  15  19
ENDBRANCH   1  14
TORSDOF 4
ENDMDL
MODEL 5
REMARK VINA RESULT:      -7.1      1.525      3.713
REMARK  4 active torsions:
REMARK  status: ('A' for Active; 'I' for Inactive)
REMARK    1  A    between atoms: N_3  and  C_1 
REMARK    2  A    between atoms: C_7  and  C_2 
REMARK       I    between atoms: C_5  and  N_3 
REMARK    3  A    between atoms: C_4  and  C_5 
REMARK    4  A    between atoms: O_17  and  C_7 
ROOT
ATOM      1  N   UNL d   1      53.909  33.884  54.873  0.00  0.00    -0.200 NA
ATOM      2  C   UNL d   1      53.276  34.408  54.812  0.00  0.00     0.304 C 
ATOM      3  O   UNL d   1      53.109  34.917  55.449  0.00  0.00    -0.263 OA
ENDROOT
BRANCH   2   4
ATOM      4  C   UNL d   1      52.817  34.422  54.127  0.00  0.00     0.182 A 
ATOM      5  O   UNL d   1      52.107  34.017  54.108  0.00  0.00    -0.298 OA
ATOM      6  C   UNL d   1      51.656  34.034  53.425  0.00  0.00     0.123 A 
ATOM      7  C   UNL d   1      50.936  33.626  53.399  0.00  0.00     0.027 A 
ATOM      8  C   UNL d   1      51.897  34.447  52.763  0.00  0.00     0.123 A 
ATOM      9  C   UNL d   1      50.481  33.642  52.715  0.00  0.00     0.002 A 
ATOM     10  C   UNL d   1      50.735  34.064  52.049  0.00  0.00     0.002 A 
ATOM     11  C   UNL d   1      51.454  34.472  52.075  0.00  0.00     0.027 A 
ATOM     12  O   UNL d   1      52.624  34.858  52.793  0.00  0.00    -0.301 OA
ATOM     13  C   UNL d   1      53.084  34.846  53.474  0.00  0.00     0.152 A 
ENDBRANCH   2   4
BRANCH   1  14
ATOM     14  C   UNL d   1      54.080  33.377  54.249  0.00  0.00     0.119 A 
ATOM     15  C   UNL d   1      54.091  32.551  54.284  0.00  0.00     0.087 A 
ATOM     16  C   UNL d   1      54.290  32.266  53.528  0.00  0.00     0.014 A 
ATOM     17  C   UNL d   1      54.400  32.919  53.035  0.00  0.00     0.037 A 
ATOM     18  S   UNL d   1      54.270  33.598  53.482  0.00  0.00    -0.067 SA
BRANCH  15  19
ATOM     19  C   UNL d   1      53.934  32.087  54.945  0.00  0.00     0.298 C 
ATOM     20  O   UNL d   1      54.259  32.296  55.678  0.00  0.00    -0.259 OA
BRANCH  19  21
ATOM     21  O   UNL d   1      53.456  31.418  54.880  0.00  0.00    -0.296 OA
ATOM     22  C   UNL d   1      53.495  30.829  55.449  0.00  0.00     0.185 C 
ENDBRANCH  19  21
ENDBRANCH  15  19
ENDBRANCH   1  14
TORSDOF 4
ENDMDL
MODEL 6
REMARK VINA RESULT:      -6.5      1.134      3.842
REMARK  4 active torsions:
REMARK  status: ('A' for Active; 'I' for Inactive)
REMARK    1  A    between atoms: N_3  and  C_1 
REMARK    2  A    between atoms: C_7  and  C_2 
REMARK       I    between atoms: C_5  and  N_3 
REMARK    3  A    between atoms: C_4  and  C_5 
REMARK    4  A    between atoms: O_17  and  C_7 
ROOT
ATOM      1  N   UNL d   1      53.384  33.242  53.272  0.00  0.00    -0.200 NA
ATOM      2  C   UNL d   1      52.756  32.854  52.905  0.00  0.00     0.304 C 
ATOM      3  O   UNL d   1      52.892  32.121  52.537  0.00  0.00    -0.263 OA
ENDROOT
BRANCH   2   4
ATOM      4  C   UNL d   1      52.003  33.193  52.908  0.00  0.00     0.182 A 
ATOM      5  O   UNL d   1      51.726  33.565  52.235  0.00  0.00    -0.298 OA
ATOM      6  C   UNL d   1      50.979  33.900  52.243  0.00  0.00     0.123 A 
ATOM      7  C   UNL d   1      50.692  34.278  51.565  0.00  0.00     0.027 A 
ATOM      8  C   UNL d   1      50.504  33.871  52.907  0.00  0.00     0.123 A 
ATOM      9  C   UNL d   1      49.943  34.615  51.570  0.00  0.00     0.002 A 
ATOM     10  C   UNL d   1      49.469  34.580  52.248  0.00  0.00     0.002 A 
ATOM     11  C   UNL d   1      49.756  34.202  52.926  0.00  0.00     0.027 A 
ATOM     12  O   UNL d   1      50.797  33.488  53.590  0.00  0.00    -0.301 OA
ATOM     13  C   UNL d   1      51.546  33.149  53.590  0.00  0.00     0.152 A 
ENDBRANCH   2   4
BRANCH   1  14
ATOM     14  C   UNL d   1      53.256  33.967  53.638  0.00  0.00     0.119 A 
ATOM     15  C   UNL d   1      53.554  34.196  54.375  0.00  0.00     0.087 A 
ATOM     16  C   UNL d   1      53.289  34.970  54.528  0.00  0.00     0.014 A 
ATOM     17  C   UNL d   1      52.830  35.209  53.884  0.00  0.00     0.037 A 
ATOM     18  S   UNL d   1      52.814  34.590  53.342  0.00  0.00    -0.067 SA
BRANCH  15  19
ATOM     19  C   UNL d   1      54.029  33.745  54.873  0.00  0.00     0.298 C 
ATOM     20  O   UNL d   1      53.678  33.286  55.467  0.00  0.00    -0.259 OA
BRANCH  19  21
ATOM     21  O   UNL d   1      54.849  33.749  54.783  0.00  0.00    -0.296 OA
ATOM     22  C   UNL d   1      55.333  33.640  55.436  0.00  0.00     0.185 C 
ENDBRANCH  19  21
ENDBRANCH  15  19
ENDBRANCH   1  14
TORSDOF 4
ENDMDL
