MODEL 1
REMARK VINA RESULT:      67.1      0.000      0.000
REMARK  6 active torsions:
REMARK  status: ('A' for Active; 'I' for Inactive)
REMARK    1  A    between atoms: C_9  and  C_1 
REMARK    2  A    between atoms: N_4  and  C_2 
REMARK       I    between atoms: C_5  and  N_4 
REMARK    3  A    between atoms: C_7  and  C_5 
REMARK    4  A    between atoms: O_13  and  C_9 
REMARK    5  A    between atoms: O_16  and  C_11 
REMARK    6  A    between atoms: C_19  and  O_13 
ROOT
ATOM      1  C   UNL d   1     -51.947  25.437  33.345  0.00  0.00     0.181 A 
ATOM      2  C   UNL d   1     -51.132  25.604  33.324  0.00  0.00     0.115 A 
ATOM      3  O   UNL d   1     -52.024  24.612  33.359  0.00  0.00    -0.300 OA
ATOM      4  C   UNL d   1     -50.727  24.894  33.325  0.00  0.00     0.043 A 
ATOM      5  C   UNL d   1     -51.277  24.277  33.346  0.00  0.00     0.102 A 
ATOM      6  C   UNL d   1     -49.920  24.724  33.309  0.00  0.00     0.004 A 
ATOM      7  C   UNL d   1     -51.020  23.499  33.352  0.00  0.00     0.025 A 
ATOM      8  C   UNL d   1     -49.662  23.936  33.315  0.00  0.00     0.000 A 
ATOM      9  C   UNL d   1     -50.220  23.325  33.336  0.00  0.00     0.002 A 
ENDROOT
BRANCH   2  10
ATOM     10  N   UNL d   1     -50.795  26.364  33.306  0.00  0.00    -0.206 NA
ATOM     11  C   UNL d   1     -50.502  26.698  33.999  0.00  0.00     0.281 C 
ATOM     12  O   UNL d   1     -50.542  26.284  34.710  0.00  0.00    -0.265 OA
BRANCH  11  13
ATOM     13  C   UNL d   1     -50.168  27.449  33.979  0.00  0.00     0.080 A 
ATOM     14  C   UNL d   1     -49.533  27.639  34.488  0.00  0.00     0.099 A 
ATOM     15  C   UNL d   1     -49.209  28.389  34.460  0.00  0.00     0.024 A 
ATOM     16  C   UNL d   1     -49.511  28.955  33.930  0.00  0.00     0.002 A 
ATOM     17  C   UNL d   1     -50.133  28.760  33.436  0.00  0.00     0.000 A 
ATOM     18  C   UNL d   1     -50.463  28.010  33.458  0.00  0.00     0.007 A 
BRANCH  14  19
ATOM     19  O   UNL d   1     -49.247  27.070  35.004  0.00  0.00    -0.328 OA
ATOM     20  C   UNL d   1     -48.471  26.807  34.907  0.00  0.00     0.181 C 
ENDBRANCH  14  19
ENDBRANCH  11  13
ENDBRANCH   2  10
BRANCH   1  21
ATOM     21  C   UNL d   1     -52.560  25.989  33.351  0.00  0.00     0.325 C 
ATOM     22  O   UNL d   1     -52.387  26.799  33.329  0.00  0.00    -0.257 OA
BRANCH  21  23
ATOM     23  O   UNL d   1     -53.337  25.733  33.379  0.00  0.00    -0.269 OA
BRANCH  23  24
ATOM     24  C   UNL d   1     -53.957  26.283  33.310  0.00  0.00     0.126 C 
ATOM     25  C   UNL d   1     -54.629  26.204  33.792  0.00  0.00     0.029 C 
ENDBRANCH  23  24
ENDBRANCH  21  23
ENDBRANCH   1  21
TORSDOF 6
ENDMDL
MODEL 2
REMARK VINA RESULT:      69.4      1.821      3.918
REMARK  6 active torsions:
REMARK  status: ('A' for Active; 'I' for Inactive)
REMARK    1  A    between atoms: C_9  and  C_1 
REMARK    2  A    between atoms: N_4  and  C_2 
REMARK       I    between atoms: C_5  and  N_4 
REMARK    3  A    between atoms: C_7  and  C_5 
REMARK    4  A    between atoms: O_13  and  C_9 
REMARK    5  A    between atoms: O_16  and  C_11 
REMARK    6  A    between atoms: C_19  and  O_13 
ROOT
ATOM      1  C   UNL d   1     -51.208  26.533  35.628  0.00  0.00     0.181 A 
ATOM      2  C   UNL d   1     -51.156  26.137  34.899  0.00  0.00     0.115 A 
ATOM      3  O   UNL d   1     -50.702  27.187  35.585  0.00  0.00    -0.300 OA
ATOM      4  C   UNL d   1     -50.628  26.545  34.425  0.00  0.00     0.043 A 
ATOM      5  C   UNL d   1     -50.345  27.196  34.847  0.00  0.00     0.102 A 
ATOM      6  C   UNL d   1     -50.364  26.408  33.655  0.00  0.00     0.004 A 
ATOM      7  C   UNL d   1     -49.803  27.705  34.502  0.00  0.00     0.025 A 
ATOM      8  C   UNL d   1     -49.816  26.924  33.307  0.00  0.00     0.000 A 
ATOM      9  C   UNL d   1     -49.538  27.574  33.738  0.00  0.00     0.002 A 
ENDROOT
BRANCH   2  10
ATOM     10  N   UNL d   1     -51.571  25.446  34.692  0.00  0.00    -0.206 NA
ATOM     11  C   UNL d   1     -51.826  25.339  33.916  0.00  0.00     0.281 C 
ATOM     12  O   UNL d   1     -51.672  25.911  33.345  0.00  0.00    -0.265 OA
BRANCH  11  13
ATOM     13  C   UNL d   1     -52.235  24.656  33.714  0.00  0.00     0.080 A 
ATOM     14  C   UNL d   1     -51.844  23.918  33.711  0.00  0.00     0.099 A 
ATOM     15  C   UNL d   1     -52.262  23.245  33.507  0.00  0.00     0.024 A 
ATOM     16  C   UNL d   1     -53.067  23.298  33.306  0.00  0.00     0.002 A 
ATOM     17  C   UNL d   1     -53.441  24.025  33.311  0.00  0.00     0.000 A 
ATOM     18  C   UNL d   1     -53.030  24.704  33.514  0.00  0.00     0.007 A 
BRANCH  14  19
ATOM     19  O   UNL d   1     -51.051  23.882  33.912  0.00  0.00    -0.328 OA
ATOM     20  C   UNL d   1     -50.498  23.776  33.309  0.00  0.00     0.181 C 
ENDBRANCH  14  19
ENDBRANCH  11  13
ENDBRANCH   2  10
BRANCH   1  21
ATOM     21  C   UNL d   1     -51.676  26.314  36.272  0.00  0.00     0.325 C 
ATOM     22  O   UNL d   1     -52.490  26.466  36.260  0.00  0.00    -0.257 OA
BRANCH  21  23
ATOM     23  O   UNL d   1     -51.333  25.948  36.918  0.00  0.00    -0.269 OA
BRANCH  23  24
ATOM     24  C   UNL d   1     -51.394  26.294  37.672  0.00  0.00     0.126 C 
ATOM     25  C   UNL d   1     -51.790  25.887  38.278  0.00  0.00     0.029 C 
ENDBRANCH  23  24
ENDBRANCH  21  23
ENDBRANCH   1  21
TORSDOF 6
ENDMDL
