MODEL 1
REMARK VINA RESULT:      -7.9      0.000      0.000
REMARK  7 active torsions:
REMARK  status: ('A' for Active; 'I' for Inactive)
REMARK    1  A    between atoms: N_10  and  C_4 
REMARK    2  A    between atoms: C_16  and  N_5 
REMARK    3  A    between atoms: C_18  and  N_11 
REMARK    4  A    between atoms: C_22  and  C_16 
REMARK    5  A    between atoms: C_21  and  C_18 
REMARK    6  A    between atoms: C_24  and  C_22 
REMARK    7  A    between atoms: C_23  and  C_24 
ROOT
ATOM      1  C   UNL d   1      53.713  34.165  54.475  0.00  0.00     0.191 A 
ATOM      2  C   UNL d   1      53.873  33.486  54.037  0.00  0.00     0.174 A 
ATOM      3  N   UNL d   1      52.969  34.449  54.256  0.00  0.00    -0.042 NA
ATOM      4  C   UNL d   1      52.680  33.930  53.678  0.00  0.00     0.722 A 
ATOM      5  N   UNL d   1      53.231  33.336  53.539  0.00  0.00    -0.132 N 
ATOM      6  N   UNL d   1      54.264  34.451  55.026  0.00  0.00    -0.239 N 
ATOM      7  C   UNL d   1      54.995  34.041  55.138  0.00  0.00     0.358 A 
ATOM      8  N   UNL d   1      55.155  33.361  54.700  0.00  0.00    -0.152 NA
ATOM      9  C   UNL d   1      54.588  33.080  54.143  0.00  0.00     0.303 A 
ATOM     10  O   UNL d   1      55.565  34.325  55.699  0.00  0.00    -0.244 OA
ATOM     11  O   UNL d   1      54.749  32.394  53.702  0.00  0.00    -0.263 OA
ATOM     12  C   UNL d   1      54.104  35.131  55.464  0.00  0.00     0.105 C 
ENDROOT
BRANCH   4  13
ATOM     13  N   UNL d   1      51.947  34.002  53.300  0.00  0.00    -0.136 N 
ATOM     14  C   UNL d   1      51.900  34.360  52.557  0.00  0.00     0.117 A 
ATOM     15  C   UNL d   1      51.170  34.431  52.180  0.00  0.00     0.100 A 
ATOM     16  N   UNL d   1      50.490  34.145  52.542  0.00  0.00    -0.300 N 
ATOM     17  C   UNL d   1      50.525  33.783  53.288  0.00  0.00     0.100 A 
ATOM     18  C   UNL d   1      51.262  33.711  53.669  0.00  0.00     0.117 A 
BRANCH  16  19
ATOM     19  C   UNL d   1      49.677  34.020  52.535  0.00  0.00     0.080 C 
BRANCH  19  20
ATOM     20  C   UNL d   1      49.203  34.417  51.995  0.00  0.00     0.018 A 
ATOM     21  C   UNL d   1      48.783  35.076  52.231  0.00  0.00     0.002 A 
ATOM     22  C   UNL d   1      48.308  35.477  51.692  0.00  0.00     0.000 A 
ATOM     23  C   UNL d   1      48.257  35.212  50.915  0.00  0.00     0.000 A 
ATOM     24  C   UNL d   1      48.683  34.546  50.680  0.00  0.00     0.000 A 
ATOM     25  C   UNL d   1      49.154  34.152  51.221  0.00  0.00     0.002 A 
ENDBRANCH  19  20
ENDBRANCH  16  19
ENDBRANCH   4  13
BRANCH   5  26
ATOM     26  C   UNL d   1      53.199  32.695  53.018  0.00  0.00     0.098 C 
BRANCH  26  27
ATOM     27  C   UNL d   1      53.030  31.938  53.307  0.00  0.00     0.020 C 
BRANCH  27  28
ATOM     28  C   UNL d   1      52.969  31.303  52.783  0.00  0.00     0.002 C 
BRANCH  28  29
ATOM     29  C   UNL d   1      52.835  30.540  53.076  0.00  0.00     0.000 A 
ATOM     30  C   UNL d   1      53.469  30.034  53.178  0.00  0.00     0.000 A 
ATOM     31  C   UNL d   1      53.343  29.269  53.471  0.00  0.00     0.000 A 
ATOM     32  C   UNL d   1      52.573  29.024  53.658  0.00  0.00     0.000 A 
ATOM     33  C   UNL d   1      51.936  29.539  53.552  0.00  0.00     0.000 A 
ATOM     34  C   UNL d   1      52.068  30.301  53.260  0.00  0.00     0.000 A 
ENDBRANCH  28  29
ENDBRANCH  27  28
ENDBRANCH  26  27
ENDBRANCH   5  26
TORSDOF 7
ENDMDL
MODEL 2
REMARK VINA RESULT:      -5.9      1.330      3.515
REMARK  7 active torsions:
REMARK  status: ('A' for Active; 'I' for Inactive)
REMARK    1  A    between atoms: N_10  and  C_4 
REMARK    2  A    between atoms: C_16  and  N_5 
REMARK    3  A    between atoms: C_18  and  N_11 
REMARK    4  A    between atoms: C_22  and  C_16 
REMARK    5  A    between atoms: C_21  and  C_18 
REMARK    6  A    between atoms: C_24  and  C_22 
REMARK    7  A    between atoms: C_23  and  C_24 
ROOT
ATOM      1  C   UNL d   1      52.512  31.045  53.231  0.00  0.00     0.191 A 
ATOM      2  C   UNL d   1      53.106  31.611  53.305  0.00  0.00     0.174 A 
ATOM      3  N   UNL d   1      51.803  31.430  53.059  0.00  0.00    -0.042 NA
ATOM      4  C   UNL d   1      51.975  32.240  53.030  0.00  0.00     0.722 A 
ATOM      5  N   UNL d   1      52.775  32.358  53.181  0.00  0.00    -0.132 N 
ATOM      6  N   UNL d   1      52.685  30.238  53.328  0.00  0.00    -0.239 N 
ATOM      7  C   UNL d   1      53.476  29.998  53.505  0.00  0.00     0.358 A 
ATOM      8  N   UNL d   1      54.070  30.565  53.580  0.00  0.00    -0.152 NA
ATOM      9  C   UNL d   1      53.883  31.381  53.479  0.00  0.00     0.303 A 
ATOM     10  O   UNL d   1      53.663  29.177  53.607  0.00  0.00    -0.244 OA
ATOM     11  O   UNL d   1      54.483  31.953  53.554  0.00  0.00    -0.263 OA
ATOM     12  C   UNL d   1      52.091  29.672  53.254  0.00  0.00     0.105 C 
ENDROOT
BRANCH   4  13
ATOM     13  N   UNL d   1      51.425  32.838  52.873  0.00  0.00    -0.136 N 
ATOM     14  C   UNL d   1      50.831  33.007  53.423  0.00  0.00     0.117 A 
ATOM     15  C   UNL d   1      50.283  33.603  53.267  0.00  0.00     0.100 A 
ATOM     16  N   UNL d   1      50.326  34.028  52.564  0.00  0.00    -0.300 N 
ATOM     17  C   UNL d   1      50.917  33.866  52.004  0.00  0.00     0.100 A 
ATOM     18  C   UNL d   1      51.471  33.265  52.162  0.00  0.00     0.117 A 
BRANCH  16  19
ATOM     19  C   UNL d   1      50.036  34.616  52.068  0.00  0.00     0.080 C 
BRANCH  19  20
ATOM     20  C   UNL d   1      49.307  34.961  52.220  0.00  0.00     0.018 A 
ATOM     21  C   UNL d   1      49.197  35.389  52.907  0.00  0.00     0.002 A 
ATOM     22  C   UNL d   1      48.467  35.736  53.063  0.00  0.00     0.000 A 
ATOM     23  C   UNL d   1      47.850  35.652  52.526  0.00  0.00     0.000 A 
ATOM     24  C   UNL d   1      47.966  35.219  51.833  0.00  0.00     0.000 A 
ATOM     25  C   UNL d   1      48.694  34.876  51.684  0.00  0.00     0.002 A 
ENDBRANCH  19  20
ENDBRANCH  16  19
ENDBRANCH   4  13
BRANCH   5  26
ATOM     26  C   UNL d   1      53.210  33.060  53.213  0.00  0.00     0.098 C 
BRANCH  26  27
ATOM     27  C   UNL d   1      53.287  33.463  53.932  0.00  0.00     0.020 C 
BRANCH  27  28
ATOM     28  C   UNL d   1      53.780  34.125  53.980  0.00  0.00     0.002 C 
BRANCH  28  29
ATOM     29  C   UNL d   1      53.521  34.801  54.380  0.00  0.00     0.000 A 
ATOM     30  C   UNL d   1      53.373  34.760  55.183  0.00  0.00     0.000 A 
ATOM     31  C   UNL d   1      53.113  35.433  55.590  0.00  0.00     0.000 A 
ATOM     32  C   UNL d   1      53.004  36.145  55.177  0.00  0.00     0.000 A 
ATOM     33  C   UNL d   1      53.155  36.181  54.365  0.00  0.00     0.000 A 
ATOM     34  C   UNL d   1      53.414  35.506  53.965  0.00  0.00     0.000 A 
ENDBRANCH  28  29
ENDBRANCH  27  28
ENDBRANCH  26  27
ENDBRANCH   5  26
TORSDOF 7
ENDMDL
