MODEL 1
REMARK VINA RESULT:      -5.8      0.000      0.000
REMARK  0 active torsions:
REMARK  status: ('A' for Active; 'I' for Inactive)
ROOT
ATOM      1  C   UNL d   1      56.373   0.151  32.219  0.00  0.00     0.020 A 
ATOM      2  N   UNL d   1      57.274   0.379  31.128  0.00  0.00    -0.242 NA
ATOM      3  C   UNL d   1      56.498  -0.659  32.145  0.00  0.00     0.003 A 
ATOM      4  C   UNL d   1      55.866   0.449  32.794  0.00  0.00     0.013 A 
ATOM      5  C   UNL d   1      56.105  -1.177  32.658  0.00  0.00     0.001 A 
ATOM      6  C   UNL d   1      55.479  -0.067  33.301  0.00  0.00     0.058 A 
ATOM      7  C   UNL d   1      55.599  -0.882  33.233  0.00  0.00     0.011 A 
ATOM      8  C   UNL d   1      56.764   0.673  31.706  0.00  0.00     0.099 A 
ATOM      9 CL   UNL d   1      54.972   0.227  33.876  0.00  0.00    -0.082 Cl
ATOM     10  C   UNL d   1      57.394  -0.436  31.059  0.00  0.00     0.099 A 
ATOM     11  C   UNL d   1      57.005  -0.961  31.569  0.00  0.00     0.021 A 
ENDROOT
TORSDOF 0
ENDMDL
MODEL 2
REMARK VINA RESULT:      -5.3      1.653      2.610
REMARK  0 active torsions:
REMARK  status: ('A' for Active; 'I' for Inactive)
ROOT
ATOM      1  C   UNL d   1      56.288  -0.645  32.425  0.00  0.00     0.020 A 
ATOM      2  N   UNL d   1      55.361  -0.861  33.496  0.00  0.00    -0.242 NA
ATOM      3  C   UNL d   1      56.206   0.168  32.526  0.00  0.00     0.003 A 
ATOM      4  C   UNL d   1      56.787  -0.949  31.846  0.00  0.00     0.013 A 
ATOM      5  C   UNL d   1      56.633   0.681  32.037  0.00  0.00     0.001 A 
ATOM      6  C   UNL d   1      57.209  -0.437  31.363  0.00  0.00     0.058 A 
ATOM      7  C   UNL d   1      57.131   0.380  31.458  0.00  0.00     0.011 A 
ATOM      8  C   UNL d   1      55.862  -1.162  32.914  0.00  0.00     0.099 A 
ATOM      9 CL   UNL d   1      57.707  -0.738  30.783  0.00  0.00    -0.082 Cl
ATOM     10  C   UNL d   1      55.284  -0.044  33.592  0.00  0.00     0.099 A 
ATOM     11  C   UNL d   1      55.708   0.477  33.106  0.00  0.00     0.021 A 
ENDROOT
TORSDOF 0
ENDMDL
MODEL 3
REMARK VINA RESULT:      -5.3      1.594      2.305
REMARK  0 active torsions:
REMARK  status: ('A' for Active; 'I' for Inactive)
ROOT
ATOM      1  C   UNL d   1      56.258   0.240  32.408  0.00  0.00     0.020 A 
ATOM      2  N   UNL d   1      55.308   0.296  33.480  0.00  0.00    -0.242 NA
ATOM      3  C   UNL d   1      56.238  -0.582  32.441  0.00  0.00     0.003 A 
ATOM      4  C   UNL d   1      56.737   0.629  31.863  0.00  0.00     0.013 A 
ATOM      5  C   UNL d   1      56.707  -1.019  31.916  0.00  0.00     0.001 A 
ATOM      6  C   UNL d   1      57.200   0.193  31.345  0.00  0.00     0.058 A 
ATOM      7  C   UNL d   1      57.185  -0.633  31.372  0.00  0.00     0.011 A 
ATOM      8  C   UNL d   1      55.790   0.681  32.932  0.00  0.00     0.099 A 
ATOM      9 CL   UNL d   1      57.679   0.578  30.800  0.00  0.00    -0.082 Cl
ATOM     10  C   UNL d   1      55.293  -0.530  33.506  0.00  0.00     0.099 A 
ATOM     11  C   UNL d   1      55.760  -0.975  32.985  0.00  0.00     0.021 A 
ENDROOT
TORSDOF 0
ENDMDL
MODEL 4
REMARK VINA RESULT:      -5.1      0.750      1.338
REMARK  0 active torsions:
REMARK  status: ('A' for Active; 'I' for Inactive)
ROOT
ATOM      1  C   UNL d   1      56.723  -0.663  31.835  0.00  0.00     0.020 A 
ATOM      2  N   UNL d   1      57.568  -0.418  30.704  0.00  0.00    -0.242 NA
ATOM      3  C   UNL d   1      56.689   0.147  31.978  0.00  0.00     0.003 A 
ATOM      4  C   UNL d   1      56.323  -1.194  32.321  0.00  0.00     0.013 A 
ATOM      5  C   UNL d   1      56.247   0.426  32.620  0.00  0.00     0.001 A 
ATOM      6  C   UNL d   1      55.885  -0.913  32.956  0.00  0.00     0.058 A 
ATOM      7  C   UNL d   1      55.847  -0.101  33.106  0.00  0.00     0.011 A 
ATOM      8  C   UNL d   1      57.165  -0.946  31.193  0.00  0.00     0.099 A 
ATOM      9 CL   UNL d   1      55.485  -1.440  33.442  0.00  0.00    -0.082 Cl
ATOM     10  C   UNL d   1      57.529   0.395  30.854  0.00  0.00     0.099 A 
ATOM     11  C   UNL d   1      57.089   0.682  31.494  0.00  0.00     0.021 A 
ENDROOT
TORSDOF 0
ENDMDL
MODEL 5
REMARK VINA RESULT:      -4.4      8.583      9.170
REMARK  0 active torsions:
REMARK  status: ('A' for Active; 'I' for Inactive)
ROOT
ATOM      1  C   UNL d   1      59.822  -7.214  36.108  0.00  0.00     0.020 A 
ATOM      2  N   UNL d   1      59.982  -5.797  35.969  0.00  0.00    -0.242 NA
ATOM      3  C   UNL d   1      60.637  -7.293  36.191  0.00  0.00     0.003 A 
ATOM      4  C   UNL d   1      59.330  -7.874  36.135  0.00  0.00     0.013 A 
ATOM      5  C   UNL d   1      60.961  -8.046  36.303  0.00  0.00     0.001 A 
ATOM      6  C   UNL d   1      59.655  -8.619  36.245  0.00  0.00     0.058 A 
ATOM      7  C   UNL d   1      60.473  -8.705  36.330  0.00  0.00     0.011 A 
ATOM      8  C   UNL d   1      59.494  -6.461  35.996  0.00  0.00     0.099 A 
ATOM      9 CL   UNL d   1      59.167  -9.279  36.272  0.00  0.00    -0.082 Cl
ATOM     10  C   UNL d   1      60.800  -5.884  36.053  0.00  0.00     0.099 A 
ATOM     11  C   UNL d   1      61.133  -6.634  36.165  0.00  0.00     0.021 A 
ENDROOT
TORSDOF 0
ENDMDL
MODEL 6
REMARK VINA RESULT:      -3.8      8.849      9.485
REMARK  0 active torsions:
REMARK  status: ('A' for Active; 'I' for Inactive)
ROOT
ATOM      1  C   UNL d   1      60.514  -7.925  36.220  0.00  0.00     0.020 A 
ATOM      2  N   UNL d   1      60.612  -9.354  36.221  0.00  0.00    -0.242 NA
ATOM      3  C   UNL d   1      59.723  -7.985  36.001  0.00  0.00     0.003 A 
ATOM      4  C   UNL d   1      60.866  -7.189  36.330  0.00  0.00     0.013 A 
ATOM      5  C   UNL d   1      59.280  -7.293  35.892  0.00  0.00     0.001 A 
ATOM      6  C   UNL d   1      60.424  -6.506  36.221  0.00  0.00     0.058 A 
ATOM      7  C   UNL d   1      59.629  -6.559  36.001  0.00  0.00     0.011 A 
ATOM      8  C   UNL d   1      60.960  -8.615  36.330  0.00  0.00     0.099 A 
ATOM      9 CL   UNL d   1      60.773  -5.771  36.330  0.00  0.00    -0.082 Cl
ATOM     10  C   UNL d   1      59.817  -9.407  36.001  0.00  0.00     0.099 A 
ATOM     11  C   UNL d   1      59.367  -8.720  35.889  0.00  0.00     0.021 A 
ENDROOT
TORSDOF 0
ENDMDL
MODEL 7
REMARK VINA RESULT:      -3.2      1.990      2.765
REMARK  0 active torsions:
REMARK  status: ('A' for Active; 'I' for Inactive)
ROOT
ATOM      1  C   UNL d   1      56.576   0.678  33.544  0.00  0.00     0.020 A 
ATOM      2  N   UNL d   1      55.841   0.681  34.774  0.00  0.00    -0.242 NA
ATOM      3  C   UNL d   1      55.867   0.673  33.127  0.00  0.00     0.003 A 
ATOM      4  C   UNL d   1      57.298   0.679  33.149  0.00  0.00     0.013 A 
ATOM      5  C   UNL d   1      55.885   0.668  32.299  0.00  0.00     0.001 A 
ATOM      6  C   UNL d   1      57.312   0.675  32.328  0.00  0.00     0.058 A 
ATOM      7  C   UNL d   1      56.603   0.669  31.902  0.00  0.00     0.011 A 
ATOM      8  C   UNL d   1      56.562   0.682  34.373  0.00  0.00     0.099 A 
ATOM      9 CL   UNL d   1      58.031   0.676  31.931  0.00  0.00    -0.082 Cl
ATOM     10  C   UNL d   1      55.132   0.676  34.348  0.00  0.00     0.099 A 
ATOM     11  C   UNL d   1      55.142   0.671  33.519  0.00  0.00     0.021 A 
ENDROOT
TORSDOF 0
ENDMDL
MODEL 8
REMARK VINA RESULT:      -3.1      9.314      9.787
REMARK  0 active torsions:
REMARK  status: ('A' for Active; 'I' for Inactive)
ROOT
ATOM      1  C   UNL d   1      59.883  -8.407  35.128  0.00  0.00     0.020 A 
ATOM      2  N   UNL d   1      59.844  -7.625  36.328  0.00  0.00    -0.242 NA
ATOM      3  C   UNL d   1      60.705  -8.369  35.136  0.00  0.00     0.003 A 
ATOM      4  C   UNL d   1      59.486  -8.813  34.531  0.00  0.00     0.013 A 
ATOM      5  C   UNL d   1      61.133  -8.745  34.535  0.00  0.00     0.001 A 
ATOM      6  C   UNL d   1      59.914  -9.183  33.938  0.00  0.00     0.058 A 
ATOM      7  C   UNL d   1      60.740  -9.150  33.940  0.00  0.00     0.011 A 
ATOM      8  C   UNL d   1      59.451  -8.032  35.728  0.00  0.00     0.099 A 
ATOM      9 CL   UNL d   1      59.520  -9.588  33.341  0.00  0.00    -0.082 Cl
ATOM     10  C   UNL d   1      60.670  -7.591  36.330  0.00  0.00     0.099 A 
ATOM     11  C   UNL d   1      61.107  -7.965  35.732  0.00  0.00     0.021 A 
ENDROOT
TORSDOF 0
ENDMDL
MODEL 9
REMARK VINA RESULT:      -2.9      9.622      9.891
REMARK  0 active torsions:
REMARK  status: ('A' for Active; 'I' for Inactive)
ROOT
ATOM      1  C   UNL d   1      60.621  -8.988  34.122  0.00  0.00     0.020 A 
ATOM      2  N   UNL d   1      60.558  -9.634  32.845  0.00  0.00    -0.242 NA
ATOM      3  C   UNL d   1      59.802  -9.043  34.184  0.00  0.00     0.003 A 
ATOM      4  C   UNL d   1      61.067  -8.641  34.721  0.00  0.00     0.013 A 
ATOM      5  C   UNL d   1      59.427  -8.744  34.860  0.00  0.00     0.001 A 
ATOM      6  C   UNL d   1      60.691  -8.347  35.389  0.00  0.00     0.058 A 
ATOM      7  C   UNL d   1      59.869  -8.398  35.458  0.00  0.00     0.011 A 
ATOM      8  C   UNL d   1      61.000  -9.286  33.448  0.00  0.00     0.099 A 
ATOM      9 CL   UNL d   1      61.133  -8.000  35.988  0.00  0.00    -0.082 Cl
ATOM     10  C   UNL d   1      59.735  -9.685  32.914  0.00  0.00     0.099 A 
ATOM     11  C   UNL d   1      59.352  -9.389  33.587  0.00  0.00     0.021 A 
ENDROOT
TORSDOF 0
ENDMDL
