MODEL 1
REMARK VINA RESULT:      -7.2      0.000      0.000
REMARK  9 active torsions:
REMARK  status: ('A' for Active; 'I' for Inactive)
REMARK    1  A    between atoms: N_6  and  C_1 
REMARK    2  A    between atoms: N_2  and  C_12 
REMARK    3  A    between atoms: C_3  and  N_6 
REMARK    4  A    between atoms: N_4  and  C_3 
REMARK       I    between atoms: C_7  and  N_4 
REMARK    5  A    between atoms: C_16  and  C_7 
REMARK    6  A    between atoms: C_10  and  C_8 
REMARK    7  A    between atoms: C_13  and  C_10 
REMARK    8  A    between atoms: O_24  and  C_13 
REMARK    9  A    between atoms: C_25  and  O_24 
ROOT
ATOM      1  C   UNL d   1      52.382  34.012  53.077  0.00  0.00     0.277 C 
ATOM      2  S   UNL d   1      52.678  34.682  53.457  0.00  0.00    -0.023 SA
ENDROOT
BRANCH   1   3
ATOM      3  N   UNL d   1      52.778  33.291  53.150  0.00  0.00    -0.347 NA
BRANCH   3   4
ATOM      4  C   UNL d   1      53.167  32.570  53.226  0.00  0.00     0.248 A 
ATOM      5  N   UNL d   1      52.879  31.825  53.000  0.00  0.00    -0.210 NA
ATOM      6  C   UNL d   1      53.456  31.263  53.180  0.00  0.00     0.096 A 
ATOM      7  C   UNL d   1      54.098  31.660  53.516  0.00  0.00     0.059 A 
ATOM      8  S   UNL d   1      53.922  32.456  53.544  0.00  0.00    -0.033 SA
BRANCH   6   9
ATOM      9  C   UNL d   1      53.397  30.456  53.047  0.00  0.00     0.088 C 
BRANCH   9  10
ATOM     10  C   UNL d   1      52.977  29.976  53.565  0.00  0.00     0.302 C 
ATOM     11  O   UNL d   1      52.173  29.848  53.434  0.00  0.00    -0.259 OA
BRANCH  10  12
ATOM     12  O   UNL d   1      53.351  29.627  54.207  0.00  0.00    -0.271 OA
BRANCH  12  13
ATOM     13  C   UNL d   1      53.119  28.880  54.465  0.00  0.00     0.126 C 
ATOM     14  C   UNL d   1      53.467  28.548  55.130  0.00  0.00     0.029 C 
ENDBRANCH  12  13
ENDBRANCH  10  12
ENDBRANCH   9  10
ENDBRANCH   6   9
ENDBRANCH   3   4
ENDBRANCH   1   3
BRANCH   1  15
ATOM     15  N   UNL d   1      51.694  34.068  52.627  0.00  0.00    -0.168 NA
ATOM     16  C   UNL d   1      51.046  34.498  52.909  0.00  0.00     0.282 C 
ATOM     17  O   UNL d   1      51.085  34.871  53.639  0.00  0.00    -0.265 OA
BRANCH  16  18
ATOM     18  C   UNL d   1      50.358  34.550  52.452  0.00  0.00     0.058 A 
ATOM     19  C   UNL d   1      50.365  34.310  51.674  0.00  0.00     0.006 A 
ATOM     20  C   UNL d   1      49.676  34.363  51.218  0.00  0.00     0.024 A 
ATOM     21  C   UNL d   1      48.981  34.660  51.554  0.00  0.00     0.127 A 
ATOM     22  C   UNL d   1      48.979  34.903  52.348  0.00  0.00     0.024 A 
ATOM     23  C   UNL d   1      49.663  34.850  52.796  0.00  0.00     0.006 A 
BRANCH  21  24
ATOM     24  N   UNL d   1      48.294  34.714  51.105  0.00  0.00    -0.114 N 
ATOM     25  O   UNL d   1      48.026  34.062  50.672  0.00  0.00    -0.532 OA
ATOM     26  O   UNL d   1      47.873  35.419  51.089  0.00  0.00    -0.532 OA
ENDBRANCH  21  24
ENDBRANCH  16  18
ENDBRANCH   1  15
TORSDOF 9
ENDMDL
MODEL 2
REMARK VINA RESULT:      -7.0      1.710      5.965
REMARK  9 active torsions:
REMARK  status: ('A' for Active; 'I' for Inactive)
REMARK    1  A    between atoms: N_6  and  C_1 
REMARK    2  A    between atoms: N_2  and  C_12 
REMARK    3  A    between atoms: C_3  and  N_6 
REMARK    4  A    between atoms: N_4  and  C_3 
REMARK       I    between atoms: C_7  and  N_4 
REMARK    5  A    between atoms: C_16  and  C_7 
REMARK    6  A    between atoms: C_10  and  C_8 
REMARK    7  A    between atoms: C_13  and  C_10 
REMARK    8  A    between atoms: O_24  and  C_13 
REMARK    9  A    between atoms: C_25  and  O_24 
ROOT
ATOM      1  C   UNL d   1      51.754  34.098  53.218  0.00  0.00     0.277 C 
ATOM      2  S   UNL d   1      52.321  34.675  53.377  0.00  0.00    -0.023 SA
ENDROOT
BRANCH   1   3
ATOM      3  N   UNL d   1      51.003  34.322  52.959  0.00  0.00    -0.347 NA
BRANCH   3   4
ATOM      4  C   UNL d   1      50.251  34.540  52.703  0.00  0.00     0.248 A 
ATOM      5  N   UNL d   1      49.642  34.856  53.171  0.00  0.00    -0.210 NA
ATOM      6  C   UNL d   1      48.991  34.991  52.682  0.00  0.00     0.096 A 
ATOM      7  C   UNL d   1      49.197  34.758  51.917  0.00  0.00     0.059 A 
ATOM      8  S   UNL d   1      49.965  34.483  51.930  0.00  0.00    -0.033 SA
BRANCH   6   9
ATOM      9  C   UNL d   1      48.268  35.300  52.920  0.00  0.00     0.088 C 
BRANCH   9  10
ATOM     10  C   UNL d   1      48.230  36.030  53.296  0.00  0.00     0.302 C 
ATOM     11  O   UNL d   1      48.451  36.708  52.883  0.00  0.00    -0.259 OA
BRANCH  10  12
ATOM     12  O   UNL d   1      47.975  36.085  54.074  0.00  0.00    -0.271 OA
BRANCH  12  13
ATOM     13  C   UNL d   1      47.385  36.622  54.279  0.00  0.00     0.126 C 
ATOM     14  C   UNL d   1      47.163  36.709  55.065  0.00  0.00     0.029 C 
ENDBRANCH  12  13
ENDBRANCH  10  12
ENDBRANCH   9  10
ENDBRANCH   6   9
ENDBRANCH   3   4
ENDBRANCH   1   3
BRANCH   1  15
ATOM     15  N   UNL d   1      51.942  33.303  53.320  0.00  0.00    -0.168 NA
ATOM     16  C   UNL d   1      52.711  33.034  53.175  0.00  0.00     0.282 C 
ATOM     17  O   UNL d   1      53.291  33.560  52.929  0.00  0.00    -0.265 OA
BRANCH  16  18
ATOM     18  C   UNL d   1      52.893  32.234  53.279  0.00  0.00     0.058 A 
ATOM     19  C   UNL d   1      52.543  31.670  52.808  0.00  0.00     0.006 A 
ATOM     20  C   UNL d   1      52.725  30.869  52.912  0.00  0.00     0.024 A 
ATOM     21  C   UNL d   1      53.264  30.644  53.498  0.00  0.00     0.127 A 
ATOM     22  C   UNL d   1      53.619  31.221  53.977  0.00  0.00     0.024 A 
ATOM     23  C   UNL d   1      53.435  32.014  53.869  0.00  0.00     0.006 A 
BRANCH  21  24
ATOM     24  N   UNL d   1      53.449  29.849  53.607  0.00  0.00    -0.114 N 
ATOM     25  O   UNL d   1      54.239  29.605  53.630  0.00  0.00    -0.532 OA
ATOM     26  O   UNL d   1      52.846  29.299  53.692  0.00  0.00    -0.532 OA
ENDBRANCH  21  24
ENDBRANCH  16  18
ENDBRANCH   1  15
TORSDOF 9
ENDMDL
MODEL 3
REMARK VINA RESULT:      -6.3      2.458      6.209
REMARK  9 active torsions:
REMARK  status: ('A' for Active; 'I' for Inactive)
REMARK    1  A    between atoms: N_6  and  C_1 
REMARK    2  A    between atoms: N_2  and  C_12 
REMARK    3  A    between atoms: C_3  and  N_6 
REMARK    4  A    between atoms: N_4  and  C_3 
REMARK       I    between atoms: C_7  and  N_4 
REMARK    5  A    between atoms: C_16  and  C_7 
REMARK    6  A    between atoms: C_10  and  C_8 
REMARK    7  A    between atoms: C_13  and  C_10 
REMARK    8  A    between atoms: O_24  and  C_13 
REMARK    9  A    between atoms: C_25  and  O_24 
ROOT
ATOM      1  C   UNL d   1      51.099  33.247  53.201  0.00  0.00     0.277 C 
ATOM      2  S   UNL d   1      51.003  32.474  52.930  0.00  0.00    -0.023 SA
ENDROOT
BRANCH   1   3
ATOM      3  N   UNL d   1      50.534  33.820  53.017  0.00  0.00    -0.347 NA
BRANCH   3   4
ATOM      4  C   UNL d   1      49.967  34.388  52.836  0.00  0.00     0.248 A 
ATOM      5  N   UNL d   1      49.620  34.928  53.363  0.00  0.00    -0.210 NA
ATOM      6  C   UNL d   1      49.083  35.389  52.939  0.00  0.00     0.096 A 
ATOM      7  C   UNL d   1      49.098  35.134  52.153  0.00  0.00     0.059 A 
ATOM      8  S   UNL d   1      49.636  34.525  52.090  0.00  0.00    -0.033 SA
BRANCH   6   9
ATOM      9  C   UNL d   1      48.619  35.991  53.247  0.00  0.00     0.088 C 
BRANCH   9  10
ATOM     10  C   UNL d   1      47.800  35.921  53.264  0.00  0.00     0.302 C 
ATOM     11  O   UNL d   1      47.381  35.927  52.554  0.00  0.00    -0.259 OA
BRANCH  10  12
ATOM     12  O   UNL d   1      47.402  35.847  53.977  0.00  0.00    -0.271 OA
BRANCH  12  13
ATOM     13  C   UNL d   1      46.727  36.297  54.124  0.00  0.00     0.126 C 
ATOM     14  C   UNL d   1      46.306  36.193  54.821  0.00  0.00     0.029 C 
ENDBRANCH  12  13
ENDBRANCH  10  12
ENDBRANCH   9  10
ENDBRANCH   6   9
ENDBRANCH   3   4
ENDBRANCH   1   3
BRANCH   1  15
ATOM     15  N   UNL d   1      51.759  33.441  53.654  0.00  0.00    -0.168 NA
ATOM     16  C   UNL d   1      52.497  33.111  53.478  0.00  0.00     0.282 C 
ATOM     17  O   UNL d   1      52.575  32.588  52.850  0.00  0.00    -0.265 OA
BRANCH  16  18
ATOM     18  C   UNL d   1      53.156  33.310  53.938  0.00  0.00     0.058 A 
ATOM     19  C   UNL d   1      53.332  34.091  54.083  0.00  0.00     0.006 A 
ATOM     20  C   UNL d   1      53.991  34.290  54.543  0.00  0.00     0.024 A 
ATOM     21  C   UNL d   1      54.471  33.692  54.854  0.00  0.00     0.127 A 
ATOM     22  C   UNL d   1      54.288  32.896  54.703  0.00  0.00     0.024 A 
ATOM     23  C   UNL d   1      53.634  32.704  54.247  0.00  0.00     0.006 A 
BRANCH  21  24
ATOM     24  N   UNL d   1      55.127  33.883  55.312  0.00  0.00    -0.114 N 
ATOM     25  O   UNL d   1      55.106  33.784  56.133  0.00  0.00    -0.532 OA
ATOM     26  O   UNL d   1      55.805  34.173  54.949  0.00  0.00    -0.532 OA
ENDBRANCH  21  24
ENDBRANCH  16  18
ENDBRANCH   1  15
TORSDOF 9
ENDMDL
MODEL 4
REMARK VINA RESULT:      -6.1      1.704      2.491
REMARK  9 active torsions:
REMARK  status: ('A' for Active; 'I' for Inactive)
REMARK    1  A    between atoms: N_6  and  C_1 
REMARK    2  A    between atoms: N_2  and  C_12 
REMARK    3  A    between atoms: C_3  and  N_6 
REMARK    4  A    between atoms: N_4  and  C_3 
REMARK       I    between atoms: C_7  and  N_4 
REMARK    5  A    between atoms: C_16  and  C_7 
REMARK    6  A    between atoms: C_10  and  C_8 
REMARK    7  A    between atoms: C_13  and  C_10 
REMARK    8  A    between atoms: O_24  and  C_13 
REMARK    9  A    between atoms: C_25  and  O_24 
ROOT
ATOM      1  C   UNL d   1      50.728  34.334  52.357  0.00  0.00     0.277 C 
ATOM      2  S   UNL d   1      50.740  34.072  51.575  0.00  0.00    -0.023 SA
ENDROOT
BRANCH   1   3
ATOM      3  N   UNL d   1      51.374  34.189  52.848  0.00  0.00    -0.347 NA
BRANCH   3   4
ATOM      4  C   UNL d   1      52.017  34.040  53.341  0.00  0.00     0.248 A 
ATOM      5  N   UNL d   1      52.307  33.294  53.563  0.00  0.00    -0.210 NA
ATOM      6  C   UNL d   1      52.956  33.412  54.060  0.00  0.00     0.096 A 
ATOM      7  C   UNL d   1      53.065  34.227  54.144  0.00  0.00     0.059 A 
ATOM      8  S   UNL d   1      52.492  34.609  53.706  0.00  0.00    -0.033 SA
BRANCH   6   9
ATOM      9  C   UNL d   1      53.408  32.821  54.407  0.00  0.00     0.088 C 
BRANCH   9  10
ATOM     10  C   UNL d   1      53.685  32.191  53.959  0.00  0.00     0.302 C 
ATOM     11  O   UNL d   1      54.298  32.316  53.422  0.00  0.00    -0.259 OA
BRANCH  10  12
ATOM     12  O   UNL d   1      53.358  31.443  54.044  0.00  0.00    -0.271 OA
BRANCH  12  13
ATOM     13  C   UNL d   1      53.704  30.795  53.671  0.00  0.00     0.126 C 
ATOM     14  C   UNL d   1      53.419  30.038  53.812  0.00  0.00     0.029 C 
ENDBRANCH  12  13
ENDBRANCH  10  12
ENDBRANCH   9  10
ENDBRANCH   6   9
ENDBRANCH   3   4
ENDBRANCH   1   3
BRANCH   1  15
ATOM     15  N   UNL d   1      50.069  34.739  52.641  0.00  0.00    -0.168 NA
ATOM     16  C   UNL d   1      49.405  34.846  52.158  0.00  0.00     0.282 C 
ATOM     17  O   UNL d   1      49.400  34.548  51.393  0.00  0.00    -0.265 OA
BRANCH  16  18
ATOM     18  C   UNL d   1      48.747  35.253  52.450  0.00  0.00     0.058 A 
ATOM     19  C   UNL d   1      48.764  35.576  53.197  0.00  0.00     0.006 A 
ATOM     20  C   UNL d   1      48.105  35.984  53.488  0.00  0.00     0.024 A 
ATOM     21  C   UNL d   1      47.429  36.063  53.018  0.00  0.00     0.127 A 
ATOM     22  C   UNL d   1      47.416  35.732  52.257  0.00  0.00     0.024 A 
ATOM     23  C   UNL d   1      48.071  35.329  51.972  0.00  0.00     0.006 A 
BRANCH  21  24
ATOM     24  N   UNL d   1      46.771  36.467  53.302  0.00  0.00    -0.114 N 
ATOM     25  O   UNL d   1      46.700  36.634  54.109  0.00  0.00    -0.532 OA
ATOM     26  O   UNL d   1      46.184  36.705  52.780  0.00  0.00    -0.532 OA
ENDBRANCH  21  24
ENDBRANCH  16  18
ENDBRANCH   1  15
TORSDOF 9
ENDMDL
MODEL 5
REMARK VINA RESULT:      -5.6      2.608      3.874
REMARK  9 active torsions:
REMARK  status: ('A' for Active; 'I' for Inactive)
REMARK    1  A    between atoms: N_6  and  C_1 
REMARK    2  A    between atoms: N_2  and  C_12 
REMARK    3  A    between atoms: C_3  and  N_6 
REMARK    4  A    between atoms: N_4  and  C_3 
REMARK       I    between atoms: C_7  and  N_4 
REMARK    5  A    between atoms: C_16  and  C_7 
REMARK    6  A    between atoms: C_10  and  C_8 
REMARK    7  A    between atoms: C_13  and  C_10 
REMARK    8  A    between atoms: O_24  and  C_13 
REMARK    9  A    between atoms: C_25  and  O_24 
ROOT
ATOM      1  C   UNL d   1      48.817  35.479  53.269  0.00  0.00     0.277 C 
ATOM      2  S   UNL d   1      48.797  35.968  53.933  0.00  0.00    -0.023 SA
ENDROOT
BRANCH   1   3
ATOM      3  N   UNL d   1      49.516  35.091  53.065  0.00  0.00    -0.347 NA
BRANCH   3   4
ATOM      4  C   UNL d   1      50.210  34.700  52.858  0.00  0.00     0.248 A 
ATOM      5  N   UNL d   1      50.952  34.782  53.223  0.00  0.00    -0.210 NA
ATOM      6  C   UNL d   1      51.483  34.286  52.833  0.00  0.00     0.096 A 
ATOM      7  C   UNL d   1      51.071  33.898  52.231  0.00  0.00     0.059 A 
ATOM      8  S   UNL d   1      50.296  34.151  52.247  0.00  0.00    -0.033 SA
BRANCH   6   9
ATOM      9  C   UNL d   1      52.279  34.196  53.015  0.00  0.00     0.088 C 
BRANCH   9  10
ATOM     10  C   UNL d   1      52.522  33.628  53.556  0.00  0.00     0.302 C 
ATOM     11  O   UNL d   1      52.215  32.864  53.505  0.00  0.00    -0.259 OA
BRANCH  10  12
ATOM     12  O   UNL d   1      53.064  33.815  54.143  0.00  0.00    -0.271 OA
BRANCH  12  13
ATOM     13  C   UNL d   1      53.662  33.283  54.339  0.00  0.00     0.126 C 
ATOM     14  C   UNL d   1      54.207  33.473  54.924  0.00  0.00     0.029 C 
ENDBRANCH  12  13
ENDBRANCH  10  12
ENDBRANCH   9  10
ENDBRANCH   6   9
ENDBRANCH   3   4
ENDBRANCH   1   3
BRANCH   1  15
ATOM     15  N   UNL d   1      48.137  35.383  52.813  0.00  0.00    -0.168 NA
ATOM     16  C   UNL d   1      47.587  35.998  52.750  0.00  0.00     0.282 C 
ATOM     17  O   UNL d   1      47.717  36.708  53.141  0.00  0.00    -0.265 OA
BRANCH  16  18
ATOM     18  C   UNL d   1      46.907  35.895  52.291  0.00  0.00     0.058 A 
ATOM     19  C   UNL d   1      46.171  35.938  52.636  0.00  0.00     0.006 A 
ATOM     20  C   UNL d   1      45.490  35.835  52.176  0.00  0.00     0.024 A 
ATOM     21  C   UNL d   1      45.560  35.687  51.365  0.00  0.00     0.127 A 
ATOM     22  C   UNL d   1      46.312  35.643  51.017  0.00  0.00     0.024 A 
ATOM     23  C   UNL d   1      46.984  35.746  51.477  0.00  0.00     0.006 A 
BRANCH  21  24
ATOM     24  N   UNL d   1      44.887  35.583  50.903  0.00  0.00    -0.114 N 
ATOM     25  O   UNL d   1      44.435  36.237  50.672  0.00  0.00    -0.532 OA
ATOM     26  O   UNL d   1      44.665  34.827  50.672  0.00  0.00    -0.532 OA
ENDBRANCH  21  24
ENDBRANCH  16  18
ENDBRANCH   1  15
TORSDOF 9
ENDMDL
MODEL 6
REMARK VINA RESULT:      -5.6      2.554      3.946
REMARK  9 active torsions:
REMARK  status: ('A' for Active; 'I' for Inactive)
REMARK    1  A    between atoms: N_6  and  C_1 
REMARK    2  A    between atoms: N_2  and  C_12 
REMARK    3  A    between atoms: C_3  and  N_6 
REMARK    4  A    between atoms: N_4  and  C_3 
REMARK       I    between atoms: C_7  and  N_4 
REMARK    5  A    between atoms: C_16  and  C_7 
REMARK    6  A    between atoms: C_10  and  C_8 
REMARK    7  A    between atoms: C_13  and  C_10 
REMARK    8  A    between atoms: O_24  and  C_13 
REMARK    9  A    between atoms: C_25  and  O_24 
ROOT
ATOM      1  C   UNL d   1      49.143  34.801  52.004  0.00  0.00     0.277 C 
ATOM      2  S   UNL d   1      48.904  34.794  51.215  0.00  0.00    -0.023 SA
ENDROOT
BRANCH   1   3
ATOM      3  N   UNL d   1      49.899  34.539  52.207  0.00  0.00    -0.347 NA
BRANCH   3   4
ATOM      4  C   UNL d   1      50.654  34.282  52.411  0.00  0.00     0.248 A 
ATOM      5  N   UNL d   1      50.899  34.007  53.156  0.00  0.00    -0.210 NA
ATOM      6  C   UNL d   1      51.699  33.811  53.104  0.00  0.00     0.096 A 
ATOM      7  C   UNL d   1      51.947  33.966  52.331  0.00  0.00     0.059 A 
ATOM      8  S   UNL d   1      51.310  34.253  51.910  0.00  0.00    -0.033 SA
BRANCH   6   9
ATOM      9  C   UNL d   1      52.161  33.516  53.715  0.00  0.00     0.088 C 
BRANCH   9  10
ATOM     10  C   UNL d   1      52.767  33.969  54.036  0.00  0.00     0.302 C 
ATOM     11  O   UNL d   1      52.632  34.765  54.200  0.00  0.00    -0.259 OA
BRANCH  10  12
ATOM     12  O   UNL d   1      53.500  33.634  54.193  0.00  0.00    -0.271 OA
BRANCH  12  13
ATOM     13  C   UNL d   1      53.794  33.624  54.963  0.00  0.00     0.126 C 
ATOM     14  C   UNL d   1      54.578  33.425  55.101  0.00  0.00     0.029 C 
ENDBRANCH  12  13
ENDBRANCH  10  12
ENDBRANCH   9  10
ENDBRANCH   6   9
ENDBRANCH   3   4
ENDBRANCH   1   3
BRANCH   1  15
ATOM     15  N   UNL d   1      48.624  35.070  52.585  0.00  0.00    -0.168 NA
ATOM     16  C   UNL d   1      47.957  35.512  52.375  0.00  0.00     0.282 C 
ATOM     17  O   UNL d   1      47.808  35.684  51.586  0.00  0.00    -0.265 OA
BRANCH  16  18
ATOM     18  C   UNL d   1      47.440  35.779  52.963  0.00  0.00     0.058 A 
ATOM     19  C   UNL d   1      47.732  36.029  53.681  0.00  0.00     0.006 A 
ATOM     20  C   UNL d   1      47.214  36.296  54.269  0.00  0.00     0.024 A 
ATOM     21  C   UNL d   1      46.399  36.309  54.125  0.00  0.00     0.127 A 
ATOM     22  C   UNL d   1      46.106  36.054  53.392  0.00  0.00     0.024 A 
ATOM     23  C   UNL d   1      46.623  35.789  52.812  0.00  0.00     0.006 A 
BRANCH  21  24
ATOM     24  N   UNL d   1      45.880  36.574  54.706  0.00  0.00    -0.114 N 
ATOM     25  O   UNL d   1      45.083  36.703  54.525  0.00  0.00    -0.532 OA
ATOM     26  O   UNL d   1      46.156  36.709  55.467  0.00  0.00    -0.532 OA
ENDBRANCH  21  24
ENDBRANCH  16  18
ENDBRANCH   1  15
TORSDOF 9
ENDMDL
MODEL 7
REMARK VINA RESULT:      -4.2      9.383     10.212
REMARK  9 active torsions:
REMARK  status: ('A' for Active; 'I' for Inactive)
REMARK    1  A    between atoms: N_6  and  C_1 
REMARK    2  A    between atoms: N_2  and  C_12 
REMARK    3  A    between atoms: C_3  and  N_6 
REMARK    4  A    between atoms: N_4  and  C_3 
REMARK       I    between atoms: C_7  and  N_4 
REMARK    5  A    between atoms: C_16  and  C_7 
REMARK    6  A    between atoms: C_10  and  C_8 
REMARK    7  A    between atoms: C_13  and  C_10 
REMARK    8  A    between atoms: O_24  and  C_13 
REMARK    9  A    between atoms: C_25  and  O_24 
ROOT
ATOM      1  C   UNL d   1      45.348  26.307  57.357  0.00  0.00     0.277 C 
ATOM      2  S   UNL d   1      45.778  26.198  58.053  0.00  0.00    -0.023 SA
ENDROOT
BRANCH   1   3
ATOM      3  N   UNL d   1      45.081  25.652  56.932  0.00  0.00    -0.347 NA
BRANCH   3   4
ATOM      4  C   UNL d   1      44.810  25.000  56.509  0.00  0.00     0.248 A 
ATOM      5  N   UNL d   1      44.768  24.929  55.683  0.00  0.00    -0.210 NA
ATOM      6  C   UNL d   1      44.462  24.183  55.507  0.00  0.00     0.096 A 
ATOM      7  C   UNL d   1      44.316  23.795  56.222  0.00  0.00     0.059 A 
ATOM      8  S   UNL d   1      44.528  24.294  56.832  0.00  0.00    -0.033 SA
BRANCH   6   9
ATOM      9  C   UNL d   1      44.329  23.884  54.755  0.00  0.00     0.088 C 
BRANCH   9  10
ATOM     10  C   UNL d   1      44.922  23.478  54.356  0.00  0.00     0.302 C 
ATOM     11  O   UNL d   1      45.225  22.785  54.682  0.00  0.00    -0.259 OA
BRANCH  10  12
ATOM     12  O   UNL d   1      45.210  23.758  53.640  0.00  0.00    -0.271 OA
BRANCH  12  13
ATOM     13  C   UNL d   1      45.434  23.229  53.049  0.00  0.00     0.126 C 
ATOM     14  C   UNL d   1      45.452  23.472  52.265  0.00  0.00     0.029 C 
ENDBRANCH  12  13
ENDBRANCH  10  12
ENDBRANCH   9  10
ENDBRANCH   6   9
ENDBRANCH   3   4
ENDBRANCH   1   3
BRANCH   1  15
ATOM     15  N   UNL d   1      45.188  27.071  57.092  0.00  0.00    -0.168 NA
ATOM     16  C   UNL d   1      45.262  27.715  57.606  0.00  0.00     0.282 C 
ATOM     17  O   UNL d   1      45.495  27.596  58.384  0.00  0.00    -0.265 OA
BRANCH  16  18
ATOM     18  C   UNL d   1      45.100  28.479  57.334  0.00  0.00     0.058 A 
ATOM     19  C   UNL d   1      44.877  29.061  57.857  0.00  0.00     0.006 A 
ATOM     20  C   UNL d   1      44.715  29.825  57.583  0.00  0.00     0.024 A 
ATOM     21  C   UNL d   1      44.781  29.996  56.776  0.00  0.00     0.127 A 
ATOM     22  C   UNL d   1      45.009  29.400  56.246  0.00  0.00     0.024 A 
ATOM     23  C   UNL d   1      45.169  28.644  56.522  0.00  0.00     0.006 A 
BRANCH  21  24
ATOM     24  N   UNL d   1      44.621  30.754  56.499  0.00  0.00    -0.114 N 
ATOM     25  O   UNL d   1      44.484  30.882  55.693  0.00  0.00    -0.532 OA
ATOM     26  O   UNL d   1      44.599  31.384  57.025  0.00  0.00    -0.532 OA
ENDBRANCH  21  24
ENDBRANCH  16  18
ENDBRANCH   1  15
TORSDOF 9
ENDMDL
