MODEL 1
REMARK VINA RESULT:      10.4      0.000      0.000
REMARK  6 active torsions:
REMARK  status: ('A' for Active; 'I' for Inactive)
REMARK    1  A    between atoms: C_6  and  N_2 
REMARK    2  A    between atoms: C_7  and  C_6 
REMARK    3  A    between atoms: C_8  and  C_7 
REMARK       I    between atoms: N_13  and  C_8 
REMARK    4  A    between atoms: C_10  and  C_17 
REMARK    5  A    between atoms: C_14  and  N_13 
REMARK    6  A    between atoms: C_17  and  C_14 
ROOT
ATOM      1  C   UNL d   1      45.243 -15.377  43.894  0.00  0.00     0.082 C 
ENDROOT
BRANCH   1   2
ATOM      2  C   UNL d   1      45.094 -14.766  44.423  0.00  0.00     0.088 C 
BRANCH   2   3
ATOM      3  N   UNL d   1      45.353 -14.002  44.259  0.00  0.00    -0.268 N 
ATOM      4  C   UNL d   1      46.065 -13.669  44.500  0.00  0.00     0.296 A 
ATOM      5  S   UNL d   1      46.076 -12.868  44.193  0.00  0.00    -0.025 SA
ATOM      6  O   UNL d   1      46.647 -14.044  44.949  0.00  0.00    -0.259 OA
ATOM      7  C   UNL d   1      45.399 -12.753  43.795  0.00  0.00     0.050 A 
ATOM      8  C   UNL d   1      45.124 -12.083  43.390  0.00  0.00     0.008 A 
ATOM      9  C   UNL d   1      44.938 -13.436  43.823  0.00  0.00     0.073 A 
ATOM     10  C   UNL d   1      44.386 -12.101  43.012  0.00  0.00     0.001 A 
ATOM     11  C   UNL d   1      43.933 -12.791  43.046  0.00  0.00     0.002 A 
ATOM     12  C   UNL d   1      44.210 -13.456  43.451  0.00  0.00     0.018 A 
ENDBRANCH   2   3
ENDBRANCH   1   2
BRANCH   1  13
ATOM     13  C   UNL d   1      45.519 -16.105  44.163  0.00  0.00     0.281 C 
ATOM     14  O   UNL d   1      45.411 -16.319  44.953  0.00  0.00    -0.265 OA
ATOM     15  N   UNL d   1      45.902 -16.622  43.651  0.00  0.00    -0.206 NA
BRANCH  15  16
ATOM     16  C   UNL d   1      46.176 -17.346  43.919  0.00  0.00     0.102 C 
BRANCH  16  17
ATOM     17  C   UNL d   1      46.453 -17.908  43.389  0.00  0.00     0.021 C 
BRANCH  17  18
ATOM     18  C   UNL d   1      46.363 -18.713  43.545  0.00  0.00     0.002 A 
ATOM     19  C   UNL d   1      46.392 -19.260  42.915  0.00  0.00     0.000 A 
ATOM     20  C   UNL d   1      46.301 -20.069  43.075  0.00  0.00     0.000 A 
ATOM     21  C   UNL d   1      46.184 -20.330  43.844  0.00  0.00     0.000 A 
ATOM     22  C   UNL d   1      46.156 -19.783  44.466  0.00  0.00     0.000 A 
ATOM     23  C   UNL d   1      46.244 -18.976  44.331  0.00  0.00     0.000 A 
ENDBRANCH  17  18
ENDBRANCH  16  17
ENDBRANCH  15  16
ENDBRANCH   1  13
TORSDOF 6
ENDMDL
