MODEL 1
REMARK VINA RESULT:      41.6      0.000      0.000
REMARK  6 active torsions:
REMARK  status: ('A' for Active; 'I' for Inactive)
REMARK    1  A    between atoms: C_2  and  N_1 
REMARK    2  A    between atoms: C_6  and  C_2 
REMARK    3  A    between atoms: O_5  and  C_12 
REMARK    4  A    between atoms: C_11  and  O_5 
REMARK    5  A    between atoms: C_12  and  C_9 
REMARK    6  A    between atoms: C_10  and  C_11 
ROOT
ATOM      1  N   UNL d   1     -50.988  26.306  33.475  0.00  0.00    -0.302 N 
ATOM      2  C   UNL d   1     -50.276  25.915  33.322  0.00  0.00     0.080 A 
ATOM      3  C   UNL d   1     -50.979  27.086  33.755  0.00  0.00     0.080 A 
ATOM      4  C   UNL d   1     -49.562  26.293  33.446  0.00  0.00     0.021 A 
ATOM      5  C   UNL d   1     -50.261  27.471  33.882  0.00  0.00     0.021 A 
ATOM      6  C   UNL d   1     -49.544  27.073  33.727  0.00  0.00     0.028 A 
ENDROOT
BRANCH   6   7
ATOM      7  C   UNL d   1     -48.826  27.458  33.853  0.00  0.00     0.123 C 
BRANCH   7   8
ATOM      8  O   UNL d   1     -48.726  27.943  34.520  0.00  0.00    -0.303 OA
BRANCH   8   9
ATOM      9  C   UNL d   1     -47.982  28.062  34.838  0.00  0.00     0.123 C 
BRANCH   9  10
ATOM     10  C   UNL d   1     -47.795  28.774  35.204  0.00  0.00     0.025 A 
ATOM     11  C   UNL d   1     -48.067  28.923  35.964  0.00  0.00     0.002 A 
ATOM     12  C   UNL d   1     -47.879  29.635  36.330  0.00  0.00     0.000 A 
ATOM     13  C   UNL d   1     -47.419  30.198  35.936  0.00  0.00     0.000 A 
ATOM     14  C   UNL d   1     -47.150  30.039  35.171  0.00  0.00     0.000 A 
ATOM     15  C   UNL d   1     -47.337  29.326  34.805  0.00  0.00     0.002 A 
ENDBRANCH   9  10
ENDBRANCH   8   9
ENDBRANCH   7   8
ENDBRANCH   6   7
BRANCH   1  16
ATOM     16  C   UNL d   1     -51.698  25.920  33.348  0.00  0.00     0.080 C 
BRANCH  16  17
ATOM     17  C   UNL d   1     -51.730  25.096  33.358  0.00  0.00     0.018 A 
ATOM     18  C   UNL d   1     -52.463  24.710  33.421  0.00  0.00     0.002 A 
ATOM     19  C   UNL d   1     -52.494  23.881  33.431  0.00  0.00     0.000 A 
ATOM     20  C   UNL d   1     -51.797  23.442  33.379  0.00  0.00     0.000 A 
ATOM     21  C   UNL d   1     -51.069  23.827  33.317  0.00  0.00     0.000 A 
ATOM     22  C   UNL d   1     -51.032  24.653  33.307  0.00  0.00     0.002 A 
ENDBRANCH  16  17
ENDBRANCH   1  16
TORSDOF 6
ENDMDL
MODEL 2
REMARK VINA RESULT:      42.9      0.876      1.653
REMARK  6 active torsions:
REMARK  status: ('A' for Active; 'I' for Inactive)
REMARK    1  A    between atoms: C_2  and  N_1 
REMARK    2  A    between atoms: C_6  and  C_2 
REMARK    3  A    between atoms: O_5  and  C_12 
REMARK    4  A    between atoms: C_11  and  O_5 
REMARK    5  A    between atoms: C_12  and  C_9 
REMARK    6  A    between atoms: C_10  and  C_11 
ROOT
ATOM      1  N   UNL d   1     -51.247  25.089  33.346  0.00  0.00    -0.302 N 
ATOM      2  C   UNL d   1     -51.793  25.709  33.308  0.00  0.00     0.080 A 
ATOM      3  C   UNL d   1     -50.439  25.254  33.421  0.00  0.00     0.080 A 
ATOM      4  C   UNL d   1     -51.539  26.485  33.343  0.00  0.00     0.021 A 
ATOM      5  C   UNL d   1     -50.179  26.036  33.457  0.00  0.00     0.021 A 
ATOM      6  C   UNL d   1     -50.733  26.659  33.418  0.00  0.00     0.028 A 
ENDROOT
BRANCH   6   7
ATOM      7  C   UNL d   1     -50.473  27.441  33.455  0.00  0.00     0.123 C 
BRANCH   7   8
ATOM      8  O   UNL d   1     -49.768  27.627  33.854  0.00  0.00    -0.303 OA
BRANCH   8   9
ATOM      9  C   UNL d   1     -49.542  28.407  33.954  0.00  0.00     0.123 C 
BRANCH   9  10
ATOM     10  C   UNL d   1     -48.989  28.610  34.526  0.00  0.00     0.025 A 
ATOM     11  C   UNL d   1     -48.591  29.325  34.469  0.00  0.00     0.002 A 
ATOM     12  C   UNL d   1     -48.036  29.528  35.042  0.00  0.00     0.000 A 
ATOM     13  C   UNL d   1     -47.880  29.015  35.672  0.00  0.00     0.000 A 
ATOM     14  C   UNL d   1     -48.286  28.297  35.720  0.00  0.00     0.000 A 
ATOM     15  C   UNL d   1     -48.841  28.094  35.147  0.00  0.00     0.002 A 
ENDBRANCH   9  10
ENDBRANCH   8   9
ENDBRANCH   7   8
ENDBRANCH   6   7
BRANCH   1  16
ATOM     16  C   UNL d   1     -51.509  24.315  33.310  0.00  0.00     0.080 C 
BRANCH  16  17
ATOM     17  C   UNL d   1     -52.298  24.136  33.470  0.00  0.00     0.018 A 
ATOM     18  C   UNL d   1     -52.878  24.728  33.417  0.00  0.00     0.002 A 
ATOM     19  C   UNL d   1     -53.671  24.547  33.578  0.00  0.00     0.000 A 
ATOM     20  C   UNL d   1     -53.882  23.778  33.792  0.00  0.00     0.000 A 
ATOM     21  C   UNL d   1     -53.305  23.189  33.845  0.00  0.00     0.000 A 
ATOM     22  C   UNL d   1     -52.513  23.365  33.685  0.00  0.00     0.002 A 
ENDBRANCH  16  17
ENDBRANCH   1  16
TORSDOF 6
ENDMDL
