MODEL 1
REMARK VINA RESULT:      32.9      0.000      0.000
REMARK  5 active torsions:
REMARK  status: ('A' for Active; 'I' for Inactive)
REMARK       I    between atoms: N_3  and  C_1 
REMARK    1  A    between atoms: C_4  and  C_1 
REMARK    2  A    between atoms: C_2  and  C_6 
REMARK    3  A    between atoms: O_5  and  C_2 
REMARK    4  A    between atoms: C_11  and  N_3 
REMARK    5  A    between atoms: C_14  and  O_5 
ROOT
ATOM      1  C   UNL d   1      13.912  12.614  -2.207  0.00  0.00     0.064 A 
ATOM      2  C   UNL d   1      14.340  13.230  -2.557  0.00  0.00     0.008 A 
ATOM      3  C   UNL d   1      13.918  12.523  -1.382  0.00  0.00     0.008 A 
ATOM      4  C   UNL d   1      14.776  13.659  -1.262  0.00  0.00     0.135 A 
ATOM      5  C   UNL d   1      14.770  13.751  -2.087  0.00  0.00     0.032 A 
ATOM      6  C   UNL d   1      14.351  13.048  -0.913  0.00  0.00     0.032 A 
ENDROOT
BRANCH   1   7
ATOM      7  C   UNL d   1      13.481  12.093  -2.685  0.00  0.00     0.300 C 
ATOM      8  O   UNL d   1      12.774  11.780  -2.406  0.00  0.00    -0.259 OA
BRANCH   7   9
ATOM      9  O   UNL d   1      13.761  11.891  -3.434  0.00  0.00    -0.273 OA
BRANCH   9  10
ATOM     10  C   UNL d   1      13.430  12.242  -4.102  0.00  0.00     0.103 A 
ATOM     11  C   UNL d   1      13.286  11.789  -4.775  0.00  0.00     0.025 A 
ATOM     12  C   UNL d   1      12.959  12.140  -5.435  0.00  0.00     0.002 A 
ATOM     13  C   UNL d   1      12.769  12.943  -5.438  0.00  0.00     0.000 A 
ATOM     14  C   UNL d   1      12.916  13.397  -4.757  0.00  0.00     0.002 A 
ATOM     15  C   UNL d   1      13.246  13.046  -4.090  0.00  0.00     0.025 A 
ENDBRANCH   9  10
ENDBRANCH   7   9
ENDBRANCH   1   7
BRANCH   4  16
ATOM     16  N   UNL d   1      15.211  14.187  -0.792  0.00  0.00    -0.368 NA
ATOM     17  C   UNL d   1      15.641  14.711  -0.327  0.00  0.00     0.303 C 
ATOM     18  O   UNL d   1      16.376  14.490  -0.030  0.00  0.00    -0.256 OA
BRANCH  17  19
ATOM     19  C   UNL d   1      15.334  15.457  -0.159  0.00  0.00     0.085 C 
ATOM     20  C   UNL d   1      14.527  15.554  -0.019  0.00  0.00     0.011 C 
ATOM     21  C   UNL d   1      16.146  15.580  -0.264  0.00  0.00     0.011 C 
ATOM     22  C   UNL d   1      15.833  16.111  -0.130  0.00  0.00     0.011 C 
ENDBRANCH  17  19
ENDBRANCH   4  16
TORSDOF 5
ENDMDL
MODEL 2
REMARK VINA RESULT:      34.5      1.590      2.256
REMARK  5 active torsions:
REMARK  status: ('A' for Active; 'I' for Inactive)
REMARK       I    between atoms: N_3  and  C_1 
REMARK    1  A    between atoms: C_4  and  C_1 
REMARK    2  A    between atoms: C_2  and  C_6 
REMARK    3  A    between atoms: O_5  and  C_2 
REMARK    4  A    between atoms: C_11  and  N_3 
REMARK    5  A    between atoms: C_14  and  O_5 
ROOT
ATOM      1  C   UNL d   1      15.191  13.050  -0.806  0.00  0.00     0.064 A 
ATOM      2  C   UNL d   1      15.609  13.466  -1.385  0.00  0.00     0.008 A 
ATOM      3  C   UNL d   1      14.820  13.462  -0.188  0.00  0.00     0.008 A 
ATOM      4  C   UNL d   1      15.287  14.698  -0.731  0.00  0.00     0.135 A 
ATOM      5  C   UNL d   1      15.658  14.286  -1.349  0.00  0.00     0.032 A 
ATOM      6  C   UNL d   1      14.870  14.287  -0.154  0.00  0.00     0.032 A 
ENDROOT
BRANCH   1   7
ATOM      7  C   UNL d   1      15.145  12.225  -0.847  0.00  0.00     0.300 C 
ATOM      8  O   UNL d   1      15.838  11.781  -0.841  0.00  0.00    -0.259 OA
BRANCH   7   9
ATOM      9  O   UNL d   1      14.411  11.852  -0.894  0.00  0.00    -0.273 OA
BRANCH   9  10
ATOM     10  C   UNL d   1      14.002  11.844  -1.609  0.00  0.00     0.103 A 
ATOM     11  C   UNL d   1      13.178  11.814  -1.610  0.00  0.00     0.025 A 
ATOM     12  C   UNL d   1      12.777  11.805  -2.321  0.00  0.00     0.002 A 
ATOM     13  C   UNL d   1      13.184  11.827  -3.038  0.00  0.00     0.000 A 
ATOM     14  C   UNL d   1      14.014  11.857  -3.032  0.00  0.00     0.002 A 
ATOM     15  C   UNL d   1      14.423  11.866  -2.318  0.00  0.00     0.025 A 
ENDBRANCH   9  10
ENDBRANCH   7   9
ENDBRANCH   1   7
BRANCH   4  16
ATOM     16  N   UNL d   1      15.339  15.526  -0.699  0.00  0.00    -0.368 NA
ATOM     17  C   UNL d   1      15.389  16.346  -0.669  0.00  0.00     0.303 C 
ATOM     18  O   UNL d   1      15.771  16.712  -0.038  0.00  0.00    -0.256 OA
BRANCH  17  19
ATOM     19  C   UNL d   1      15.056  16.800  -1.270  0.00  0.00     0.085 C 
ATOM     20  C   UNL d   1      14.636  16.438  -1.882  0.00  0.00     0.011 C 
ATOM     21  C   UNL d   1      15.424  17.347  -0.771  0.00  0.00     0.011 C 
ATOM     22  C   UNL d   1      15.141  17.619  -1.264  0.00  0.00     0.011 C 
ENDBRANCH  17  19
ENDBRANCH   4  16
TORSDOF 5
ENDMDL
