MODEL 1
REMARK VINA RESULT:      -2.0      0.000      0.000
REMARK  6 active torsions:
REMARK  status: ('A' for Active; 'I' for Inactive)
REMARK    1  A    between atoms: S_3  and  N_1 
REMARK    2  A    between atoms: C_19  and  S_3 
REMARK    3  A    between atoms: S_4  and  N_8 
REMARK    4  A    between atoms: C_11  and  C_5 
REMARK    5  A    between atoms: C_12  and  C_6 
REMARK    6  A    between atoms: N_8  and  C_20 
ROOT
ATOM      1  N   UNL d   1      58.028  -1.002  30.011  0.00  0.00    -0.152 N 
ATOM      2  N   UNL d   1      57.418  -1.050  30.572  0.00  0.00    -0.155 NA
ATOM      3  C   UNL d   1      58.493  -0.337  30.200  0.00  0.00     0.096 A 
ATOM      4  C   UNL d   1      57.504  -0.423  31.103  0.00  0.00     0.104 A 
ATOM      5  C   UNL d   1      58.167   0.014  30.870  0.00  0.00     0.041 A 
ENDROOT
BRANCH   4   6
ATOM      6  C   UNL d   1      57.017  -0.262  31.748  0.00  0.00     0.019 A 
ATOM      7  C   UNL d   1      56.921   0.523  32.010  0.00  0.00     0.003 A 
ATOM      8  C   UNL d   1      56.435   0.682  32.652  0.00  0.00     0.020 A 
ATOM      9  C   UNL d   1      56.040   0.067  33.043  0.00  0.00     0.093 A 
ATOM     10  C   UNL d   1      56.138  -0.714  32.779  0.00  0.00     0.020 A 
ATOM     11  C   UNL d   1      56.628  -0.877  32.130  0.00  0.00     0.003 A 
BRANCH   9  12
ATOM     12  N   UNL d   1      55.550   0.220  33.691  0.00  0.00    -0.162 NA
BRANCH  12  13
ATOM     13  S   UNL d   1      55.863   0.324  34.441  0.00  0.00     0.266 S 
ATOM     14  O   UNL d   1      55.120   0.024  34.660  0.00  0.00    -0.203 OA
ATOM     15  O   UNL d   1      55.873   0.306  35.271  0.00  0.00    -0.203 OA
ATOM     16  C   UNL d   1      56.607   0.625  34.251  0.00  0.00     0.165 C 
ENDBRANCH  12  13
ENDBRANCH   9  12
ENDBRANCH   4   6
BRANCH   1  17
ATOM     17  S   UNL d   1      58.145  -1.524  29.380  0.00  0.00     0.287 S 
ATOM     18  O   UNL d   1      58.127  -1.686  28.570  0.00  0.00    -0.198 OA
ATOM     19  O   UNL d   1      57.877  -0.754  29.236  0.00  0.00    -0.198 OA
BRANCH  17  20
ATOM     20  C   UNL d   1      58.411  -2.269  29.591  0.00  0.00     0.118 C 
ATOM     21  C   UNL d   1      58.744  -2.765  29.014  0.00  0.00     0.014 C 
ENDBRANCH  17  20
ENDBRANCH   1  17
BRANCH   3  22
ATOM     22  C   UNL d   1      59.154  -0.086  29.787  0.00  0.00     0.019 A 
ATOM     23  C   UNL d   1      59.055   0.333  29.083  0.00  0.00     0.004 A 
ATOM     24  C   UNL d   1      59.718   0.589  28.661  0.00  0.00     0.030 A 
ATOM     25  C   UNL d   1      60.465   0.423  28.946  0.00  0.00     0.140 A 
ATOM     26  C   UNL d   1      60.562   0.010  29.640  0.00  0.00     0.030 A 
ATOM     27  F   UNL d   1      61.133   0.682  28.519  0.00  0.00    -0.204 F 
ATOM     28  C   UNL d   1      59.912  -0.248  30.066  0.00  0.00     0.004 A 
ENDBRANCH   3  22
TORSDOF 6
ENDMDL
MODEL 2
REMARK VINA RESULT:       0.4      2.445      5.287
REMARK  6 active torsions:
REMARK  status: ('A' for Active; 'I' for Inactive)
REMARK    1  A    between atoms: S_3  and  N_1 
REMARK    2  A    between atoms: C_19  and  S_3 
REMARK    3  A    between atoms: S_4  and  N_8 
REMARK    4  A    between atoms: C_11  and  C_5 
REMARK    5  A    between atoms: C_12  and  C_6 
REMARK    6  A    between atoms: N_8  and  C_20 
ROOT
ATOM      1  N   UNL d   1      56.315  -1.070  32.740  0.00  0.00    -0.152 N 
ATOM      2  N   UNL d   1      56.777  -1.075  32.051  0.00  0.00    -0.155 NA
ATOM      3  C   UNL d   1      56.359  -0.304  33.067  0.00  0.00     0.096 A 
ATOM      4  C   UNL d   1      57.104  -0.322  31.951  0.00  0.00     0.104 A 
ATOM      5  C   UNL d   1      56.844   0.149  32.580  0.00  0.00     0.041 A 
ENDROOT
BRANCH   4   6
ATOM      6  C   UNL d   1      57.600  -0.085  31.337  0.00  0.00     0.019 A 
ATOM      7  C   UNL d   1      58.224   0.446  31.489  0.00  0.00     0.003 A 
ATOM      8  C   UNL d   1      58.716   0.682  30.876  0.00  0.00     0.020 A 
ATOM      9  C   UNL d   1      58.597   0.396  30.108  0.00  0.00     0.093 A 
ATOM     10  C   UNL d   1      57.974  -0.132  29.960  0.00  0.00     0.020 A 
ATOM     11  C   UNL d   1      57.475  -0.372  30.578  0.00  0.00     0.003 A 
BRANCH   9  12
ATOM     12  N   UNL d   1      59.090   0.630  29.486  0.00  0.00    -0.162 NA
BRANCH  12  13
ATOM     13  S   UNL d   1      59.635   0.110  29.162  0.00  0.00     0.266 S 
ATOM     14  O   UNL d   1      60.162   0.586  29.595  0.00  0.00    -0.203 OA
ATOM     15  O   UNL d   1      60.386  -0.211  29.016  0.00  0.00    -0.203 OA
ATOM     16  C   UNL d   1      59.134  -0.376  28.724  0.00  0.00     0.165 C 
ENDBRANCH  12  13
ENDBRANCH   9  12
ENDBRANCH   4   6
BRANCH   1  17
ATOM     17  S   UNL d   1      55.890  -1.712  33.041  0.00  0.00     0.287 S 
ATOM     18  O   UNL d   1      55.848  -2.380  33.525  0.00  0.00    -0.198 OA
ATOM     19  O   UNL d   1      56.672  -1.584  33.281  0.00  0.00    -0.198 OA
BRANCH  17  20
ATOM     20  C   UNL d   1      55.123  -1.782  32.763  0.00  0.00     0.118 C 
ATOM     21  C   UNL d   1      54.666  -2.442  32.979  0.00  0.00     0.014 C 
ENDBRANCH  17  20
ENDBRANCH   1  17
BRANCH   3  22
ATOM     22  C   UNL d   1      55.984  -0.058  33.752  0.00  0.00     0.019 A 
ATOM     23  C   UNL d   1      56.414  -0.013  34.455  0.00  0.00     0.004 A 
ATOM     24  C   UNL d   1      56.041   0.235  35.150  0.00  0.00     0.030 A 
ATOM     25  C   UNL d   1      55.248   0.432  35.132  0.00  0.00     0.140 A 
ATOM     26  C   UNL d   1      54.824   0.386  34.439  0.00  0.00     0.030 A 
ATOM     27  F   UNL d   1      54.873   0.681  35.834  0.00  0.00    -0.204 F 
ATOM     28  C   UNL d   1      55.185   0.142  33.746  0.00  0.00     0.004 A 
ENDBRANCH   3  22
TORSDOF 6
ENDMDL
