MODEL 1
REMARK VINA RESULT:      56.4      0.000      0.000
REMARK  6 active torsions:
REMARK  status: ('A' for Active; 'I' for Inactive)
REMARK    1  A    between atoms: C_21  and  C_3 
REMARK    2  A    between atoms: S_17  and  C_5 
REMARK    3  A    between atoms: C_11  and  C_16 
REMARK       I    between atoms: N_14  and  C_11 
REMARK    4  A    between atoms: C_19  and  N_14 
REMARK    5  A    between atoms: C_16  and  C_20 
REMARK    6  A    between atoms: C_20  and  S_17 
ROOT
ATOM      1  C   UNL d   1     -51.636  26.773  33.309  0.00  0.00     0.092 A 
ATOM      2  C   UNL d   1     -51.935  25.374  33.310  0.00  0.00     0.057 A 
ATOM      3  C   UNL d   1     -52.190  26.156  33.310  0.00  0.00     0.016 A 
ATOM      4  N   UNL d   1     -50.580  25.811  33.307  0.00  0.00    -0.239 NA
ATOM      5  C   UNL d   1     -50.832  26.601  33.308  0.00  0.00     0.120 A 
ATOM      6  C   UNL d   1     -51.130  25.202  33.308  0.00  0.00     0.081 A 
ATOM      7  C   UNL d   1     -52.487  24.765  33.311  0.00  0.00     0.193 A 
ATOM      8  C   UNL d   1     -51.903  27.561  33.310  0.00  0.00     0.103 C 
ATOM      9  N   UNL d   1     -52.162  28.351  33.311  0.00  0.00    -0.191 NA
ATOM     10  C   UNL d   1     -51.428  23.808  33.309  0.00  0.00     0.042 A 
ATOM     11  C   UNL d   1     -52.233  23.980  33.310  0.00  0.00     0.019 A 
ATOM     12  C   UNL d   1     -50.877  24.421  33.308  0.00  0.00    -0.003 A 
ATOM     13  O   UNL d   1     -53.292  24.937  33.312  0.00  0.00    -0.287 OA
ATOM     14  C   UNL d   1     -50.731  23.370  33.307  0.00  0.00     0.009 C 
ATOM     15  C   UNL d   1     -51.982  23.191  33.310  0.00  0.00     0.009 C 
ENDROOT
BRANCH   3  16
ATOM     16  C   UNL d   1     -52.994  26.328  33.312  0.00  0.00     0.001 C 
ATOM     17  C   UNL d   1     -53.500  25.928  33.821  0.00  0.00     0.000 C 
ENDBRANCH   3  16
BRANCH   5  18
ATOM     18  S   UNL d   1     -50.280  27.214  33.307  0.00  0.00    -0.067 SA
BRANCH  18  19
ATOM     19  C   UNL d   1     -49.960  27.475  34.022  0.00  0.00     0.042 C 
BRANCH  19  20
ATOM     20  C   UNL d   1     -49.144  27.435  34.146  0.00  0.00     0.070 C 
BRANCH  20  21
ATOM     21  C   UNL d   1     -48.795  27.875  34.757  0.00  0.00     0.280 C 
ATOM     22  N   UNL d   1     -48.320  28.527  34.579  0.00  0.00    -0.208 NA
ATOM     23  O   UNL d   1     -48.922  27.662  35.546  0.00  0.00    -0.265 OA
BRANCH  22  24
ATOM     24  C   UNL d   1     -47.972  28.966  35.191  0.00  0.00     0.085 A 
ATOM     25  C   UNL d   1     -48.435  29.246  35.816  0.00  0.00     0.019 A 
ATOM     26  C   UNL d   1     -48.085  29.681  36.419  0.00  0.00     0.002 A 
ATOM     27  C   UNL d   1     -47.273  29.843  36.409  0.00  0.00     0.000 A 
ATOM     28  C   UNL d   1     -46.813  29.564  35.786  0.00  0.00     0.002 A 
ATOM     29  C   UNL d   1     -46.921  30.287  37.027  0.00  0.00     0.000 C 
ATOM     30  C   UNL d   1     -47.161  29.125  35.175  0.00  0.00     0.019 A 
ENDBRANCH  22  24
ENDBRANCH  20  21
ENDBRANCH  19  20
ENDBRANCH  18  19
ENDBRANCH   5  18
TORSDOF 6
ENDMDL
