MODEL 1
REMARK VINA RESULT:      10.9      0.000      0.000
REMARK  4 active torsions:
REMARK  status: ('A' for Active; 'I' for Inactive)
REMARK    1  A    between atoms: C_2  and  S_1 
REMARK    2  A    between atoms: N_3  and  S_1 
REMARK    3  A    between atoms: C_6  and  N_3 
REMARK    4  A    between atoms: C_4  and  C_6 
REMARK       I    between atoms: N_5  and  C_4 
ROOT
ATOM      1  S   UNL d   1      46.302 -18.197  44.126  0.00  0.00     0.287 S 
ATOM      2  O   UNL d   1      45.996 -18.680  44.737  0.00  0.00    -0.198 OA
ATOM      3  O   UNL d   1      46.612 -17.720  43.504  0.00  0.00    -0.198 OA
ENDROOT
BRANCH   1   4
ATOM      4  C   UNL d   1      46.403 -18.887  43.635  0.00  0.00     0.126 A 
ATOM      5  C   UNL d   1      46.547 -19.625  43.985  0.00  0.00     0.071 A 
ATOM      6 CL   UNL d   1      46.596 -19.709  44.825  0.00  0.00    -0.082 Cl
ATOM      7  C   UNL d   1      46.645 -20.299  43.503  0.00  0.00     0.012 A 
ATOM      8  C   UNL d   1      46.597 -20.216  42.685  0.00  0.00     0.002 A 
ATOM      9  C   UNL d   1      46.453 -19.473  42.342  0.00  0.00     0.012 A 
ATOM     10  C   UNL d   1      46.356 -18.809  42.815  0.00  0.00     0.071 A 
ATOM     11 CL   UNL d   1      46.213 -18.069  42.476  0.00  0.00    -0.082 Cl
ENDBRANCH   1   4
BRANCH   1  12
ATOM     12  N   UNL d   1      46.204 -17.516  44.607  0.00  0.00    -0.152 NA
BRANCH  12  13
ATOM     13  C   UNL d   1      46.024 -16.780  44.252  0.00  0.00     0.173 C 
BRANCH  13  14
ATOM     14  C   UNL d   1      45.466 -16.277  44.614  0.00  0.00     0.285 C 
ATOM     15  N   UNL d   1      45.524 -15.455  44.542  0.00  0.00    -0.271 N 
ATOM     16  C   UNL d   1      46.158 -15.178  44.096  0.00  0.00     0.083 A 
ATOM     17  C   UNL d   1      44.944 -15.027  44.923  0.00  0.00     0.083 A 
ATOM     18  C   UNL d   1      46.358 -14.399  43.927  0.00  0.00     0.019 A 
ATOM     19  C   UNL d   1      45.977 -13.710  44.161  0.00  0.00     0.002 A 
ATOM     20  C   UNL d   1      45.316 -13.622  44.612  0.00  0.00     0.002 A 
ATOM     21  C   UNL d   1      44.849 -14.207  44.955  0.00  0.00     0.019 A 
ATOM     22  O   UNL d   1      44.986 -16.556  44.955  0.00  0.00    -0.265 OA
ENDBRANCH  13  14
ENDBRANCH  12  13
ENDBRANCH   1  12
TORSDOF 4
ENDMDL
