MODEL 1
REMARK VINA RESULT:      -7.2      0.000      0.000
REMARK  1 active torsions:
REMARK  status: ('A' for Active; 'I' for Inactive)
REMARK    1  A    between atoms: O_8  and  C_4 
ROOT
ATOM      1  C   UNL d   1     -47.700  12.927  23.206  0.00  0.00     0.021 A 
ATOM      2  C   UNL d   1     -46.912  12.714  23.323  0.00  0.00     0.024 A 
ATOM      3  C   UNL d   1     -48.309  12.384  23.333  0.00  0.00     0.103 A 
ATOM      4  C   UNL d   1     -46.725  11.955  23.568  0.00  0.00     0.094 A 
ATOM      5  C   UNL d   1     -48.124  11.618  23.580  0.00  0.00     0.023 A 
ATOM      6  C   UNL d   1     -47.336  11.405  23.697  0.00  0.00     0.026 A 
ATOM      7  N   UNL d   1     -49.097  12.611  23.212  0.00  0.00    -0.148 N 
ATOM      8  C   UNL d   1     -47.887  13.690  22.959  0.00  0.00     0.002 A 
ATOM      9  C   UNL d   1     -46.314  13.263  23.193  0.00  0.00     0.002 A 
ATOM     10  C   UNL d   1     -47.287  14.243  22.828  0.00  0.00     0.000 A 
ATOM     11  C   UNL d   1     -46.499  14.030  22.945  0.00  0.00     0.000 A 
ENDROOT
BRANCH   4  12
ATOM     12  O   UNL d   1     -45.933  11.740  23.686  0.00  0.00    -0.328 OA
ATOM     13  C   UNL d   1     -45.719  10.949  23.698  0.00  0.00     0.181 C 
ENDBRANCH   4  12
TORSDOF 1
ENDMDL
MODEL 2
REMARK VINA RESULT:      -6.9      1.515      2.846
REMARK  1 active torsions:
REMARK  status: ('A' for Active; 'I' for Inactive)
REMARK    1  A    between atoms: O_8  and  C_4 
ROOT
ATOM      1  C   UNL d   1     -47.419  12.476  23.280  0.00  0.00     0.021 A 
ATOM      2  C   UNL d   1     -48.070  12.967  23.155  0.00  0.00     0.024 A 
ATOM      3  C   UNL d   1     -46.650  12.754  23.164  0.00  0.00     0.103 A 
ATOM      4  C   UNL d   1     -47.959  13.741  22.912  0.00  0.00     0.094 A 
ATOM      5  C   UNL d   1     -46.534  13.534  22.919  0.00  0.00     0.023 A 
ATOM      6  C   UNL d   1     -47.185  14.025  22.794  0.00  0.00     0.026 A 
ATOM      7  N   UNL d   1     -46.004  12.251  23.294  0.00  0.00    -0.148 N 
ATOM      8  C   UNL d   1     -47.531  11.698  23.525  0.00  0.00     0.002 A 
ATOM      9  C   UNL d   1     -48.830  12.677  23.274  0.00  0.00     0.002 A 
ATOM     10  C   UNL d   1     -48.295  11.406  23.645  0.00  0.00     0.000 A 
ATOM     11  C   UNL d   1     -48.946  11.897  23.519  0.00  0.00     0.000 A 
ENDROOT
BRANCH   4  12
ATOM     12  O   UNL d   1     -48.613  14.234  22.786  0.00  0.00    -0.328 OA
ATOM     13  C   UNL d   1     -48.503  15.004  22.528  0.00  0.00     0.181 C 
ENDBRANCH   4  12
TORSDOF 1
ENDMDL
MODEL 3
REMARK VINA RESULT:      -6.9      1.546      2.257
REMARK  1 active torsions:
REMARK  status: ('A' for Active; 'I' for Inactive)
REMARK    1  A    between atoms: O_8  and  C_4 
ROOT
ATOM      1  C   UNL d   1     -47.398  12.604  23.081  0.00  0.00     0.021 A 
ATOM      2  C   UNL d   1     -47.807  13.145  22.611  0.00  0.00     0.024 A 
ATOM      3  C   UNL d   1     -47.704  11.851  23.224  0.00  0.00     0.103 A 
ATOM      4  C   UNL d   1     -48.528  12.938  22.281  0.00  0.00     0.094 A 
ATOM      5  C   UNL d   1     -48.430  11.638  22.893  0.00  0.00     0.023 A 
ATOM      6  C   UNL d   1     -48.840  12.179  22.424  0.00  0.00     0.026 A 
ATOM      7  N   UNL d   1     -47.283  11.316  23.697  0.00  0.00    -0.148 N 
ATOM      8  C   UNL d   1     -46.674  12.813  23.412  0.00  0.00     0.002 A 
ATOM      9  C   UNL d   1     -47.492  13.892  22.476  0.00  0.00     0.002 A 
ATOM     10  C   UNL d   1     -46.355  13.563  23.276  0.00  0.00     0.000 A 
ATOM     11  C   UNL d   1     -46.765  14.104  22.807  0.00  0.00     0.000 A 
ENDROOT
BRANCH   4  12
ATOM     12  O   UNL d   1     -48.940  13.481  21.810  0.00  0.00    -0.328 OA
ATOM     13  C   UNL d   1     -49.632  13.257  21.433  0.00  0.00     0.181 C 
ENDBRANCH   4  12
TORSDOF 1
ENDMDL
MODEL 4
REMARK VINA RESULT:      -6.9      1.527      2.782
REMARK  1 active torsions:
REMARK  status: ('A' for Active; 'I' for Inactive)
REMARK    1  A    between atoms: O_8  and  C_4 
ROOT
ATOM      1  C   UNL d   1     -47.174  12.967  23.216  0.00  0.00     0.021 A 
ATOM      2  C   UNL d   1     -47.959  12.714  23.236  0.00  0.00     0.024 A 
ATOM      3  C   UNL d   1     -46.983  13.733  22.977  0.00  0.00     0.103 A 
ATOM      4  C   UNL d   1     -48.560  13.225  23.017  0.00  0.00     0.094 A 
ATOM      5  C   UNL d   1     -47.586  14.252  22.755  0.00  0.00     0.023 A 
ATOM      6  C   UNL d   1     -48.371  13.999  22.775  0.00  0.00     0.026 A 
ATOM      7  N   UNL d   1     -46.190  13.976  22.961  0.00  0.00    -0.148 N 
ATOM      8  C   UNL d   1     -46.571  12.452  23.436  0.00  0.00     0.002 A 
ATOM      9  C   UNL d   1     -48.137  11.948  23.476  0.00  0.00     0.002 A 
ATOM     10  C   UNL d   1     -46.749  11.682  23.678  0.00  0.00     0.000 A 
ATOM     11  C   UNL d   1     -47.534  11.429  23.698  0.00  0.00     0.000 A 
ENDROOT
BRANCH   4  12
ATOM     12  O   UNL d   1     -49.349  12.971  23.037  0.00  0.00    -0.328 OA
ATOM     13  C   UNL d   1     -49.951  13.482  22.817  0.00  0.00     0.181 C 
ENDBRANCH   4  12
TORSDOF 1
ENDMDL
MODEL 5
REMARK VINA RESULT:      -6.9      0.746      2.027
REMARK  1 active torsions:
REMARK  status: ('A' for Active; 'I' for Inactive)
REMARK    1  A    between atoms: O_8  and  C_4 
ROOT
ATOM      1  C   UNL d   1     -47.765  12.958  23.183  0.00  0.00     0.021 A 
ATOM      2  C   UNL d   1     -46.985  12.699  23.118  0.00  0.00     0.024 A 
ATOM      3  C   UNL d   1     -47.976  13.725  22.962  0.00  0.00     0.103 A 
ATOM      4  C   UNL d   1     -46.407  13.204  22.831  0.00  0.00     0.094 A 
ATOM      5  C   UNL d   1     -47.396  14.237  22.671  0.00  0.00     0.023 A 
ATOM      6  C   UNL d   1     -46.616  13.978  22.606  0.00  0.00     0.026 A 
ATOM      7  N   UNL d   1     -48.763  13.974  23.032  0.00  0.00    -0.148 N 
ATOM      8  C   UNL d   1     -48.344  12.450  23.472  0.00  0.00     0.002 A 
ATOM      9  C   UNL d   1     -46.787  11.932  23.342  0.00  0.00     0.002 A 
ATOM     10  C   UNL d   1     -48.147  11.680  23.698  0.00  0.00     0.000 A 
ATOM     11  C   UNL d   1     -47.367  11.421  23.633  0.00  0.00     0.000 A 
ENDROOT
BRANCH   4  12
ATOM     12  O   UNL d   1     -45.623  12.943  22.765  0.00  0.00    -0.328 OA
ATOM     13  C   UNL d   1     -45.113  13.303  22.234  0.00  0.00     0.181 C 
ENDBRANCH   4  12
TORSDOF 1
ENDMDL
MODEL 6
REMARK VINA RESULT:      -6.7      1.422      2.166
REMARK  1 active torsions:
REMARK  status: ('A' for Active; 'I' for Inactive)
REMARK    1  A    between atoms: O_8  and  C_4 
ROOT
ATOM      1  C   UNL d   1     -47.568  14.029  22.824  0.00  0.00     0.021 A 
ATOM      2  C   UNL d   1     -48.159  13.481  23.000  0.00  0.00     0.024 A 
ATOM      3  C   UNL d   1     -46.770  13.829  22.895  0.00  0.00     0.103 A 
ATOM      4  C   UNL d   1     -47.957  12.727  23.249  0.00  0.00     0.094 A 
ATOM      5  C   UNL d   1     -46.563  13.070  23.146  0.00  0.00     0.023 A 
ATOM      6  C   UNL d   1     -47.154  12.521  23.322  0.00  0.00     0.026 A 
ATOM      7  N   UNL d   1     -46.186  14.389  22.715  0.00  0.00    -0.148 N 
ATOM      8  C   UNL d   1     -47.772  14.786  22.574  0.00  0.00     0.002 A 
ATOM      9  C   UNL d   1     -48.950  13.692  22.925  0.00  0.00     0.002 A 
ATOM     10  C   UNL d   1     -48.567  15.000  22.498  0.00  0.00     0.000 A 
ATOM     11  C   UNL d   1     -49.157  14.451  22.675  0.00  0.00     0.000 A 
ENDROOT
BRANCH   4  12
ATOM     12  O   UNL d   1     -48.551  12.176  23.426  0.00  0.00    -0.328 OA
ATOM     13  C   UNL d   1     -48.350  11.429  23.698  0.00  0.00     0.181 C 
ENDBRANCH   4  12
TORSDOF 1
ENDMDL
MODEL 7
REMARK VINA RESULT:      -6.7      1.390      2.130
REMARK  1 active torsions:
REMARK  status: ('A' for Active; 'I' for Inactive)
REMARK    1  A    between atoms: O_8  and  C_4 
ROOT
ATOM      1  C   UNL d   1     -48.678  12.189  22.681  0.00  0.00     0.021 A 
ATOM      2  C   UNL d   1     -48.188  12.748  22.324  0.00  0.00     0.024 A 
ATOM      3  C   UNL d   1     -48.428  11.770  23.347  0.00  0.00     0.103 A 
ATOM      4  C   UNL d   1     -47.442  12.894  22.629  0.00  0.00     0.094 A 
ATOM      5  C   UNL d   1     -47.676  11.915  23.658  0.00  0.00     0.023 A 
ATOM      6  C   UNL d   1     -47.186  12.474  23.301  0.00  0.00     0.026 A 
ATOM      7  N   UNL d   1     -48.930  11.211  23.697  0.00  0.00    -0.148 N 
ATOM      8  C   UNL d   1     -49.428  12.043  22.373  0.00  0.00     0.002 A 
ATOM      9  C   UNL d   1     -48.449  13.159  21.661  0.00  0.00     0.002 A 
ATOM     10  C   UNL d   1     -49.691  12.456  21.707  0.00  0.00     0.000 A 
ATOM     11  C   UNL d   1     -49.201  13.015  21.350  0.00  0.00     0.000 A 
ENDROOT
BRANCH   4  12
ATOM     12  O   UNL d   1     -46.949  13.456  22.271  0.00  0.00    -0.328 OA
ATOM     13  C   UNL d   1     -46.216  13.626  22.595  0.00  0.00     0.181 C 
ENDBRANCH   4  12
TORSDOF 1
ENDMDL
MODEL 8
REMARK VINA RESULT:      -6.6      1.842      2.566
REMARK  1 active torsions:
REMARK  status: ('A' for Active; 'I' for Inactive)
REMARK    1  A    between atoms: O_8  and  C_4 
ROOT
ATOM      1  C   UNL d   1     -49.152  13.913  22.089  0.00  0.00     0.021 A 
ATOM      2  C   UNL d   1     -48.541  14.268  22.515  0.00  0.00     0.024 A 
ATOM      3  C   UNL d   1     -49.029  13.205  21.683  0.00  0.00     0.103 A 
ATOM      4  C   UNL d   1     -47.801  13.918  22.540  0.00  0.00     0.094 A 
ATOM      5  C   UNL d   1     -48.284  12.849  21.705  0.00  0.00     0.023 A 
ATOM      6  C   UNL d   1     -47.673  13.204  22.131  0.00  0.00     0.026 A 
ATOM      7  N   UNL d   1     -49.650  12.858  21.258  0.00  0.00    -0.148 N 
ATOM      8  C   UNL d   1     -49.895  14.266  22.065  0.00  0.00     0.002 A 
ATOM      9  C   UNL d   1     -48.677  14.973  22.916  0.00  0.00     0.002 A 
ATOM     10  C   UNL d   1     -50.032  14.975  22.467  0.00  0.00     0.000 A 
ATOM     11  C   UNL d   1     -49.422  15.329  22.893  0.00  0.00     0.000 A 
ENDROOT
BRANCH   4  12
ATOM     12  O   UNL d   1     -47.187  14.274  22.968  0.00  0.00    -0.328 OA
ATOM     13  C   UNL d   1     -46.450  13.918  23.003  0.00  0.00     0.181 C 
ENDBRANCH   4  12
TORSDOF 1
ENDMDL
MODEL 9
REMARK VINA RESULT:      -5.9      2.428      3.463
REMARK  1 active torsions:
REMARK  status: ('A' for Active; 'I' for Inactive)
REMARK    1  A    between atoms: O_8  and  C_4 
ROOT
ATOM      1  C   UNL d   1     -49.056  12.492  22.319  0.00  0.00     0.021 A 
ATOM      2  C   UNL d   1     -49.515  12.655  22.984  0.00  0.00     0.024 A 
ATOM      3  C   UNL d   1     -49.132  12.942  21.631  0.00  0.00     0.103 A 
ATOM      4  C   UNL d   1     -50.056  13.270  22.968  0.00  0.00     0.094 A 
ATOM      5  C   UNL d   1     -49.676  13.563  21.611  0.00  0.00     0.023 A 
ATOM      6  C   UNL d   1     -50.136  13.726  22.276  0.00  0.00     0.026 A 
ATOM      7  N   UNL d   1     -48.664  12.769  20.969  0.00  0.00    -0.148 N 
ATOM      8  C   UNL d   1     -48.513  11.874  22.336  0.00  0.00     0.002 A 
ATOM      9  C   UNL d   1     -49.430  12.199  23.663  0.00  0.00     0.002 A 
ATOM     10  C   UNL d   1     -48.426  11.415  23.018  0.00  0.00     0.000 A 
ATOM     11  C   UNL d   1     -48.886  11.578  23.683  0.00  0.00     0.000 A 
ENDROOT
BRANCH   4  12
ATOM     12  O   UNL d   1     -50.518  13.434  23.637  0.00  0.00    -0.328 OA
ATOM     13  C   UNL d   1     -51.021  14.081  23.640  0.00  0.00     0.181 C 
ENDBRANCH   4  12
TORSDOF 1
ENDMDL
