MODEL 1
REMARK VINA RESULT:      -7.5      0.000      0.000
REMARK  1 active torsions:
REMARK  status: ('A' for Active; 'I' for Inactive)
REMARK    1  A    between atoms: C_6  and  C_1 
ROOT
ATOM      1  C   UNL d   1     -48.405  14.240  22.888  0.00  0.00     0.111 A 
ATOM      2  N   UNL d   1     -48.984  13.778  23.243  0.00  0.00    -0.239 NA
ATOM      3  S   UNL d   1     -48.713  14.986  22.757  0.00  0.00    -0.066 SA
ATOM      4  C   UNL d   1     -49.665  14.245  23.334  0.00  0.00     0.088 A 
ATOM      5  C   UNL d   1     -49.501  14.994  23.034  0.00  0.00     0.049 A 
ATOM      6  C   UNL d   1     -50.408  14.085  23.650  0.00  0.00     0.020 A 
ATOM      7  C   UNL d   1     -50.078  15.581  23.049  0.00  0.00     0.008 A 
ATOM      8  C   UNL d   1     -50.822  15.421  23.365  0.00  0.00     0.001 A 
ATOM      9  C   UNL d   1     -50.986  14.672  23.665  0.00  0.00     0.002 A 
ENDROOT
BRANCH   1  10
ATOM     10  C   UNL d   1     -47.644  13.958  22.709  0.00  0.00     0.024 A 
ATOM     11  C   UNL d   1     -47.549  13.251  22.293  0.00  0.00     0.004 A 
ATOM     12  C   UNL d   1     -46.788  12.977  22.118  0.00  0.00     0.021 A 
ATOM     13  C   UNL d   1     -46.120  13.409  22.358  0.00  0.00     0.103 A 
ATOM     14  C   UNL d   1     -46.223  14.116  22.773  0.00  0.00     0.021 A 
ATOM     15  N   UNL d   1     -45.359  13.131  22.180  0.00  0.00    -0.148 N 
ATOM     16  C   UNL d   1     -46.984  14.391  22.949  0.00  0.00     0.004 A 
ENDBRANCH   1  10
TORSDOF 1
ENDMDL
MODEL 2
REMARK VINA RESULT:      -7.4      1.430      1.698
REMARK  1 active torsions:
REMARK  status: ('A' for Active; 'I' for Inactive)
REMARK    1  A    between atoms: C_6  and  C_1 
ROOT
ATOM      1  C   UNL d   1     -48.304  13.225  22.968  0.00  0.00     0.111 A 
ATOM      2  N   UNL d   1     -48.268  14.019  23.175  0.00  0.00    -0.239 NA
ATOM      3  S   UNL d   1     -49.005  13.093  22.568  0.00  0.00    -0.066 SA
ATOM      4  C   UNL d   1     -48.959  14.388  22.899  0.00  0.00     0.088 A 
ATOM      5  C   UNL d   1     -49.418  13.818  22.523  0.00  0.00     0.049 A 
ATOM      6  C   UNL d   1     -49.227  15.165  22.942  0.00  0.00     0.020 A 
ATOM      7  C   UNL d   1     -50.143  14.024  22.190  0.00  0.00     0.008 A 
ATOM      8  C   UNL d   1     -50.411  14.801  22.234  0.00  0.00     0.001 A 
ATOM      9  C   UNL d   1     -49.953  15.371  22.610  0.00  0.00     0.002 A 
ENDROOT
BRANCH   1  10
ATOM     10  C   UNL d   1     -47.706  12.678  23.152  0.00  0.00     0.024 A 
ATOM     11  C   UNL d   1     -47.896  11.960  23.514  0.00  0.00     0.004 A 
ATOM     12  C   UNL d   1     -47.295  11.421  23.695  0.00  0.00     0.021 A 
ATOM     13  C   UNL d   1     -46.503  11.597  23.515  0.00  0.00     0.103 A 
ATOM     14  C   UNL d   1     -46.321  12.318  23.153  0.00  0.00     0.021 A 
ATOM     15  N   UNL d   1     -45.904  11.054  23.698  0.00  0.00    -0.148 N 
ATOM     16  C   UNL d   1     -46.922  12.858  22.972  0.00  0.00     0.004 A 
ENDBRANCH   1  10
TORSDOF 1
ENDMDL
MODEL 3
REMARK VINA RESULT:      -7.2      1.496      3.725
REMARK  1 active torsions:
REMARK  status: ('A' for Active; 'I' for Inactive)
REMARK    1  A    between atoms: C_6  and  C_1 
ROOT
ATOM      1  C   UNL d   1     -48.378  13.311  22.929  0.00  0.00     0.111 A 
ATOM      2  N   UNL d   1     -48.412  12.585  23.311  0.00  0.00    -0.239 NA
ATOM      3  S   UNL d   1     -47.597  13.476  22.753  0.00  0.00    -0.066 SA
ATOM      4  C   UNL d   1     -47.637  12.292  23.373  0.00  0.00     0.088 A 
ATOM      5  C   UNL d   1     -47.130  12.841  23.029  0.00  0.00     0.049 A 
ATOM      6  C   UNL d   1     -47.331  11.601  23.698  0.00  0.00     0.020 A 
ATOM      7  C   UNL d   1     -46.319  12.699  23.009  0.00  0.00     0.008 A 
ATOM      8  C   UNL d   1     -46.013  12.007  23.333  0.00  0.00     0.001 A 
ATOM      9  C   UNL d   1     -46.520  11.458  23.678  0.00  0.00     0.002 A 
ENDROOT
BRANCH   1  10
ATOM     10  C   UNL d   1     -49.051  13.773  22.767  0.00  0.00     0.024 A 
ATOM     11  C   UNL d   1     -49.609  13.516  22.215  0.00  0.00     0.004 A 
ATOM     12  C   UNL d   1     -50.276  13.980  22.059  0.00  0.00     0.021 A 
ATOM     13  C   UNL d   1     -50.387  14.702  22.454  0.00  0.00     0.103 A 
ATOM     14  C   UNL d   1     -49.824  14.953  23.005  0.00  0.00     0.021 A 
ATOM     15  N   UNL d   1     -51.057  15.165  22.295  0.00  0.00    -0.148 N 
ATOM     16  C   UNL d   1     -49.157  14.489  23.162  0.00  0.00     0.004 A 
ENDBRANCH   1  10
TORSDOF 1
ENDMDL
MODEL 4
REMARK VINA RESULT:      -6.9      1.629      3.864
REMARK  1 active torsions:
REMARK  status: ('A' for Active; 'I' for Inactive)
REMARK    1  A    between atoms: C_6  and  C_1 
ROOT
ATOM      1  C   UNL d   1     -47.990  13.013  23.032  0.00  0.00     0.111 A 
ATOM      2  N   UNL d   1     -47.780  13.807  23.000  0.00  0.00    -0.239 NA
ATOM      3  S   UNL d   1     -47.326  12.562  22.877  0.00  0.00    -0.066 SA
ATOM      4  C   UNL d   1     -46.970  13.850  22.822  0.00  0.00     0.088 A 
ATOM      5  C   UNL d   1     -46.685  13.082  22.746  0.00  0.00     0.049 A 
ATOM      6  C   UNL d   1     -46.459  14.488  22.721  0.00  0.00     0.020 A 
ATOM      7  C   UNL d   1     -45.891  12.951  22.568  0.00  0.00     0.008 A 
ATOM      8  C   UNL d   1     -45.380  13.588  22.467  0.00  0.00     0.001 A 
ATOM      9  C   UNL d   1     -45.665  14.357  22.544  0.00  0.00     0.002 A 
ENDROOT
BRANCH   1  10
ATOM     10  C   UNL d   1     -48.762  12.753  23.197  0.00  0.00     0.024 A 
ATOM     11  C   UNL d   1     -49.410  13.236  23.028  0.00  0.00     0.004 A 
ATOM     12  C   UNL d   1     -50.175  12.970  23.195  0.00  0.00     0.021 A 
ATOM     13  C   UNL d   1     -50.296  12.220  23.532  0.00  0.00     0.103 A 
ATOM     14  C   UNL d   1     -49.642  11.742  23.698  0.00  0.00     0.021 A 
ATOM     15  N   UNL d   1     -51.064  11.956  23.698  0.00  0.00    -0.148 N 
ATOM     16  C   UNL d   1     -48.876  12.007  23.531  0.00  0.00     0.004 A 
ENDBRANCH   1  10
TORSDOF 1
ENDMDL
MODEL 5
REMARK VINA RESULT:      -4.7      8.737      9.570
REMARK  1 active torsions:
REMARK  status: ('A' for Active; 'I' for Inactive)
REMARK    1  A    between atoms: C_6  and  C_1 
ROOT
ATOM      1  C   UNL d   1     -39.439  14.379  21.019  0.00  0.00     0.111 A 
ATOM      2  N   UNL d   1     -39.257  13.702  21.447  0.00  0.00    -0.239 NA
ATOM      3  S   UNL d   1     -39.302  15.030  21.494  0.00  0.00    -0.066 SA
ATOM      4  C   UNL d   1     -39.003  13.936  22.202  0.00  0.00     0.088 A 
ATOM      5  C   UNL d   1     -39.030  14.758  22.235  0.00  0.00     0.049 A 
ATOM      6  C   UNL d   1     -38.753  13.508  22.859  0.00  0.00     0.020 A 
ATOM      7  C   UNL d   1     -38.806  15.151  22.924  0.00  0.00     0.008 A 
ATOM      8  C   UNL d   1     -38.556  14.724  23.581  0.00  0.00     0.001 A 
ATOM      9  C   UNL d   1     -38.529  13.902  23.548  0.00  0.00     0.002 A 
ENDROOT
BRANCH   1  10
ATOM     10  C   UNL d   1     -39.713  14.362  20.235  0.00  0.00     0.024 A 
ATOM     11  C   UNL d   1     -40.514  14.481  20.071  0.00  0.00     0.004 A 
ATOM     12  C   UNL d   1     -40.780  14.464  19.288  0.00  0.00     0.021 A 
ATOM     13  C   UNL d   1     -40.247  14.327  18.666  0.00  0.00     0.103 A 
ATOM     14  C   UNL d   1     -39.447  14.209  18.837  0.00  0.00     0.021 A 
ATOM     15  N   UNL d   1     -40.517  14.310  17.882  0.00  0.00    -0.148 N 
ATOM     16  C   UNL d   1     -39.180  14.226  19.621  0.00  0.00     0.004 A 
ENDBRANCH   1  10
TORSDOF 1
ENDMDL
