MODEL 1
REMARK VINA RESULT:      -8.0      0.000      0.000
REMARK  7 active torsions:
REMARK  status: ('A' for Active; 'I' for Inactive)
REMARK    1  A    between atoms: N_2  and  S_1 
REMARK    2  A    between atoms: C_6  and  S_1 
REMARK    3  A    between atoms: C_3  and  N_2 
REMARK       I    between atoms: C_7  and  N_10 
REMARK    4  A    between atoms: C_17  and  C_7 
REMARK    5  A    between atoms: N_10  and  C_18 
REMARK    6  A    between atoms: C_19  and  C_17 
REMARK    7  A    between atoms: O_27  and  C_20 
ROOT
ATOM      1  C   UNL d   1      48.853  35.340  52.586  0.00  0.00     0.106 A 
ATOM      2  C   UNL d   1      49.274  35.244  53.298  0.00  0.00     0.015 A 
ATOM      3  C   UNL d   1      49.054  34.920  51.914  0.00  0.00     0.015 A 
ATOM      4  C   UNL d   1      50.116  34.280  52.638  0.00  0.00     0.085 A 
ATOM      5  C   UNL d   1      49.898  34.713  53.305  0.00  0.00     0.020 A 
ATOM      6  C   UNL d   1      49.689  34.388  51.945  0.00  0.00     0.020 A 
ENDROOT
BRANCH   1   7
ATOM      7  S   UNL d   1      48.206  35.884  52.558  0.00  0.00     0.300 S 
ATOM      8  O   UNL d   1      48.458  36.189  53.311  0.00  0.00    -0.198 OA
ATOM      9  O   UNL d   1      47.980  35.568  51.822  0.00  0.00    -0.198 OA
BRANCH   7  10
ATOM     10  N   UNL d   1      47.578  36.425  52.552  0.00  0.00     0.034 NA
BRANCH  10  11
ATOM     11  C   UNL d   1      46.803  36.140  52.794  0.00  0.00     0.760 A 
ATOM     12  N   UNL d   1      46.270  35.894  52.209  0.00  0.00    -0.059 NA
ATOM     13  C   UNL d   1      45.522  35.618  52.439  0.00  0.00     0.101 A 
ATOM     14  C   UNL d   1      44.951  35.358  51.851  0.00  0.00     0.021 C 
ATOM     15  C   UNL d   1      45.322  35.593  53.231  0.00  0.00     0.040 A 
ATOM     16  C   UNL d   1      45.865  35.840  53.781  0.00  0.00     0.101 A 
ATOM     17  N   UNL d   1      46.606  36.114  53.571  0.00  0.00    -0.059 NA
ATOM     18  C   UNL d   1      45.635  35.803  54.593  0.00  0.00     0.021 C 
ENDBRANCH  10  11
ENDBRANCH   7  10
ENDBRANCH   1   7
BRANCH   4  19
ATOM     19  N   UNL d   1      50.746  33.742  52.641  0.00  0.00    -0.208 NA
ATOM     20  C   UNL d   1      51.534  34.018  52.623  0.00  0.00     0.279 C 
ATOM     21  O   UNL d   1      51.695  34.848  52.601  0.00  0.00    -0.265 OA
BRANCH  20  22
ATOM     22  C   UNL d   1      52.153  33.476  52.626  0.00  0.00     0.062 C 
BRANCH  22  23
ATOM     23  C   UNL d   1      52.699  33.442  53.289  0.00  0.00     0.005 A 
ATOM     24  C   UNL d   1      52.869  32.715  53.641  0.00  0.00     0.002 A 
ATOM     25  C   UNL d   1      53.392  32.684  54.273  0.00  0.00     0.024 A 
ATOM     26  C   UNL d   1      53.751  33.365  54.566  0.00  0.00     0.094 A 
ATOM     27  C   UNL d   1      53.590  34.082  54.228  0.00  0.00     0.024 A 
ATOM     28  C   UNL d   1      53.070  34.128  53.595  0.00  0.00     0.002 A 
BRANCH  26  29
ATOM     29  O   UNL d   1      54.286  33.292  55.223  0.00  0.00    -0.328 OA
ATOM     30  C   UNL d   1      55.032  33.646  55.227  0.00  0.00     0.181 C 
ENDBRANCH  26  29
ENDBRANCH  22  23
ENDBRANCH  20  22
ENDBRANCH   4  19
TORSDOF 7
ENDMDL
MODEL 2
REMARK VINA RESULT:      -8.0      1.812      6.637
REMARK  7 active torsions:
REMARK  status: ('A' for Active; 'I' for Inactive)
REMARK    1  A    between atoms: N_2  and  S_1 
REMARK    2  A    between atoms: C_6  and  S_1 
REMARK    3  A    between atoms: C_3  and  N_2 
REMARK       I    between atoms: C_7  and  N_10 
REMARK    4  A    between atoms: C_17  and  C_7 
REMARK    5  A    between atoms: N_10  and  C_18 
REMARK    6  A    between atoms: C_19  and  C_17 
REMARK    7  A    between atoms: O_27  and  C_20 
ROOT
ATOM      1  C   UNL d   1      51.318  33.511  52.794  0.00  0.00     0.106 A 
ATOM      2  C   UNL d   1      50.664  33.296  53.262  0.00  0.00     0.015 A 
ATOM      3  C   UNL d   1      51.420  34.279  52.534  0.00  0.00     0.015 A 
ATOM      4  C   UNL d   1      50.208  34.661  53.202  0.00  0.00     0.085 A 
ATOM      5  C   UNL d   1      50.122  33.881  53.455  0.00  0.00     0.020 A 
ATOM      6  C   UNL d   1      50.861  34.854  52.741  0.00  0.00     0.020 A 
ENDROOT
BRANCH   1   7
ATOM      7  S   UNL d   1      51.887  32.922  52.585  0.00  0.00     0.300 S 
ATOM      8  O   UNL d   1      52.357  33.533  52.226  0.00  0.00    -0.198 OA
ATOM      9  O   UNL d   1      51.410  32.342  52.942  0.00  0.00    -0.198 OA
BRANCH   7  10
ATOM     10  N   UNL d   1      52.459  32.361  52.369  0.00  0.00     0.034 NA
BRANCH  10  11
ATOM     11  C   UNL d   1      52.967  32.051  52.990  0.00  0.00     0.760 A 
ATOM     12  N   UNL d   1      52.958  31.237  53.142  0.00  0.00    -0.059 NA
ATOM     13  C   UNL d   1      53.448  30.934  53.741  0.00  0.00     0.101 A 
ATOM     14  C   UNL d   1      53.456  30.093  53.917  0.00  0.00     0.021 C 
ATOM     15  C   UNL d   1      53.928  31.439  54.169  0.00  0.00     0.040 A 
ATOM     16  C   UNL d   1      53.915  32.232  53.997  0.00  0.00     0.101 A 
ATOM     17  N   UNL d   1      53.439  32.545  53.411  0.00  0.00    -0.059 NA
ATOM     18  C   UNL d   1      54.420  32.733  54.453  0.00  0.00     0.021 C 
ENDBRANCH  10  11
ENDBRANCH   7  10
ENDBRANCH   1   7
BRANCH   4  19
ATOM     19  N   UNL d   1      49.664  35.255  53.395  0.00  0.00    -0.208 NA
ATOM     20  C   UNL d   1      49.001  35.393  52.905  0.00  0.00     0.279 C 
ATOM     21  O   UNL d   1      48.882  34.928  52.209  0.00  0.00    -0.265 OA
BRANCH  20  22
ATOM     22  C   UNL d   1      48.467  35.985  53.105  0.00  0.00     0.062 C 
BRANCH  22  23
ATOM     23  C   UNL d   1      47.658  35.958  52.816  0.00  0.00     0.005 A 
ATOM     24  C   UNL d   1      47.038  35.840  53.348  0.00  0.00     0.002 A 
ATOM     25  C   UNL d   1      46.266  35.814  53.071  0.00  0.00     0.024 A 
ATOM     26  C   UNL d   1      46.095  35.903  52.270  0.00  0.00     0.094 A 
ATOM     27  C   UNL d   1      46.695  36.019  51.741  0.00  0.00     0.024 A 
ATOM     28  C   UNL d   1      47.472  36.047  52.004  0.00  0.00     0.002 A 
BRANCH  26  29
ATOM     29  O   UNL d   1      45.282  35.871  52.022  0.00  0.00    -0.328 OA
ATOM     30  C   UNL d   1      44.836  35.176  52.058  0.00  0.00     0.181 C 
ENDBRANCH  26  29
ENDBRANCH  22  23
ENDBRANCH  20  22
ENDBRANCH   4  19
TORSDOF 7
ENDMDL
MODEL 3
REMARK VINA RESULT:      -6.5      1.927      2.578
REMARK  7 active torsions:
REMARK  status: ('A' for Active; 'I' for Inactive)
REMARK    1  A    between atoms: N_2  and  S_1 
REMARK    2  A    between atoms: C_6  and  S_1 
REMARK    3  A    between atoms: C_3  and  N_2 
REMARK       I    between atoms: C_7  and  N_10 
REMARK    4  A    between atoms: C_17  and  C_7 
REMARK    5  A    between atoms: N_10  and  C_18 
REMARK    6  A    between atoms: C_19  and  C_17 
REMARK    7  A    between atoms: O_27  and  C_20 
ROOT
ATOM      1  C   UNL d   1      50.311  34.406  52.671  0.00  0.00     0.106 A 
ATOM      2  C   UNL d   1      51.073  34.648  52.438  0.00  0.00     0.015 A 
ATOM      3  C   UNL d   1      50.203  33.770  53.173  0.00  0.00     0.015 A 
ATOM      4  C   UNL d   1      51.625  33.585  53.237  0.00  0.00     0.085 A 
ATOM      5  C   UNL d   1      51.714  34.229  52.729  0.00  0.00     0.020 A 
ATOM      6  C   UNL d   1      50.865  33.360  53.455  0.00  0.00     0.020 A 
ENDROOT
BRANCH   1   7
ATOM      7  S   UNL d   1      49.637  34.826  52.381  0.00  0.00     0.300 S 
ATOM      8  O   UNL d   1      49.322  34.087  52.102  0.00  0.00    -0.198 OA
ATOM      9  O   UNL d   1      49.967  35.536  52.662  0.00  0.00    -0.198 OA
BRANCH   7  10
ATOM     10  N   UNL d   1      48.967  35.218  52.089  0.00  0.00     0.034 NA
BRANCH  10  11
ATOM     11  C   UNL d   1      48.403  35.524  52.661  0.00  0.00     0.760 A 
ATOM     12  N   UNL d   1      47.599  35.356  52.555  0.00  0.00    -0.059 NA
ATOM     13  C   UNL d   1      47.051  35.649  53.106  0.00  0.00     0.101 A 
ATOM     14  C   UNL d   1      46.211  35.488  53.018  0.00  0.00     0.021 C 
ATOM     15  C   UNL d   1      47.310  36.096  53.740  0.00  0.00     0.040 A 
ATOM     16  C   UNL d   1      48.104  36.244  53.817  0.00  0.00     0.101 A 
ATOM     17  N   UNL d   1      48.656  35.963  53.283  0.00  0.00    -0.059 NA
ATOM     18  C   UNL d   1      48.346  36.709  54.480  0.00  0.00     0.021 C 
ENDBRANCH  10  11
ENDBRANCH   7  10
ENDBRANCH   1   7
BRANCH   4  19
ATOM     19  N   UNL d   1      52.270  33.158  53.533  0.00  0.00    -0.208 NA
ATOM     20  C   UNL d   1      52.669  32.607  53.048  0.00  0.00     0.279 C 
ATOM     21  O   UNL d   1      52.416  32.480  52.251  0.00  0.00    -0.265 OA
BRANCH  20  22
ATOM     22  C   UNL d   1      53.308  32.188  53.352  0.00  0.00     0.062 C 
BRANCH  22  23
ATOM     23  C   UNL d   1      53.237  31.349  53.525  0.00  0.00     0.005 A 
ATOM     24  C   UNL d   1      53.331  31.083  54.301  0.00  0.00     0.002 A 
ATOM     25  C   UNL d   1      53.263  30.282  54.464  0.00  0.00     0.024 A 
ATOM     26  C   UNL d   1      53.104  29.735  53.869  0.00  0.00     0.094 A 
ATOM     27  C   UNL d   1      53.010  29.986  53.107  0.00  0.00     0.024 A 
ATOM     28  C   UNL d   1      53.075  30.785  52.928  0.00  0.00     0.002 A 
BRANCH  26  29
ATOM     29  O   UNL d   1      53.041  28.913  54.079  0.00  0.00    -0.328 OA
ATOM     30  C   UNL d   1      53.512  28.569  54.665  0.00  0.00     0.181 C 
ENDBRANCH  26  29
ENDBRANCH  22  23
ENDBRANCH  20  22
ENDBRANCH   4  19
TORSDOF 7
ENDMDL
