MODEL 1
REMARK VINA RESULT:      51.3      0.000      0.000
REMARK  4 active torsions:
REMARK  status: ('A' for Active; 'I' for Inactive)
REMARK    1  A    between atoms: C_5  and  C_1 
REMARK    2  A    between atoms: C_4  and  C_2 
REMARK    3  A    between atoms: C_12  and  C_4 
REMARK    4  A    between atoms: C_13  and  C_5 
ROOT
ATOM      1  C   UNL d   1     -51.617  25.691  33.314  0.00  0.00     0.039 A 
ATOM      2  C   UNL d   1     -52.138  24.289  33.321  0.00  0.00     0.039 A 
ATOM      3  C   UNL d   1     -52.282  25.145  33.314  0.00  0.00     0.196 A 
ATOM      4  C   UNL d   1     -50.804  25.389  33.320  0.00  0.00     0.003 A 
ATOM      5  C   UNL d   1     -51.325  23.987  33.327  0.00  0.00     0.003 A 
ATOM      6  O   UNL d   1     -53.056  25.433  33.309  0.00  0.00    -0.287 OA
ATOM      7  C   UNL d   1     -50.658  24.541  33.326  0.00  0.00     0.000 A 
ATOM      8  C   UNL d   1     -49.883  24.253  33.332  0.00  0.00     0.000 C 
ENDROOT
BRANCH   1   9
ATOM      9  C   UNL d   1     -51.748  26.508  33.308  0.00  0.00     0.005 C 
BRANCH   9  10
ATOM     10  C   UNL d   1     -51.230  27.017  33.690  0.00  0.00     0.019 A 
ATOM     11  C   UNL d   1     -50.461  27.100  33.409  0.00  0.00     0.099 A 
ATOM     12  N   UNL d   1     -49.939  27.609  33.790  0.00  0.00    -0.242 NA
ATOM     13  C   UNL d   1     -50.184  28.038  34.455  0.00  0.00     0.099 A 
ATOM     14  C   UNL d   1     -50.958  27.953  34.735  0.00  0.00     0.021 A 
ATOM     15  C   UNL d   1     -51.476  27.443  34.352  0.00  0.00     0.003 A 
ENDBRANCH   9  10
ENDBRANCH   1   9
BRANCH   2  16
ATOM     16  C   UNL d   1     -52.769  23.759  33.321  0.00  0.00     0.005 C 
BRANCH  16  17
ATOM     17  C   UNL d   1     -53.203  23.621  34.009  0.00  0.00     0.019 A 
ATOM     18  C   UNL d   1     -54.010  23.781  34.021  0.00  0.00     0.099 A 
ATOM     19  N   UNL d   1     -54.447  23.646  34.703  0.00  0.00    -0.242 NA
ATOM     20  C   UNL d   1     -54.074  23.347  35.383  0.00  0.00     0.099 A 
ATOM     21  C   UNL d   1     -53.265  23.188  35.365  0.00  0.00     0.021 A 
ATOM     22  C   UNL d   1     -52.834  23.327  34.677  0.00  0.00     0.003 A 
ENDBRANCH  16  17
ENDBRANCH   2  16
TORSDOF 4
ENDMDL
MODEL 2
REMARK VINA RESULT:      51.7      1.073      4.269
REMARK  4 active torsions:
REMARK  status: ('A' for Active; 'I' for Inactive)
REMARK    1  A    between atoms: C_5  and  C_1 
REMARK    2  A    between atoms: C_4  and  C_2 
REMARK    3  A    between atoms: C_12  and  C_4 
REMARK    4  A    between atoms: C_13  and  C_5 
ROOT
ATOM      1  C   UNL d   1     -51.422  25.304  33.345  0.00  0.00     0.039 A 
ATOM      2  C   UNL d   1     -50.359  26.351  33.459  0.00  0.00     0.039 A 
ATOM      3  C   UNL d   1     -51.198  26.132  33.420  0.00  0.00     0.196 A 
ATOM      4  C   UNL d   1     -50.812  24.689  33.308  0.00  0.00     0.003 A 
ATOM      5  C   UNL d   1     -49.749  25.735  33.422  0.00  0.00     0.003 A 
ATOM      6  O   UNL d   1     -51.779  26.718  33.455  0.00  0.00    -0.287 OA
ATOM      7  C   UNL d   1     -49.979  24.902  33.346  0.00  0.00     0.000 A 
ATOM      8  C   UNL d   1     -49.398  24.316  33.310  0.00  0.00     0.000 C 
ENDROOT
BRANCH   1   9
ATOM      9  C   UNL d   1     -52.220  25.089  33.307  0.00  0.00     0.005 C 
BRANCH   9  10
ATOM     10  C   UNL d   1     -52.504  24.460  33.751  0.00  0.00     0.019 A 
ATOM     11  C   UNL d   1     -52.883  23.835  33.372  0.00  0.00     0.099 A 
ATOM     12  N   UNL d   1     -53.169  23.203  33.813  0.00  0.00    -0.242 NA
ATOM     13  C   UNL d   1     -53.078  23.192  34.637  0.00  0.00     0.099 A 
ATOM     14  C   UNL d   1     -52.697  23.822  35.015  0.00  0.00     0.021 A 
ATOM     15  C   UNL d   1     -52.412  24.452  34.570  0.00  0.00     0.003 A 
ENDBRANCH   9  10
ENDBRANCH   1   9
BRANCH   2  16
ATOM     16  C   UNL d   1     -50.136  27.141  33.531  0.00  0.00     0.005 C 
BRANCH  16  17
ATOM     17  C   UNL d   1     -49.530  27.362  34.045  0.00  0.00     0.019 A 
ATOM     18  C   UNL d   1     -48.772  27.060  33.936  0.00  0.00     0.099 A 
ATOM     19  N   UNL d   1     -48.165  27.276  34.443  0.00  0.00    -0.242 NA
ATOM     20  C   UNL d   1     -48.314  27.801  35.070  0.00  0.00     0.099 A 
ATOM     21  C   UNL d   1     -49.075  28.101  35.175  0.00  0.00     0.021 A 
ATOM     22  C   UNL d   1     -49.679  27.879  34.661  0.00  0.00     0.003 A 
ENDBRANCH  16  17
ENDBRANCH   2  16
TORSDOF 4
ENDMDL
