MODEL 1
REMARK VINA RESULT:      28.8      0.000      0.000
REMARK  0 active torsions:
REMARK  status: ('A' for Active; 'I' for Inactive)
ROOT
ATOM      1  C   UNL d   1     -50.368  26.093  33.332  0.00  0.00     0.180 A 
ATOM      2  C   UNL d   1     -51.199  26.098  33.322  0.00  0.00     0.118 A 
ATOM      3  N   UNL d   1     -51.619  25.395  33.316  0.00  0.00    -0.241 NA
ATOM      4  N   UNL d   1     -50.107  26.876  33.336  0.00  0.00    -0.225 NA
ATOM      5  N   UNL d   1     -49.969  25.373  33.337  0.00  0.00    -0.224 NA
ATOM      6  C   UNL d   1     -51.444  26.889  33.319  0.00  0.00     0.038 A 
ATOM      7  C   UNL d   1     -50.772  27.372  33.328  0.00  0.00     0.085 A 
ATOM      8  C   UNL d   1     -51.213  24.680  33.321  0.00  0.00     0.099 A 
ATOM      9  C   UNL d   1     -50.389  24.670  33.331  0.00  0.00     0.101 A 
ATOM     10  C   UNL d   1     -52.198  27.231  33.310  0.00  0.00     0.003 A 
ATOM     11  C   UNL d   1     -50.848  28.201  33.328  0.00  0.00     0.019 A 
ATOM     12  C   UNL d   1     -51.628  23.970  33.315  0.00  0.00     0.021 A 
ATOM     13  C   UNL d   1     -49.988  23.955  33.336  0.00  0.00     0.021 A 
ATOM     14  C   UNL d   1     -52.272  28.057  33.310  0.00  0.00     0.000 A 
ATOM     15  C   UNL d   1     -51.601  28.539  33.318  0.00  0.00     0.002 A 
ATOM     16  C   UNL d   1     -51.227  23.255  33.320  0.00  0.00     0.002 A 
ATOM     17  C   UNL d   1     -50.403  23.246  33.330  0.00  0.00     0.002 A 
ENDROOT
TORSDOF 0
ENDMDL
