MODEL 1
REMARK VINA RESULT:      72.9      0.000      0.000
REMARK  4 active torsions:
REMARK  status: ('A' for Active; 'I' for Inactive)
REMARK    1  A    between atoms: C_6  and  C_1 
REMARK    2  A    between atoms: N_4  and  C_2 
REMARK       I    between atoms: C_3  and  N_4 
REMARK       I    between atoms: N_9  and  C_3 
REMARK    3  A    between atoms: C_15  and  N_9 
REMARK    4  A    between atoms: C_23  and  C_15 
ROOT
ATOM      1  C   UNL d   1     -51.951  26.236  33.563  0.00  0.00     0.040 A 
ATOM      2  C   UNL d   1     -50.760  26.023  33.730  0.00  0.00     0.109 A 
ATOM      3  C   UNL d   1     -51.716  25.637  33.740  0.00  0.00     0.035 A 
ATOM      4  C   UNL d   1     -52.632  26.538  33.421  0.00  0.00    -0.023 A 
ATOM      5  C   UNL d   1     -51.294  27.056  33.411  0.00  0.00     0.013 A 
ATOM      6  C   UNL d   1     -51.830  26.822  33.422  0.00  0.00    -0.011 A 
ATOM      7  C   UNL d   1     -50.562  27.345  33.404  0.00  0.00     0.025 A 
ATOM      8  C   UNL d   1     -51.544  26.118  33.631  0.00  0.00    -0.005 A 
ATOM      9  C   UNL d   1     -50.269  26.636  33.616  0.00  0.00     0.031 A 
ATOM     10  C   UNL d   1     -51.339  27.436  33.308  0.00  0.00    -0.027 A 
ENDROOT
BRANCH   2  11
ATOM     11  N   UNL d   1     -49.970  25.819  33.856  0.00  0.00    -0.217 NA
ATOM     12  C   UNL d   1     -49.707  25.058  33.687  0.00  0.00     0.360 C 
ATOM     13  N   UNL d   1     -48.921  24.848  33.811  0.00  0.00    -0.214 NA
ATOM     14  O   UNL d   1     -50.240  24.495  33.387  0.00  0.00    -0.243 OA
BRANCH  13  15
ATOM     15  C   UNL d   1     -48.654  24.079  33.640  0.00  0.00     0.147 C 
ATOM     16  C   UNL d   1     -47.920  24.409  33.845  0.00  0.00     0.033 C 
ATOM     17  C   UNL d   1     -49.389  23.758  33.437  0.00  0.00     0.033 C 
BRANCH  15  18
ATOM     18  C   UNL d   1     -48.380  23.316  33.471  0.00  0.00     0.229 C 
ATOM     19  O   UNL d   1     -47.578  23.196  33.308  0.00  0.00    -0.286 OA
ENDBRANCH  15  18
ENDBRANCH  13  15
ENDBRANCH   2  11
BRANCH   1  20
ATOM     20  C   UNL d   1     -52.248  25.493  33.728  0.00  0.00    -0.019 A 
ATOM     21  C   UNL d   1     -52.901  25.199  33.306  0.00  0.00    -0.004 A 
ATOM     22  C   UNL d   1     -53.202  24.450  33.471  0.00  0.00    -0.000 A 
ATOM     23  C   UNL d   1     -52.852  23.984  34.065  0.00  0.00    -0.000 A 
ATOM     24  C   UNL d   1     -52.204  24.280  34.481  0.00  0.00    -0.000 A 
ATOM     25  C   UNL d   1     -53.152  23.232  34.233  0.00  0.00    -0.000 C 
ATOM     26  C   UNL d   1     -51.902  25.031  34.316  0.00  0.00    -0.004 A 
ENDBRANCH   1  20
TORSDOF 4
ENDMDL
