MODEL 1
REMARK VINA RESULT:      28.7      0.000      0.000
REMARK  3 active torsions:
REMARK  status: ('A' for Active; 'I' for Inactive)
REMARK    1  A    between atoms: C_12  and  C_4 
REMARK    2  A    between atoms: O_13  and  C_7 
REMARK    3  A    between atoms: O_14  and  C_10 
ROOT
ATOM      1  C   UNL d   1      60.007  49.682  50.871  0.00  0.00     0.084 A 
ATOM      2  C   UNL d   1      59.801  49.673  50.073  0.00  0.00     0.201 A 
ATOM      3  C   UNL d   1      59.004  49.678  49.861  0.00  0.00     0.067 A 
ATOM      4  C   UNL d   1      58.415  49.691  50.445  0.00  0.00     0.103 A 
ATOM      5  C   UNL d   1      59.419  49.695  51.455  0.00  0.00     0.107 A 
ATOM      6  O   UNL d   1      58.625  49.699  51.240  0.00  0.00    -0.307 OA
ATOM      7  C   UNL d   1      60.804  49.678  51.083  0.00  0.00     0.101 A 
ATOM      8  C   UNL d   1      59.632  49.704  52.247  0.00  0.00     0.049 A 
ATOM      9  C   UNL d   1      61.010  49.686  51.881  0.00  0.00     0.049 A 
ATOM     10  C   UNL d   1      60.429  49.699  52.458  0.00  0.00     0.098 A 
ATOM     11  O   UNL d   1      60.385  49.660  49.499  0.00  0.00    -0.286 OA
ENDROOT
BRANCH   4  12
ATOM     12  C   UNL d   1      57.625  49.695  50.226  0.00  0.00     0.023 A 
ATOM     13  C   UNL d   1      57.045  49.699  50.803  0.00  0.00     0.002 A 
ATOM     14  C   UNL d   1      56.247  49.703  50.591  0.00  0.00     0.000 A 
ATOM     15  C   UNL d   1      56.034  49.704  49.785  0.00  0.00     0.000 A 
ATOM     16  C   UNL d   1      56.622  49.699  49.216  0.00  0.00     0.000 A 
ATOM     17  C   UNL d   1      57.419  49.695  49.427  0.00  0.00     0.002 A 
ENDBRANCH   4  12
BRANCH   7  18
ATOM     18  O   UNL d   1      61.385  49.665  50.506  0.00  0.00    -0.328 OA
ATOM     19  C   UNL d   1      61.775  48.963  50.337  0.00  0.00     0.181 C 
ENDBRANCH   7  18
BRANCH  10  20
ATOM     20  O   UNL d   1      60.636  49.708  53.258  0.00  0.00    -0.328 OA
ATOM     21  C   UNL d   1      61.432  49.665  53.470  0.00  0.00     0.181 C 
ENDBRANCH  10  20
TORSDOF 3
ENDMDL
