MODEL 1
REMARK VINA RESULT:       0.9      0.000      0.000
REMARK  2 active torsions:
REMARK  status: ('A' for Active; 'I' for Inactive)
REMARK    1  A    between atoms: C_5  and  CA_2 
REMARK    2  A    between atoms: C_4  and  CA_3 
ROOT
ATOM      1  N   UNL d   1      46.275 -19.656  42.919  0.00  0.00    -0.233 NA
ATOM      2  CA  UNL d   1      46.467 -19.090  42.350  0.00  0.00     0.146 A 
ATOM      3  CA  UNL d   1      46.258 -19.458  43.715  0.00  0.00     0.146 A 
ATOM      4  C   UNL d   1      46.436 -18.681  43.952  0.00  0.00     0.025 A 
ATOM      5  C   UNL d   1      46.646 -18.313  42.587  0.00  0.00     0.025 A 
ATOM      6  C   UNL d   1      46.630 -18.108  43.391  0.00  0.00     0.004 A 
ENDROOT
BRANCH   2   7
ATOM      7  C   UNL d   1      46.485 -19.287  41.550  0.00  0.00     0.229 C 
ATOM      8  O   UNL d   1      46.643 -20.059  41.314  0.00  0.00    -0.643 OA
ATOM      9  OXT UNL d   1      46.347 -18.734  40.954  0.00  0.00    -0.643 OA
ENDBRANCH   2   7
BRANCH   3  10
ATOM     10  C   UNL d   1      46.066 -20.023  44.279  0.00  0.00     0.229 C 
ATOM     11  O   UNL d   1      45.310 -20.330  44.351  0.00  0.00    -0.643 OA
ATOM     12  OXT UNL d   1      46.639 -20.317  44.815  0.00  0.00    -0.643 OA
ENDBRANCH   3  10
TORSDOF 2
ENDMDL
MODEL 2
REMARK VINA RESULT:       1.5      7.696      7.995
REMARK  2 active torsions:
REMARK  status: ('A' for Active; 'I' for Inactive)
REMARK    1  A    between atoms: C_5  and  CA_2 
REMARK    2  A    between atoms: C_4  and  CA_3 
ROOT
ATOM      1  N   UNL d   1      44.407 -14.943  36.970  0.00  0.00    -0.233 NA
ATOM      2  CA  UNL d   1      43.844 -15.520  36.792  0.00  0.00     0.146 A 
ATOM      3  CA  UNL d   1      45.204 -15.083  36.833  0.00  0.00     0.146 A 
ATOM      4  C   UNL d   1      45.447 -15.810  36.512  0.00  0.00     0.025 A 
ATOM      5  C   UNL d   1      44.087 -16.247  36.471  0.00  0.00     0.025 A 
ATOM      6  C   UNL d   1      44.892 -16.393  36.330  0.00  0.00     0.004 A 
ENDROOT
BRANCH   2   7
ATOM      7  C   UNL d   1      43.043 -15.382  36.929  0.00  0.00     0.229 C 
ATOM      8  O   UNL d   1      42.488 -15.526  36.339  0.00  0.00    -0.643 OA
ATOM      9  OXT UNL d   1      42.758 -15.097  37.649  0.00  0.00    -0.643 OA
ENDBRANCH   2   7
BRANCH   3  10
ATOM     10  C   UNL d   1      45.762 -14.508  37.011  0.00  0.00     0.229 C 
ATOM     11  O   UNL d   1      45.584 -13.852  37.469  0.00  0.00    -0.643 OA
ATOM     12  OXT UNL d   1      46.550 -14.563  36.731  0.00  0.00    -0.643 OA
ENDBRANCH   3  10
TORSDOF 2
ENDMDL
MODEL 3
REMARK VINA RESULT:       1.5      7.716      7.949
REMARK  2 active torsions:
REMARK  status: ('A' for Active; 'I' for Inactive)
REMARK    1  A    between atoms: C_5  and  CA_2 
REMARK    2  A    between atoms: C_4  and  CA_3 
ROOT
ATOM      1  N   UNL d   1      44.379 -14.962  36.931  0.00  0.00    -0.233 NA
ATOM      2  CA  UNL d   1      45.182 -15.092  36.791  0.00  0.00     0.146 A 
ATOM      3  CA  UNL d   1      43.829 -15.550  36.775  0.00  0.00     0.146 A 
ATOM      4  C   UNL d   1      44.081 -16.284  36.474  0.00  0.00     0.025 A 
ATOM      5  C   UNL d   1      45.434 -15.825  36.489  0.00  0.00     0.025 A 
ATOM      6  C   UNL d   1      44.881 -16.423  36.330  0.00  0.00     0.004 A 
ENDROOT
BRANCH   2   7
ATOM      7  C   UNL d   1      45.736 -14.502  36.946  0.00  0.00     0.229 C 
ATOM      8  O   UNL d   1      45.564 -13.897  37.477  0.00  0.00    -0.643 OA
ATOM      9  OXT UNL d   1      46.479 -14.485  36.587  0.00  0.00    -0.643 OA
ENDBRANCH   2   7
BRANCH   3  10
ATOM     10  C   UNL d   1      43.031 -15.419  36.915  0.00  0.00     0.229 C 
ATOM     11  O   UNL d   1      42.755 -15.121  37.627  0.00  0.00    -0.643 OA
ATOM     12  OXT UNL d   1      42.451 -15.586  36.333  0.00  0.00    -0.643 OA
ENDBRANCH   3  10
TORSDOF 2
ENDMDL
