MODEL 1
REMARK VINA RESULT:      94.5      0.000      0.000
REMARK  9 active torsions:
REMARK  status: ('A' for Active; 'I' for Inactive)
REMARK    1  A    between atoms: C_2  and  N_1 
REMARK    2  A    between atoms: C_4  and  C_2 
REMARK    3  A    between atoms: C_6  and  C_2 
REMARK    4  A    between atoms: C_8  and  N_3 
REMARK       I    between atoms: C_5  and  N_7 
REMARK    5  A    between atoms: O_17  and  C_5 
REMARK    6  A    between atoms: N_7  and  C_6 
REMARK    7  A    between atoms: C_22  and  O_17 
REMARK    8  A    between atoms: O_26  and  C_21 
REMARK    9  A    between atoms: C_25  and  C_22 
ROOT
ATOM      1  C   UNL d   1      60.674  48.508  50.540  0.00  0.00     0.107 C 
ENDROOT
BRANCH   1   2
ATOM      2  N   UNL d   1      60.937  47.725  50.435  0.00  0.00    -0.298 N 
ATOM      3  C   UNL d   1      60.814  47.169  51.021  0.00  0.00     0.100 A 
ATOM      4  C   UNL d   1      61.078  46.386  50.916  0.00  0.00     0.100 A 
ATOM      5  N   UNL d   1      61.462  46.175  50.218  0.00  0.00    -0.301 N 
ATOM      6  C   UNL d   1      61.581  46.749  49.628  0.00  0.00     0.100 A 
ATOM      7  C   UNL d   1      61.322  47.514  49.736  0.00  0.00     0.100 A 
BRANCH   5   8
ATOM      8  C   UNL d   1      61.721  45.418  50.107  0.00  0.00     0.064 A 
ATOM      9  C   UNL d   1      62.182  45.227  49.450  0.00  0.00     0.020 A 
ATOM     10  C   UNL d   1      62.444  44.452  49.340  0.00  0.00     0.026 A 
ATOM     11  C   UNL d   1      62.246  43.868  49.889  0.00  0.00     0.094 A 
ATOM     12  C   UNL d   1      61.785  44.059  50.546  0.00  0.00     0.026 A 
ATOM     13  C   UNL d   1      61.525  44.833  50.652  0.00  0.00     0.020 A 
BRANCH  11  14
ATOM     14  O   UNL d   1      62.514  43.082  49.776  0.00  0.00    -0.328 OA
ATOM     15  C   UNL d   1      62.612  42.597  50.432  0.00  0.00     0.181 C 
ENDBRANCH  11  14
ENDBRANCH   5   8
ENDBRANCH   1   2
BRANCH   1  16
ATOM     16  C   UNL d   1      60.956  48.948  51.196  0.00  0.00     0.118 A 
ATOM     17  O   UNL d   1      60.607  49.155  51.918  0.00  0.00    -0.304 OA
ATOM     18  C   UNL d   1      61.168  49.598  52.342  0.00  0.00     0.123 A 
ATOM     19  C   UNL d   1      61.845  49.662  51.893  0.00  0.00     0.029 A 
ATOM     20  C   UNL d   1      61.716  49.259  51.179  0.00  0.00     0.028 A 
ENDBRANCH   1  16
BRANCH   1  21
ATOM     21  C   UNL d   1      60.145  48.857  50.015  0.00  0.00     0.124 C 
BRANCH  21  22
ATOM     22  N   UNL d   1      59.381  49.077  50.282  0.00  0.00    -0.183 NA
ATOM     23  C   UNL d   1      58.873  49.479  49.791  0.00  0.00     0.392 C 
ATOM     24  O   UNL d   1      59.110  49.674  49.021  0.00  0.00    -0.236 OA
BRANCH  23  25
ATOM     25  O   UNL d   1      58.124  49.692  50.061  0.00  0.00    -0.256 OA
BRANCH  25  26
ATOM     26  C   UNL d   1      57.482  49.188  49.937  0.00  0.00     0.128 C 
BRANCH  26  27
ATOM     27  C   UNL d   1      57.033  48.926  50.578  0.00  0.00     0.025 A 
ATOM     28  C   UNL d   1      56.952  48.118  50.723  0.00  0.00     0.002 A 
ATOM     29  C   UNL d   1      56.504  47.856  51.363  0.00  0.00     0.000 A 
ATOM     30  C   UNL d   1      56.135  48.403  51.860  0.00  0.00     0.000 A 
ATOM     31  C   UNL d   1      56.217  49.207  51.714  0.00  0.00     0.000 A 
ATOM     32  C   UNL d   1      56.665  49.473  51.074  0.00  0.00     0.002 A 
ENDBRANCH  26  27
ENDBRANCH  25  26
ENDBRANCH  23  25
ENDBRANCH  21  22
ENDBRANCH   1  21
TORSDOF 9
ENDMDL
