MODEL 1
REMARK VINA RESULT:      -3.3      0.000      0.000
REMARK  1 active torsions:
REMARK  status: ('A' for Active; 'I' for Inactive)
REMARK    1  A    between atoms: C_13  and  N_3 
ROOT
ATOM      1  C   UNL d   1     -41.519-122.021 -52.237  0.00  0.00     0.166 A 
ATOM      2  C   UNL d   1     -41.376-122.784 -51.970  0.00  0.00     0.117 A 
ATOM      3  N   UNL d   1     -41.586-121.547 -51.560  0.00  0.00    -0.289 N 
ATOM      4  C   UNL d   1     -41.356-122.786 -51.161  0.00  0.00     0.038 A 
ATOM      5  N   UNL d   1     -41.569-121.848 -53.048  0.00  0.00    -0.225 NA
ATOM      6  C   UNL d   1     -41.487-122.015 -50.905  0.00  0.00     0.067 A 
ATOM      7  N   UNL d   1     -41.285-123.375 -52.542  0.00  0.00    -0.241 NA
ATOM      8  C   UNL d   1     -41.478-122.437 -53.592  0.00  0.00     0.101 A 
ATOM      9  C   UNL d   1     -41.334-123.210 -53.328  0.00  0.00     0.099 A 
ATOM     10  C   UNL d   1     -41.498-121.843 -50.095  0.00  0.00     0.018 A 
ATOM     11  C   UNL d   1     -41.236-123.385 -50.606  0.00  0.00     0.015 A 
ATOM     12  C   UNL d   1     -41.246-123.219 -49.799  0.00  0.00     0.058 A 
ATOM     13  C   UNL d   1     -41.377-122.447 -49.543  0.00  0.00     0.013 A 
ATOM     14 CL   UNL d   1     -41.126-123.817 -49.244  0.00  0.00    -0.082 Cl
ATOM     15  C   UNL d   1     -41.526-122.278 -54.383  0.00  0.00     0.021 A 
ATOM     16  C   UNL d   1     -41.241-123.809 -53.876  0.00  0.00     0.021 A 
ATOM     17  C   UNL d   1     -41.428-122.904 -54.934  0.00  0.00     0.002 A 
ATOM     18  C   UNL d   1     -41.287-123.663 -54.696  0.00  0.00     0.002 A 
ENDROOT
BRANCH   3  19
ATOM     19  C   UNL d   1     -41.728-120.752 -51.560  0.00  0.00     0.082 C 
ATOM     20  C   UNL d   1     -41.123-120.238 -51.268  0.00  0.00     0.021 C 
ENDBRANCH   3  19
TORSDOF 1
ENDMDL
MODEL 2
REMARK VINA RESULT:      -1.9      1.439      3.479
REMARK  1 active torsions:
REMARK  status: ('A' for Active; 'I' for Inactive)
REMARK    1  A    between atoms: C_13  and  N_3 
ROOT
ATOM      1  C   UNL d   1     -41.622-122.074 -51.073  0.00  0.00     0.166 A 
ATOM      2  C   UNL d   1     -41.780-122.816 -51.385  0.00  0.00     0.117 A 
ATOM      3  N   UNL d   1     -41.347-121.611 -51.704  0.00  0.00    -0.289 N 
ATOM      4  C   UNL d   1     -41.612-122.817 -52.177  0.00  0.00     0.038 A 
ATOM      5  N   UNL d   1     -41.743-121.906 -50.268  0.00  0.00    -0.225 NA
ATOM      6  C   UNL d   1     -41.341-122.065 -52.375  0.00  0.00     0.067 A 
ATOM      7  N   UNL d   1     -42.066-123.393 -50.864  0.00  0.00    -0.241 NA
ATOM      8  C   UNL d   1     -42.022-122.481 -49.775  0.00  0.00     0.101 A 
ATOM      9  C   UNL d   1     -42.184-123.233 -50.085  0.00  0.00     0.099 A 
ATOM     10  C   UNL d   1     -41.123-121.897 -53.156  0.00  0.00     0.018 A 
ATOM     11  C   UNL d   1     -41.664-123.399 -52.759  0.00  0.00     0.015 A 
ATOM     12  C   UNL d   1     -41.448-123.235 -53.537  0.00  0.00     0.058 A 
ATOM     13  C   UNL d   1     -41.178-122.484 -53.736  0.00  0.00     0.013 A 
ATOM     14 CL   UNL d   1     -41.500-123.817 -54.120  0.00  0.00    -0.082 Cl
ATOM     15  C   UNL d   1     -42.143-122.328 -48.991  0.00  0.00     0.021 A 
ATOM     16  C   UNL d   1     -42.468-123.817 -49.589  0.00  0.00     0.021 A 
ATOM     17  C   UNL d   1     -42.435-122.938 -48.493  0.00  0.00     0.002 A 
ATOM     18  C   UNL d   1     -42.598-123.677 -48.777  0.00  0.00     0.002 A 
ENDROOT
BRANCH   3  19
ATOM     19  C   UNL d   1     -41.123-120.836 -51.651  0.00  0.00     0.082 C 
ATOM     20  C   UNL d   1     -41.701-120.242 -51.814  0.00  0.00     0.021 C 
ENDBRANCH   3  19
TORSDOF 1
ENDMDL
MODEL 3
REMARK VINA RESULT:      -0.9      1.201      2.033
REMARK  1 active torsions:
REMARK  status: ('A' for Active; 'I' for Inactive)
REMARK    1  A    between atoms: C_13  and  N_3 
ROOT
ATOM      1  C   UNL d   1     -41.540-122.972 -52.552  0.00  0.00     0.166 A 
ATOM      2  C   UNL d   1     -41.520-122.166 -52.706  0.00  0.00     0.117 A 
ATOM      3  N   UNL d   1     -41.420-123.055 -51.736  0.00  0.00    -0.289 N 
ATOM      4  C   UNL d   1     -41.394-121.763 -52.016  0.00  0.00     0.038 A 
ATOM      5  N   UNL d   1     -41.662-123.527 -53.159  0.00  0.00    -0.225 NA
ATOM      6  C   UNL d   1     -41.331-122.318 -51.411  0.00  0.00     0.067 A 
ATOM      7  N   UNL d   1     -41.627-121.928 -53.492  0.00  0.00    -0.241 NA
ATOM      8  C   UNL d   1     -41.764-123.276 -53.919  0.00  0.00     0.101 A 
ATOM      9  C   UNL d   1     -41.746-122.463 -54.080  0.00  0.00     0.099 A 
ATOM     10  C   UNL d   1     -41.199-122.068 -50.632  0.00  0.00     0.018 A 
ATOM     11  C   UNL d   1     -41.324-120.960 -51.842  0.00  0.00     0.015 A 
ATOM     12  C   UNL d   1     -41.193-120.707 -51.068  0.00  0.00     0.058 A 
ATOM     13  C   UNL d   1     -41.130-121.262 -50.463  0.00  0.00     0.013 A 
ATOM     14 CL   UNL d   1     -41.123-119.904 -50.894  0.00  0.00    -0.082 Cl
ATOM     15  C   UNL d   1     -41.884-123.808 -54.515  0.00  0.00     0.021 A 
ATOM     16  C   UNL d   1     -41.849-122.206 -54.849  0.00  0.00     0.021 A 
ATOM     17  C   UNL d   1     -41.988-123.528 -55.300  0.00  0.00     0.002 A 
ATOM     18  C   UNL d   1     -41.973-122.740 -55.477  0.00  0.00     0.002 A 
ENDROOT
BRANCH   3  19
ATOM     19  C   UNL d   1     -41.397-123.758 -51.338  0.00  0.00     0.082 C 
ATOM     20  C   UNL d   1     -41.802-123.811 -50.598  0.00  0.00     0.021 C 
ENDBRANCH   3  19
TORSDOF 1
ENDMDL
