MODEL 1
REMARK VINA RESULT:      -8.4      0.000      0.000
REMARK  3 active torsions:
REMARK  status: ('A' for Active; 'I' for Inactive)
REMARK    1  A    between atoms: C_7  and  C_1 
REMARK    2  A    between atoms: N_5  and  C_9 
REMARK    3  A    between atoms: C_14  and  C_7 
ROOT
ATOM      1  C   UNL d   1     -48.169  14.148  22.628  0.00  0.00     0.139 A 
ATOM      2  C   UNL d   1     -49.443  14.349  22.292  0.00  0.00     0.064 A 
ATOM      3  C   UNL d   1     -48.799  14.681  22.684  0.00  0.00     0.220 A 
ATOM      4  C   UNL d   1     -49.217  13.612  21.991  0.00  0.00     0.106 A 
ATOM      5  O   UNL d   1     -48.425  13.489  22.201  0.00  0.00    -0.304 OA
ATOM      6  C   UNL d   1     -49.756  13.163  21.574  0.00  0.00     0.067 A 
ATOM      7  C   UNL d   1     -50.209  14.627  22.170  0.00  0.00     0.009 A 
ATOM      8  O   UNL d   1     -48.776  15.413  23.068  0.00  0.00    -0.284 OA
ATOM      9  C   UNL d   1     -50.523  13.442  21.453  0.00  0.00     0.198 A 
ATOM     10  C   UNL d   1     -50.746  14.170  21.750  0.00  0.00     0.042 A 
ATOM     11  O   UNL d   1     -51.064  12.983  21.031  0.00  0.00    -0.286 OA
ENDROOT
BRANCH   1  12
ATOM     12  C   UNL d   1     -47.412  14.251  22.942  0.00  0.00     0.028 C 
BRANCH  12  13
ATOM     13  C   UNL d   1     -46.900  13.605  23.033  0.00  0.00     0.002 A 
ATOM     14  C   UNL d   1     -46.235  13.549  22.554  0.00  0.00     0.002 A 
ATOM     15  C   UNL d   1     -45.721  12.915  22.632  0.00  0.00     0.024 A 
ATOM     16  C   UNL d   1     -45.874  12.324  23.202  0.00  0.00     0.127 A 
ATOM     17  C   UNL d   1     -46.545  12.383  23.683  0.00  0.00     0.024 A 
ATOM     18  C   UNL d   1     -47.057  13.029  23.593  0.00  0.00     0.002 A 
BRANCH  16  19
ATOM     19  N   UNL d   1     -45.352  11.685  23.278  0.00  0.00    -0.114 N 
ATOM     20  O   UNL d   1     -45.593  11.014  23.697  0.00  0.00    -0.532 OA
ATOM     21  O   UNL d   1     -44.602  11.708  22.946  0.00  0.00    -0.532 OA
ENDBRANCH  16  19
ENDBRANCH  12  13
ENDBRANCH   1  12
TORSDOF 3
ENDMDL
MODEL 2
REMARK VINA RESULT:      -8.1      1.371      2.011
REMARK  3 active torsions:
REMARK  status: ('A' for Active; 'I' for Inactive)
REMARK    1  A    between atoms: C_7  and  C_1 
REMARK    2  A    between atoms: N_5  and  C_9 
REMARK    3  A    between atoms: C_14  and  C_7 
ROOT
ATOM      1  C   UNL d   1     -48.892  12.913  23.199  0.00  0.00     0.139 A 
ATOM      2  C   UNL d   1     -50.069  13.539  23.173  0.00  0.00     0.064 A 
ATOM      3  C   UNL d   1     -49.710  12.798  23.136  0.00  0.00     0.220 A 
ATOM      4  C   UNL d   1     -49.480  14.113  23.259  0.00  0.00     0.106 A 
ATOM      5  O   UNL d   1     -48.750  13.723  23.274  0.00  0.00    -0.304 OA
ATOM      6  C   UNL d   1     -49.688  14.902  23.310  0.00  0.00     0.067 A 
ATOM      7  C   UNL d   1     -50.862  13.762  23.139  0.00  0.00     0.009 A 
ATOM      8  O   UNL d   1     -50.088  12.068  23.051  0.00  0.00    -0.284 OA
ATOM      9  C   UNL d   1     -50.482  15.124  23.276  0.00  0.00     0.198 A 
ATOM     10  C   UNL d   1     -51.064  14.556  23.191  0.00  0.00     0.042 A 
ATOM     11  O   UNL d   1     -50.687  15.922  23.328  0.00  0.00    -0.286 OA
ENDROOT
BRANCH   1  12
ATOM     12  C   UNL d   1     -48.315  12.323  23.188  0.00  0.00     0.028 C 
BRANCH  12  13
ATOM     13  C   UNL d   1     -47.531  12.503  22.986  0.00  0.00     0.002 A 
ATOM     14  C   UNL d   1     -46.945  12.446  23.559  0.00  0.00     0.002 A 
ATOM     15  C   UNL d   1     -46.166  12.621  23.372  0.00  0.00     0.024 A 
ATOM     16  C   UNL d   1     -45.967  12.859  22.597  0.00  0.00     0.127 A 
ATOM     17  C   UNL d   1     -46.560  12.915  22.022  0.00  0.00     0.024 A 
ATOM     18  C   UNL d   1     -47.344  12.735  22.223  0.00  0.00     0.002 A 
BRANCH  16  19
ATOM     19  N   UNL d   1     -45.180  13.035  22.412  0.00  0.00    -0.114 N 
ATOM     20  O   UNL d   1     -44.969  13.816  22.242  0.00  0.00    -0.532 OA
ATOM     21  O   UNL d   1     -44.606  12.448  22.397  0.00  0.00    -0.532 OA
ENDBRANCH  16  19
ENDBRANCH  12  13
ENDBRANCH   1  12
TORSDOF 3
ENDMDL
MODEL 3
REMARK VINA RESULT:      -7.9      1.797      4.329
REMARK  3 active torsions:
REMARK  status: ('A' for Active; 'I' for Inactive)
REMARK    1  A    between atoms: C_7  and  C_1 
REMARK    2  A    between atoms: N_5  and  C_9 
REMARK    3  A    between atoms: C_14  and  C_7 
ROOT
ATOM      1  C   UNL d   1     -47.058  13.895  22.926  0.00  0.00     0.139 A 
ATOM      2  C   UNL d   1     -46.180  12.895  23.002  0.00  0.00     0.064 A 
ATOM      3  C   UNL d   1     -46.265  13.690  22.803  0.00  0.00     0.220 A 
ATOM      4  C   UNL d   1     -46.914  12.604  23.247  0.00  0.00     0.106 A 
ATOM      5  O   UNL d   1     -47.458  13.227  23.199  0.00  0.00    -0.304 OA
ATOM      6  C   UNL d   1     -46.984  11.823  23.477  0.00  0.00     0.067 A 
ATOM      7  C   UNL d   1     -45.522  12.399  22.989  0.00  0.00     0.009 A 
ATOM      8  O   UNL d   1     -45.674  14.200  22.531  0.00  0.00    -0.284 OA
ATOM      9  C   UNL d   1     -46.325  11.327  23.464  0.00  0.00     0.198 A 
ATOM     10  C   UNL d   1     -45.598  11.615  23.222  0.00  0.00     0.042 A 
ATOM     11  O   UNL d   1     -46.400  10.539  23.697  0.00  0.00    -0.286 OA
ENDROOT
BRANCH   1  12
ATOM     12  C   UNL d   1     -47.395  14.638  22.799  0.00  0.00     0.028 C 
BRANCH  12  13
ATOM     13  C   UNL d   1     -48.213  14.716  22.682  0.00  0.00     0.002 A 
ATOM     14  C   UNL d   1     -48.516  14.665  21.920  0.00  0.00     0.002 A 
ATOM     15  C   UNL d   1     -49.323  14.740  21.790  0.00  0.00     0.024 A 
ATOM     16  C   UNL d   1     -49.837  14.869  22.435  0.00  0.00     0.127 A 
ATOM     17  C   UNL d   1     -49.528  14.920  23.202  0.00  0.00     0.024 A 
ATOM     18  C   UNL d   1     -48.711  14.842  23.319  0.00  0.00     0.002 A 
BRANCH  16  19
ATOM     19  N   UNL d   1     -50.651  14.945  22.300  0.00  0.00    -0.114 N 
ATOM     20  O   UNL d   1     -51.051  15.602  22.601  0.00  0.00    -0.532 OA
ATOM     21  O   UNL d   1     -51.064  14.378  21.874  0.00  0.00    -0.532 OA
ENDBRANCH  16  19
ENDBRANCH  12  13
ENDBRANCH   1  12
TORSDOF 3
ENDMDL
MODEL 4
REMARK VINA RESULT:      -7.5      1.385      1.521
REMARK  3 active torsions:
REMARK  status: ('A' for Active; 'I' for Inactive)
REMARK    1  A    between atoms: C_7  and  C_1 
REMARK    2  A    between atoms: N_5  and  C_9 
REMARK    3  A    between atoms: C_14  and  C_7 
ROOT
ATOM      1  C   UNL d   1     -48.053  13.646  23.100  0.00  0.00     0.139 A 
ATOM      2  C   UNL d   1     -49.355  13.359  23.102  0.00  0.00     0.064 A 
ATOM      3  C   UNL d   1     -48.809  13.966  22.991  0.00  0.00     0.220 A 
ATOM      4  C   UNL d   1     -48.944  12.664  23.279  0.00  0.00     0.106 A 
ATOM      5  O   UNL d   1     -48.136  12.844  23.277  0.00  0.00    -0.304 OA
ATOM      6  C   UNL d   1     -49.358  11.973  23.415  0.00  0.00     0.067 A 
ATOM      7  C   UNL d   1     -50.178  13.354  23.064  0.00  0.00     0.009 A 
ATOM      8  O   UNL d   1     -48.975  14.755  22.805  0.00  0.00    -0.284 OA
ATOM      9  C   UNL d   1     -50.182  11.968  23.377  0.00  0.00     0.198 A 
ATOM     10  C   UNL d   1     -50.588  12.656  23.202  0.00  0.00     0.042 A 
ATOM     11  O   UNL d   1     -50.595  11.267  23.516  0.00  0.00    -0.286 OA
ENDROOT
BRANCH   1  12
ATOM     12  C   UNL d   1     -47.338  14.054  23.042  0.00  0.00     0.028 C 
BRANCH  12  13
ATOM     13  C   UNL d   1     -46.640  13.655  22.838  0.00  0.00     0.002 A 
ATOM     14  C   UNL d   1     -46.401  13.640  22.052  0.00  0.00     0.002 A 
ATOM     15  C   UNL d   1     -45.712  13.249  21.836  0.00  0.00     0.024 A 
ATOM     16  C   UNL d   1     -45.253  12.865  22.418  0.00  0.00     0.127 A 
ATOM     17  C   UNL d   1     -45.497  12.881  23.209  0.00  0.00     0.024 A 
ATOM     18  C   UNL d   1     -46.195  13.280  23.414  0.00  0.00     0.002 A 
BRANCH  16  19
ATOM     19  N   UNL d   1     -44.559  12.471  22.197  0.00  0.00    -0.114 N 
ATOM     20  O   UNL d   1     -44.350  11.771  22.584  0.00  0.00    -0.532 OA
ATOM     21  O   UNL d   1     -44.077  12.763  21.600  0.00  0.00    -0.532 OA
ENDBRANCH  16  19
ENDBRANCH  12  13
ENDBRANCH   1  12
TORSDOF 3
ENDMDL
MODEL 5
REMARK VINA RESULT:      -6.6      8.258      9.397
REMARK  3 active torsions:
REMARK  status: ('A' for Active; 'I' for Inactive)
REMARK    1  A    between atoms: C_7  and  C_1 
REMARK    2  A    between atoms: N_5  and  C_9 
REMARK    3  A    between atoms: C_14  and  C_7 
ROOT
ATOM      1  C   UNL d   1     -40.397  14.884  19.096  0.00  0.00     0.139 A 
ATOM      2  C   UNL d   1     -40.086  14.678  17.816  0.00  0.00     0.064 A 
ATOM      3  C   UNL d   1     -40.520  14.381  18.451  0.00  0.00     0.220 A 
ATOM      4  C   UNL d   1     -39.694  15.363  18.063  0.00  0.00     0.106 A 
ATOM      5  O   UNL d   1     -39.888  15.490  18.858  0.00  0.00    -0.304 OA
ATOM      6  C   UNL d   1     -39.221  15.770  17.536  0.00  0.00     0.067 A 
ATOM      7  C   UNL d   1     -40.000  14.408  17.043  0.00  0.00     0.009 A 
ATOM      8  O   UNL d   1     -40.996  13.704  18.453  0.00  0.00    -0.284 OA
ATOM      9  C   UNL d   1     -39.134  15.499  16.761  0.00  0.00     0.198 A 
ATOM     10  C   UNL d   1     -39.523  14.822  16.518  0.00  0.00     0.042 A 
ATOM     11  O   UNL d   1     -38.655  15.914  16.233  0.00  0.00    -0.286 OA
ENDROOT
BRANCH   1  12
ATOM     12  C   UNL d   1     -40.724  14.801  19.850  0.00  0.00     0.028 C 
BRANCH  12  13
ATOM     13  C   UNL d   1     -40.278  14.981  20.526  0.00  0.00     0.002 A 
ATOM     14  C   UNL d   1     -40.346  15.726  20.864  0.00  0.00     0.002 A 
ATOM     15  C   UNL d   1     -39.910  15.917  21.533  0.00  0.00     0.024 A 
ATOM     16  C   UNL d   1     -39.397  15.352  21.871  0.00  0.00     0.127 A 
ATOM     17  C   UNL d   1     -39.331  14.601  21.526  0.00  0.00     0.024 A 
ATOM     18  C   UNL d   1     -39.777  14.421  20.851  0.00  0.00     0.002 A 
BRANCH  16  19
ATOM     19  N   UNL d   1     -38.959  15.549  22.545  0.00  0.00    -0.114 N 
ATOM     20  O   UNL d   1     -39.338  15.922  23.179  0.00  0.00    -0.532 OA
ATOM     21  O   UNL d   1     -38.158  15.380  22.596  0.00  0.00    -0.532 OA
ENDBRANCH  16  19
ENDBRANCH  12  13
ENDBRANCH   1  12
TORSDOF 3
ENDMDL
MODEL 6
REMARK VINA RESULT:      -6.2      8.252      9.982
REMARK  3 active torsions:
REMARK  status: ('A' for Active; 'I' for Inactive)
REMARK    1  A    between atoms: C_7  and  C_1 
REMARK    2  A    between atoms: N_5  and  C_9 
REMARK    3  A    between atoms: C_14  and  C_7 
ROOT
ATOM      1  C   UNL d   1     -40.179  14.603  19.248  0.00  0.00     0.139 A 
ATOM      2  C   UNL d   1     -40.078  14.785  20.564  0.00  0.00     0.064 A 
ATOM      3  C   UNL d   1     -40.546  14.450  19.974  0.00  0.00     0.220 A 
ATOM      4  C   UNL d   1     -39.423  15.144  20.210  0.00  0.00     0.106 A 
ATOM      5  O   UNL d   1     -39.487  15.030  19.392  0.00  0.00    -0.304 OA
ATOM      6  C   UNL d   1     -38.866  15.520  20.675  0.00  0.00     0.067 A 
ATOM      7  C   UNL d   1     -40.168  14.806  21.383  0.00  0.00     0.009 A 
ATOM      8  O   UNL d   1     -41.254  14.037  20.077  0.00  0.00    -0.284 OA
ATOM      9  C   UNL d   1     -38.957  15.541  21.495  0.00  0.00     0.198 A 
ATOM     10  C   UNL d   1     -39.605  15.186  21.845  0.00  0.00     0.042 A 
ATOM     11  O   UNL d   1     -38.392  15.922  21.960  0.00  0.00    -0.286 OA
ENDROOT
BRANCH   1  12
ATOM     12  C   UNL d   1     -40.453  14.370  18.504  0.00  0.00     0.028 C 
BRANCH  12  13
ATOM     13  C   UNL d   1     -39.943  14.357  17.851  0.00  0.00     0.002 A 
ATOM     14  C   UNL d   1     -39.931  15.000  17.339  0.00  0.00     0.002 A 
ATOM     15  C   UNL d   1     -39.430  15.000  16.688  0.00  0.00     0.024 A 
ATOM     16  C   UNL d   1     -38.932  14.346  16.547  0.00  0.00     0.127 A 
ATOM     17  C   UNL d   1     -38.947  13.700  17.065  0.00  0.00     0.024 A 
ATOM     18  C   UNL d   1     -39.457  13.712  17.718  0.00  0.00     0.002 A 
BRANCH  16  19
ATOM     19  N   UNL d   1     -38.428  14.350  15.890  0.00  0.00    -0.114 N 
ATOM     20  O   UNL d   1     -38.039  15.050  15.682  0.00  0.00    -0.532 OA
ATOM     21  O   UNL d   1     -38.309  13.673  15.441  0.00  0.00    -0.532 OA
ENDBRANCH  16  19
ENDBRANCH  12  13
ENDBRANCH   1  12
TORSDOF 3
ENDMDL
MODEL 7
REMARK VINA RESULT:      -6.2      8.478      9.575
REMARK  3 active torsions:
REMARK  status: ('A' for Active; 'I' for Inactive)
REMARK    1  A    between atoms: C_7  and  C_1 
REMARK    2  A    between atoms: N_5  and  C_9 
REMARK    3  A    between atoms: C_14  and  C_7 
ROOT
ATOM      1  C   UNL d   1     -39.974  14.818  20.918  0.00  0.00     0.139 A 
ATOM      2  C   UNL d   1     -39.287  14.614  22.043  0.00  0.00     0.064 A 
ATOM      3  C   UNL d   1     -39.761  15.157  21.643  0.00  0.00     0.220 A 
ATOM      4  C   UNL d   1     -39.205  13.939  21.572  0.00  0.00     0.106 A 
ATOM      5  O   UNL d   1     -39.632  14.067  20.874  0.00  0.00    -0.304 OA
ATOM      6  C   UNL d   1     -38.759  13.310  21.841  0.00  0.00     0.067 A 
ATOM      7  C   UNL d   1     -38.921  14.650  22.780  0.00  0.00     0.009 A 
ATOM      8  O   UNL d   1     -39.987  15.907  21.907  0.00  0.00    -0.284 OA
ATOM      9  C   UNL d   1     -38.391  13.347  22.579  0.00  0.00     0.198 A 
ATOM     10  C   UNL d   1     -38.473  14.015  23.044  0.00  0.00     0.042 A 
ATOM     11  O   UNL d   1     -37.942  12.709  22.846  0.00  0.00    -0.286 OA
ENDROOT
BRANCH   1  12
ATOM     12  C   UNL d   1     -40.446  15.165  20.337  0.00  0.00     0.028 C 
BRANCH  12  13
ATOM     13  C   UNL d   1     -40.283  15.045  19.533  0.00  0.00     0.002 A 
ATOM     14  C   UNL d   1     -40.675  14.447  19.129  0.00  0.00     0.002 A 
ATOM     15  C   UNL d   1     -40.523  14.317  18.333  0.00  0.00     0.024 A 
ATOM     16  C   UNL d   1     -39.968  14.795  17.932  0.00  0.00     0.127 A 
ATOM     17  C   UNL d   1     -39.574  15.397  18.343  0.00  0.00     0.024 A 
ATOM     18  C   UNL d   1     -39.736  15.518  19.147  0.00  0.00     0.002 A 
BRANCH  16  19
ATOM     19  N   UNL d   1     -39.817  14.661  17.130  0.00  0.00    -0.114 N 
ATOM     20  O   UNL d   1     -39.184  14.174  16.912  0.00  0.00    -0.532 OA
ATOM     21  O   UNL d   1     -40.284  15.002  16.547  0.00  0.00    -0.532 OA
ENDBRANCH  16  19
ENDBRANCH  12  13
ENDBRANCH   1  12
TORSDOF 3
ENDMDL
MODEL 8
REMARK VINA RESULT:      -5.8      0.829      1.104
REMARK  3 active torsions:
REMARK  status: ('A' for Active; 'I' for Inactive)
REMARK    1  A    between atoms: C_7  and  C_1 
REMARK    2  A    between atoms: N_5  and  C_9 
REMARK    3  A    between atoms: C_14  and  C_7 
ROOT
ATOM      1  C   UNL d   1     -47.982  13.454  23.157  0.00  0.00     0.139 A 
ATOM      2  C   UNL d   1     -48.965  14.178  22.622  0.00  0.00     0.064 A 
ATOM      3  C   UNL d   1     -48.311  14.213  23.121  0.00  0.00     0.220 A 
ATOM      4  C   UNL d   1     -49.046  13.402  22.347  0.00  0.00     0.106 A 
ATOM      5  O   UNL d   1     -48.434  12.954  22.681  0.00  0.00    -0.304 OA
ATOM      6  C   UNL d   1     -49.656  13.214  21.838  0.00  0.00     0.067 A 
ATOM      7  C   UNL d   1     -49.499  14.758  22.382  0.00  0.00     0.009 A 
ATOM      8  O   UNL d   1     -48.026  14.880  23.519  0.00  0.00    -0.284 OA
ATOM      9  C   UNL d   1     -50.191  13.795  21.599  0.00  0.00     0.198 A 
ATOM     10  C   UNL d   1     -50.111  14.563  21.870  0.00  0.00     0.042 A 
ATOM     11  O   UNL d   1     -50.806  13.600  21.084  0.00  0.00    -0.286 OA
ENDROOT
BRANCH   1  12
ATOM     12  C   UNL d   1     -47.317  13.231  23.593  0.00  0.00     0.028 C 
BRANCH  12  13
ATOM     13  C   UNL d   1     -46.614  13.015  23.210  0.00  0.00     0.002 A 
ATOM     14  C   UNL d   1     -46.206  13.578  22.773  0.00  0.00     0.002 A 
ATOM     15  C   UNL d   1     -45.509  13.379  22.389  0.00  0.00     0.024 A 
ATOM     16  C   UNL d   1     -45.214  12.599  22.442  0.00  0.00     0.127 A 
ATOM     17  C   UNL d   1     -45.628  12.034  22.883  0.00  0.00     0.024 A 
ATOM     18  C   UNL d   1     -46.331  12.249  23.267  0.00  0.00     0.002 A 
BRANCH  16  19
ATOM     19  N   UNL d   1     -44.511  12.402  22.053  0.00  0.00    -0.114 N 
ATOM     20  O   UNL d   1     -44.274  12.844  21.395  0.00  0.00    -0.532 OA
ATOM     21  O   UNL d   1     -44.046  11.775  22.308  0.00  0.00    -0.532 OA
ENDBRANCH  16  19
ENDBRANCH  12  13
ENDBRANCH   1  12
TORSDOF 3
ENDMDL
