MODEL 1
REMARK VINA RESULT:      -9.1      0.000      0.000
REMARK  3 active torsions:
REMARK  status: ('A' for Active; 'I' for Inactive)
REMARK    1  A    between atoms: C_5  and  N_1 
REMARK    2  A    between atoms: C_13  and  C_3 
REMARK    3  A    between atoms: C_4  and  C_5 
ROOT
ATOM      1  N   UNL d   1     -47.448  13.162  22.414  0.00  0.00    -0.286 N 
ATOM      2  N   UNL d   1     -46.379  12.768  23.143  0.00  0.00    -0.224 NA
ATOM      3  C   UNL d   1     -46.672  13.357  22.624  0.00  0.00     0.191 A 
ATOM      4  C   UNL d   1     -47.648  12.450  22.799  0.00  0.00     0.083 A 
ATOM      5  C   UNL d   1     -46.991  12.209  23.246  0.00  0.00     0.099 A 
ATOM      6  C   UNL d   1     -48.340  11.983  22.806  0.00  0.00     0.019 A 
ATOM      7  C   UNL d   1     -47.019  11.510  23.698  0.00  0.00     0.021 A 
ATOM      8  C   UNL d   1     -48.370  11.290  23.253  0.00  0.00     0.002 A 
ATOM      9  C   UNL d   1     -47.710  11.054  23.698  0.00  0.00     0.002 A 
ENDROOT
BRANCH   1  10
ATOM     10  C   UNL d   1     -47.806  13.699  21.901  0.00  0.00     0.082 C 
BRANCH  10  11
ATOM     11  C   UNL d   1     -48.570  13.961  22.050  0.00  0.00     0.018 A 
ATOM     12  C   UNL d   1     -48.701  14.547  22.621  0.00  0.00     0.001 A 
ATOM     13  C   UNL d   1     -49.464  14.809  22.771  0.00  0.00     0.000 A 
ATOM     14  C   UNL d   1     -48.067  14.864  23.036  0.00  0.00     0.000 C 
ATOM     15  C   UNL d   1     -49.595  15.394  23.340  0.00  0.00     0.000 C 
ATOM     16  C   UNL d   1     -50.099  14.492  22.355  0.00  0.00     0.000 A 
ATOM     17  C   UNL d   1     -49.965  13.907  21.785  0.00  0.00     0.000 A 
ATOM     18  C   UNL d   1     -49.200  13.645  21.636  0.00  0.00     0.001 A 
ATOM     19  C   UNL d   1     -50.589  13.580  21.362  0.00  0.00     0.000 C 
ATOM     20  C   UNL d   1     -49.062  13.065  21.072  0.00  0.00     0.000 C 
ENDBRANCH  10  11
ENDBRANCH   1  10
BRANCH   3  21
ATOM     21  C   UNL d   1     -46.253  14.018  22.368  0.00  0.00     0.271 C 
ATOM     22  O   UNL d   1     -45.431  14.014  22.368  0.00  0.00    -0.280 OA
ENDBRANCH   3  21
TORSDOF 3
ENDMDL
MODEL 2
REMARK VINA RESULT:      -9.1      1.336      2.478
REMARK  3 active torsions:
REMARK  status: ('A' for Active; 'I' for Inactive)
REMARK    1  A    between atoms: C_5  and  N_1 
REMARK    2  A    between atoms: C_13  and  C_3 
REMARK    3  A    between atoms: C_4  and  C_5 
ROOT
ATOM      1  N   UNL d   1     -47.709  12.367  22.708  0.00  0.00    -0.286 N 
ATOM      2  N   UNL d   1     -46.637  12.483  23.524  0.00  0.00    -0.224 NA
ATOM      3  C   UNL d   1     -47.199  11.948  23.206  0.00  0.00     0.191 A 
ATOM      4  C   UNL d   1     -47.471  13.167  22.708  0.00  0.00     0.083 A 
ATOM      5  C   UNL d   1     -46.813  13.236  23.210  0.00  0.00     0.099 A 
ATOM      6  C   UNL d   1     -47.763  13.846  22.321  0.00  0.00     0.019 A 
ATOM      7  C   UNL d   1     -46.445  13.974  23.328  0.00  0.00     0.021 A 
ATOM      8  C   UNL d   1     -47.400  14.578  22.436  0.00  0.00     0.002 A 
ATOM      9  C   UNL d   1     -46.742  14.642  22.938  0.00  0.00     0.002 A 
ENDROOT
BRANCH   1  10
ATOM     10  C   UNL d   1     -48.294  11.906  22.355  0.00  0.00     0.082 C 
BRANCH  10  11
ATOM     11  C   UNL d   1     -49.073  12.166  22.349  0.00  0.00     0.018 A 
ATOM     12  C   UNL d   1     -49.392  12.500  21.662  0.00  0.00     0.001 A 
ATOM     13  C   UNL d   1     -50.170  12.761  21.655  0.00  0.00     0.000 A 
ATOM     14  C   UNL d   1     -48.927  12.571  20.988  0.00  0.00     0.000 C 
ATOM     15  C   UNL d   1     -50.487  13.095  20.970  0.00  0.00     0.000 C 
ATOM     16  C   UNL d   1     -50.635  12.690  22.330  0.00  0.00     0.000 A 
ATOM     17  C   UNL d   1     -50.314  12.355  23.016  0.00  0.00     0.000 A 
ATOM     18  C   UNL d   1     -49.534  12.094  23.021  0.00  0.00     0.001 A 
ATOM     19  C   UNL d   1     -50.766  12.277  23.698  0.00  0.00     0.000 C 
ATOM     20  C   UNL d   1     -49.211  11.761  23.698  0.00  0.00     0.000 C 
ENDBRANCH  10  11
ENDBRANCH   1  10
BRANCH   3  21
ATOM     21  C   UNL d   1     -47.234  11.142  23.366  0.00  0.00     0.271 C 
ATOM     22  O   UNL d   1     -46.588  10.755  23.697  0.00  0.00    -0.280 OA
ENDBRANCH   3  21
TORSDOF 3
ENDMDL
MODEL 3
REMARK VINA RESULT:      -8.2      1.515      3.342
REMARK  3 active torsions:
REMARK  status: ('A' for Active; 'I' for Inactive)
REMARK    1  A    between atoms: C_5  and  N_1 
REMARK    2  A    between atoms: C_13  and  C_3 
REMARK    3  A    between atoms: C_4  and  C_5 
ROOT
ATOM      1  N   UNL d   1     -49.354  13.853  22.914  0.00  0.00    -0.286 N 
ATOM      2  N   UNL d   1     -50.277  14.691  22.390  0.00  0.00    -0.224 NA
ATOM      3  C   UNL d   1     -49.721  14.589  23.008  0.00  0.00     0.191 A 
ATOM      4  C   UNL d   1     -49.676  13.489  22.236  0.00  0.00     0.083 A 
ATOM      5  C   UNL d   1     -50.243  14.004  21.916  0.00  0.00     0.099 A 
ATOM      6  C   UNL d   1     -49.534  12.756  21.863  0.00  0.00     0.019 A 
ATOM      7  C   UNL d   1     -50.666  13.796  21.229  0.00  0.00     0.021 A 
ATOM      8  C   UNL d   1     -49.951  12.547  21.184  0.00  0.00     0.002 A 
ATOM      9  C   UNL d   1     -50.517  13.066  20.867  0.00  0.00     0.002 A 
ENDROOT
BRANCH   1  10
ATOM     10  C   UNL d   1     -48.789  13.679  23.489  0.00  0.00     0.082 C 
BRANCH  10  11
ATOM     11  C   UNL d   1     -48.072  13.345  23.271  0.00  0.00     0.018 A 
ATOM     12  C   UNL d   1     -47.477  13.820  22.946  0.00  0.00     0.001 A 
ATOM     13  C   UNL d   1     -46.759  13.487  22.727  0.00  0.00     0.000 A 
ATOM     14  C   UNL d   1     -47.606  14.625  22.843  0.00  0.00     0.000 C 
ATOM     15  C   UNL d   1     -46.166  13.962  22.403  0.00  0.00     0.000 C 
ATOM     16  C   UNL d   1     -46.630  12.682  22.831  0.00  0.00     0.000 A 
ATOM     17  C   UNL d   1     -47.226  12.209  23.156  0.00  0.00     0.000 A 
ATOM     18  C   UNL d   1     -47.944  12.544  23.375  0.00  0.00     0.001 A 
ATOM     19  C   UNL d   1     -47.112  11.402  23.266  0.00  0.00     0.000 C 
ATOM     20  C   UNL d   1     -48.539  12.079  23.698  0.00  0.00     0.000 C 
ENDBRANCH  10  11
ENDBRANCH   1  10
BRANCH   3  21
ATOM     21  C   UNL d   1     -49.569  15.132  23.608  0.00  0.00     0.271 C 
ATOM     22  O   UNL d   1     -50.042  15.799  23.693  0.00  0.00    -0.280 OA
ENDBRANCH   3  21
TORSDOF 3
ENDMDL
MODEL 4
REMARK VINA RESULT:      -7.4      1.934      3.021
REMARK  3 active torsions:
REMARK  status: ('A' for Active; 'I' for Inactive)
REMARK    1  A    between atoms: C_5  and  N_1 
REMARK    2  A    between atoms: C_13  and  C_3 
REMARK    3  A    between atoms: C_4  and  C_5 
ROOT
ATOM      1  N   UNL d   1     -49.800  13.705  22.372  0.00  0.00    -0.286 N 
ATOM      2  N   UNL d   1     -50.932  13.948  23.069  0.00  0.00    -0.224 NA
ATOM      3  C   UNL d   1     -50.364  14.282  22.551  0.00  0.00     0.191 A 
ATOM      4  C   UNL d   1     -50.008  13.005  22.775  0.00  0.00     0.083 A 
ATOM      5  C   UNL d   1     -50.704  13.157  23.202  0.00  0.00     0.099 A 
ATOM      6  C   UNL d   1     -49.662  12.247  22.814  0.00  0.00     0.019 A 
ATOM      7  C   UNL d   1     -51.055  12.560  23.667  0.00  0.00     0.021 A 
ATOM      8  C   UNL d   1     -50.008  11.655  23.272  0.00  0.00     0.002 A 
ATOM      9  C   UNL d   1     -50.703  11.811  23.698  0.00  0.00     0.002 A 
ENDROOT
BRANCH   1  10
ATOM     10  C   UNL d   1     -49.203  13.960  21.863  0.00  0.00     0.082 C 
BRANCH  10  11
ATOM     11  C   UNL d   1     -48.423  13.743  22.004  0.00  0.00     0.018 A 
ATOM     12  C   UNL d   1     -47.979  14.147  22.573  0.00  0.00     0.001 A 
ATOM     13  C   UNL d   1     -47.200  13.931  22.715  0.00  0.00     0.000 A 
ATOM     14  C   UNL d   1     -48.319  14.764  22.996  0.00  0.00     0.000 C 
ATOM     15  C   UNL d   1     -46.757  14.334  23.284  0.00  0.00     0.000 C 
ATOM     16  C   UNL d   1     -46.860  13.313  22.292  0.00  0.00     0.000 A 
ATOM     17  C   UNL d   1     -47.306  12.911  21.723  0.00  0.00     0.000 A 
ATOM     18  C   UNL d   1     -48.086  13.128  21.582  0.00  0.00     0.001 A 
ATOM     19  C   UNL d   1     -46.980  12.291  21.292  0.00  0.00     0.000 C 
ATOM     20  C   UNL d   1     -48.534  12.733  21.019  0.00  0.00     0.000 C 
ENDBRANCH  10  11
ENDBRANCH   1  10
BRANCH   3  21
ATOM     21  C   UNL d   1     -50.371  15.056  22.271  0.00  0.00     0.271 C 
ATOM     22  O   UNL d   1     -51.040  15.525  22.362  0.00  0.00    -0.280 OA
ENDBRANCH   3  21
TORSDOF 3
ENDMDL
MODEL 5
REMARK VINA RESULT:      -7.2      1.930      3.491
REMARK  3 active torsions:
REMARK  status: ('A' for Active; 'I' for Inactive)
REMARK    1  A    between atoms: C_5  and  N_1 
REMARK    2  A    between atoms: C_13  and  C_3 
REMARK    3  A    between atoms: C_4  and  C_5 
ROOT
ATOM      1  N   UNL d   1     -49.487  13.207  23.391  0.00  0.00    -0.286 N 
ATOM      2  N   UNL d   1     -50.820  13.391  23.532  0.00  0.00    -0.224 NA
ATOM      3  C   UNL d   1     -50.209  12.818  23.509  0.00  0.00     0.191 A 
ATOM      4  C   UNL d   1     -49.641  14.025  23.340  0.00  0.00     0.083 A 
ATOM      5  C   UNL d   1     -50.459  14.136  23.426  0.00  0.00     0.099 A 
ATOM      6  C   UNL d   1     -49.148  14.689  23.226  0.00  0.00     0.019 A 
ATOM      7  C   UNL d   1     -50.788  14.901  23.400  0.00  0.00     0.021 A 
ATOM      8  C   UNL d   1     -49.472  15.447  23.200  0.00  0.00     0.002 A 
ATOM      9  C   UNL d   1     -50.290  15.553  23.287  0.00  0.00     0.002 A 
ENDROOT
BRANCH   1  10
ATOM     10  C   UNL d   1     -48.833  12.706  23.357  0.00  0.00     0.082 C 
BRANCH  10  11
ATOM     11  C   UNL d   1     -48.283  12.791  22.753  0.00  0.00     0.018 A 
ATOM     12  C   UNL d   1     -47.525  13.078  22.923  0.00  0.00     0.001 A 
ATOM     13  C   UNL d   1     -46.975  13.164  22.320  0.00  0.00     0.000 A 
ATOM     14  C   UNL d   1     -47.326  13.278  23.694  0.00  0.00     0.000 C 
ATOM     15  C   UNL d   1     -46.219  13.450  22.489  0.00  0.00     0.000 C 
ATOM     16  C   UNL d   1     -47.174  12.964  21.547  0.00  0.00     0.000 A 
ATOM     17  C   UNL d   1     -47.933  12.677  21.381  0.00  0.00     0.000 A 
ATOM     18  C   UNL d   1     -48.483  12.592  21.986  0.00  0.00     0.001 A 
ATOM     19  C   UNL d   1     -48.147  12.473  20.614  0.00  0.00     0.000 C 
ATOM     20  C   UNL d   1     -49.236  12.307  21.826  0.00  0.00     0.000 C 
ENDBRANCH  10  11
ENDBRANCH   1  10
BRANCH   3  21
ATOM     21  C   UNL d   1     -50.312  12.006  23.589  0.00  0.00     0.271 C 
ATOM     22  O   UNL d   1     -51.064  11.692  23.696  0.00  0.00    -0.280 OA
ENDBRANCH   3  21
TORSDOF 3
ENDMDL
MODEL 6
REMARK VINA RESULT:      -6.5      7.892      9.576
REMARK  3 active torsions:
REMARK  status: ('A' for Active; 'I' for Inactive)
REMARK    1  A    between atoms: C_5  and  N_1 
REMARK    2  A    between atoms: C_13  and  C_3 
REMARK    3  A    between atoms: C_4  and  C_5 
ROOT
ATOM      1  N   UNL d   1     -39.960  14.279  18.277  0.00  0.00    -0.286 N 
ATOM      2  N   UNL d   1     -39.477  14.145  17.022  0.00  0.00    -0.224 NA
ATOM      3  C   UNL d   1     -39.435  13.849  17.804  0.00  0.00     0.191 A 
ATOM      4  C   UNL d   1     -40.336  14.847  17.795  0.00  0.00     0.083 A 
ATOM      5  C   UNL d   1     -40.038  14.763  17.025  0.00  0.00     0.099 A 
ATOM      6  C   UNL d   1     -40.910  15.433  17.950  0.00  0.00     0.019 A 
ATOM      7  C   UNL d   1     -40.308  15.256  16.410  0.00  0.00     0.021 A 
ATOM      8  C   UNL d   1     -41.179  15.922  17.342  0.00  0.00     0.002 A 
ATOM      9  C   UNL d   1     -40.878  15.834  16.574  0.00  0.00     0.002 A 
ENDROOT
BRANCH   1  10
ATOM     10  C   UNL d   1     -39.975  14.045  19.068  0.00  0.00     0.082 C 
BRANCH  10  11
ATOM     11  C   UNL d   1     -39.935  14.610  19.663  0.00  0.00     0.018 A 
ATOM     12  C   UNL d   1     -39.215  14.983  19.829  0.00  0.00     0.001 A 
ATOM     13  C   UNL d   1     -39.173  15.547  20.424  0.00  0.00     0.000 A 
ATOM     14  C   UNL d   1     -38.543  14.788  19.398  0.00  0.00     0.000 C 
ATOM     15  C   UNL d   1     -38.454  15.920  20.589  0.00  0.00     0.000 C 
ATOM     16  C   UNL d   1     -39.845  15.743  20.856  0.00  0.00     0.000 A 
ATOM     17  C   UNL d   1     -40.564  15.368  20.688  0.00  0.00     0.000 A 
ATOM     18  C   UNL d   1     -40.604  14.803  20.092  0.00  0.00     0.001 A 
ATOM     19  C   UNL d   1     -41.244  15.552  21.110  0.00  0.00     0.000 C 
ATOM     20  C   UNL d   1     -41.314  14.428  19.921  0.00  0.00     0.000 C 
ENDBRANCH  10  11
ENDBRANCH   1  10
BRANCH   3  21
ATOM     21  C   UNL d   1     -38.950  13.234  18.057  0.00  0.00     0.271 C 
ATOM     22  O   UNL d   1     -38.748  12.626  17.542  0.00  0.00    -0.280 OA
ENDBRANCH   3  21
TORSDOF 3
ENDMDL
MODEL 7
REMARK VINA RESULT:      -6.4      1.419      3.062
REMARK  3 active torsions:
REMARK  status: ('A' for Active; 'I' for Inactive)
REMARK    1  A    between atoms: C_5  and  N_1 
REMARK    2  A    between atoms: C_13  and  C_3 
REMARK    3  A    between atoms: C_4  and  C_5 
ROOT
ATOM      1  N   UNL d   1     -48.674  12.693  22.920  0.00  0.00    -0.286 N 
ATOM      2  N   UNL d   1     -49.337  11.578  22.541  0.00  0.00    -0.224 NA
ATOM      3  C   UNL d   1     -48.767  11.885  23.072  0.00  0.00     0.191 A 
ATOM      4  C   UNL d   1     -49.184  12.898  22.293  0.00  0.00     0.083 A 
ATOM      5  C   UNL d   1     -49.590  12.212  22.062  0.00  0.00     0.099 A 
ATOM      6  C   UNL d   1     -49.338  13.617  21.897  0.00  0.00     0.019 A 
ATOM      7  C   UNL d   1     -50.147  12.237  21.442  0.00  0.00     0.021 A 
ATOM      8  C   UNL d   1     -49.888  13.644  21.283  0.00  0.00     0.002 A 
ATOM      9  C   UNL d   1     -50.292  12.955  21.056  0.00  0.00     0.002 A 
ENDROOT
BRANCH   1  10
ATOM     10  C   UNL d   1     -48.124  13.070  23.407  0.00  0.00     0.082 C 
BRANCH  10  11
ATOM     11  C   UNL d   1     -47.507  13.497  23.073  0.00  0.00     0.018 A 
ATOM     12  C   UNL d   1     -47.562  14.321  23.011  0.00  0.00     0.001 A 
ATOM     13  C   UNL d   1     -46.945  14.748  22.678  0.00  0.00     0.000 A 
ATOM     14  C   UNL d   1     -48.233  14.709  23.283  0.00  0.00     0.000 C 
ATOM     15  C   UNL d   1     -47.000  15.570  22.616  0.00  0.00     0.000 C 
ATOM     16  C   UNL d   1     -46.273  14.360  22.406  0.00  0.00     0.000 A 
ATOM     17  C   UNL d   1     -46.221  13.537  22.470  0.00  0.00     0.000 A 
ATOM     18  C   UNL d   1     -46.839  13.110  22.803  0.00  0.00     0.001 A 
ATOM     19  C   UNL d   1     -45.556  13.134  22.203  0.00  0.00     0.000 C 
ATOM     20  C   UNL d   1     -46.793  12.293  22.869  0.00  0.00     0.000 C 
ENDBRANCH  10  11
ENDBRANCH   1  10
BRANCH   3  21
ATOM     21  C   UNL d   1     -48.367  11.453  23.648  0.00  0.00     0.271 C 
ATOM     22  O   UNL d   1     -48.465  10.638  23.697  0.00  0.00    -0.280 OA
ENDBRANCH   3  21
TORSDOF 3
ENDMDL
MODEL 8
REMARK VINA RESULT:      -6.4      7.670      9.648
REMARK  3 active torsions:
REMARK  status: ('A' for Active; 'I' for Inactive)
REMARK    1  A    between atoms: C_5  and  N_1 
REMARK    2  A    between atoms: C_13  and  C_3 
REMARK    3  A    between atoms: C_4  and  C_5 
ROOT
ATOM      1  N   UNL d   1     -39.930  14.544  19.678  0.00  0.00    -0.286 N 
ATOM      2  N   UNL d   1     -40.098  15.009  20.937  0.00  0.00    -0.224 NA
ATOM      3  C   UNL d   1     -40.447  14.557  20.324  0.00  0.00     0.191 A 
ATOM      4  C   UNL d   1     -39.253  14.987  19.881  0.00  0.00     0.083 A 
ATOM      5  C   UNL d   1     -39.359  15.272  20.654  0.00  0.00     0.099 A 
ATOM      6  C   UNL d   1     -38.552  15.174  19.469  0.00  0.00     0.019 A 
ATOM      7  C   UNL d   1     -38.772  15.739  21.018  0.00  0.00     0.021 A 
ATOM      8  C   UNL d   1     -37.970  15.636  19.827  0.00  0.00     0.002 A 
ATOM      9  C   UNL d   1     -38.079  15.918  20.600  0.00  0.00     0.002 A 
ENDROOT
BRANCH   1  10
ATOM     10  C   UNL d   1     -40.206  14.114  19.030  0.00  0.00     0.082 C 
BRANCH  10  11
ATOM     11  C   UNL d   1     -40.081  14.396  18.269  0.00  0.00     0.018 A 
ATOM     12  C   UNL d   1     -39.498  14.051  17.792  0.00  0.00     0.001 A 
ATOM     13  C   UNL d   1     -39.372  14.331  17.031  0.00  0.00     0.000 A 
ATOM     14  C   UNL d   1     -39.047  13.428  18.082  0.00  0.00     0.000 C 
ATOM     15  C   UNL d   1     -38.791  13.987  16.555  0.00  0.00     0.000 C 
ATOM     16  C   UNL d   1     -39.823  14.955  16.741  0.00  0.00     0.000 A 
ATOM     17  C   UNL d   1     -40.405  15.298  17.220  0.00  0.00     0.000 A 
ATOM     18  C   UNL d   1     -40.530  15.016  17.982  0.00  0.00     0.001 A 
ATOM     19  C   UNL d   1     -40.864  15.922  16.945  0.00  0.00     0.000 C 
ATOM     20  C   UNL d   1     -41.105  15.352  18.462  0.00  0.00     0.000 C 
ENDBRANCH  10  11
ENDBRANCH   1  10
BRANCH   3  21
ATOM     21  C   UNL d   1     -41.182  14.188  20.361  0.00  0.00     0.271 C 
ATOM     22  O   UNL d   1     -41.513  13.994  21.089  0.00  0.00    -0.280 OA
ENDBRANCH   3  21
TORSDOF 3
ENDMDL
MODEL 9
REMARK VINA RESULT:      -6.3      1.541      2.903
REMARK  3 active torsions:
REMARK  status: ('A' for Active; 'I' for Inactive)
REMARK    1  A    between atoms: C_5  and  N_1 
REMARK    2  A    between atoms: C_13  and  C_3 
REMARK    3  A    between atoms: C_4  and  C_5 
ROOT
ATOM      1  N   UNL d   1     -48.618  14.264  22.978  0.00  0.00    -0.286 N 
ATOM      2  N   UNL d   1     -48.127  15.506  22.769  0.00  0.00    -0.224 NA
ATOM      3  C   UNL d   1     -48.817  15.066  22.946  0.00  0.00     0.191 A 
ATOM      4  C   UNL d   1     -47.801  14.195  22.821  0.00  0.00     0.083 A 
ATOM      5  C   UNL d   1     -47.502  14.959  22.693  0.00  0.00     0.099 A 
ATOM      6  C   UNL d   1     -47.285  13.541  22.777  0.00  0.00     0.019 A 
ATOM      7  C   UNL d   1     -46.695  15.075  22.522  0.00  0.00     0.021 A 
ATOM      8  C   UNL d   1     -46.485  13.653  22.608  0.00  0.00     0.002 A 
ATOM      9  C   UNL d   1     -46.191  14.419  22.481  0.00  0.00     0.002 A 
ENDROOT
BRANCH   1  10
ATOM     10  C   UNL d   1     -49.250  13.763  23.149  0.00  0.00     0.082 C 
BRANCH  10  11
ATOM     11  C   UNL d   1     -49.379  13.095  22.688  0.00  0.00     0.018 A 
ATOM     12  C   UNL d   1     -49.740  13.169  21.947  0.00  0.00     0.001 A 
ATOM     13  C   UNL d   1     -49.870  12.502  21.486  0.00  0.00     0.000 A 
ATOM     14  C   UNL d   1     -49.968  13.909  21.674  0.00  0.00     0.000 C 
ATOM     15  C   UNL d   1     -50.230  12.576  20.746  0.00  0.00     0.000 C 
ATOM     16  C   UNL d   1     -49.643  11.761  21.759  0.00  0.00     0.000 A 
ATOM     17  C   UNL d   1     -49.282  11.690  22.501  0.00  0.00     0.000 A 
ATOM     18  C   UNL d   1     -49.153  12.358  22.961  0.00  0.00     0.001 A 
ATOM     19  C   UNL d   1     -49.049  10.956  22.788  0.00  0.00     0.000 C 
ATOM     20  C   UNL d   1     -48.795  12.294  23.698  0.00  0.00     0.000 C 
ENDBRANCH  10  11
ENDBRANCH   1  10
BRANCH   3  21
ATOM     21  C   UNL d   1     -49.568  15.383  23.067  0.00  0.00     0.271 C 
ATOM     22  O   UNL d   1     -49.698  15.922  23.673  0.00  0.00    -0.280 OA
ENDBRANCH   3  21
TORSDOF 3
ENDMDL
