MODEL 1
REMARK VINA RESULT:      50.9      0.000      0.000
REMARK  5 active torsions:
REMARK  status: ('A' for Active; 'I' for Inactive)
REMARK    1  A    between atoms: C_3  and  C_1 
REMARK    2  A    between atoms: C_6  and  C_9 
REMARK    3  A    between atoms: C_7  and  C_12 
REMARK    4  A    between atoms: C_9  and  C_11 
REMARK       I    between atoms: C_11  and  N_16 
REMARK    5  A    between atoms: N_16  and  C_18 
ROOT
ATOM      1  N   UNL d   1      46.227 -12.439  41.477  0.00  0.00    -0.207 NA
ATOM      2  C   UNL d   1      45.980 -12.430  40.677  0.00  0.00     0.285 A 
ATOM      3  S   UNL d   1      44.608 -12.539  41.105  0.00  0.00    -0.080 SA
ATOM      4  C   UNL d   1      45.175 -12.479  40.492  0.00  0.00     0.092 A 
ATOM      5  C   UNL d   1      45.662 -12.497  42.079  0.00  0.00     0.090 A 
ATOM      6  C   UNL d   1      44.856 -12.547  41.898  0.00  0.00     0.047 A 
ATOM      7  C   UNL d   1      45.346 -12.564  43.469  0.00  0.00     0.073 A 
ATOM      8  C   UNL d   1      45.908 -12.506  42.867  0.00  0.00     0.024 A 
ATOM      9  O   UNL d   1      46.534 -12.372  40.073  0.00  0.00    -0.265 OA
ATOM     10  C   UNL d   1      44.296 -12.605  42.497  0.00  0.00     0.008 A 
ATOM     11  C   UNL d   1      44.541 -12.614  43.284  0.00  0.00     0.004 A 
ENDROOT
BRANCH   4  12
ATOM     12  C   UNL d   1      44.924 -12.472  39.715  0.00  0.00     0.074 C 
BRANCH  12  13
ATOM     13  C   UNL d   1      45.162 -13.079  39.197  0.00  0.00     0.280 C 
ATOM     14  N   UNL d   1      44.810 -13.153  38.452  0.00  0.00    -0.208 NA
ATOM     15  O   UNL d   1      45.562 -13.445  39.347  0.00  0.00    -0.265 OA
BRANCH  14  16
ATOM     16  C   UNL d   1      45.052 -13.758  37.946  0.00  0.00     0.085 A 
ATOM     17  C   UNL d   1      44.519 -14.344  37.731  0.00  0.00     0.024 A 
ATOM     18  C   UNL d   1      44.761 -14.949  37.225  0.00  0.00     0.084 A 
ATOM     19  C   UNL d   1      45.533 -14.964  36.938  0.00  0.00     0.062 A 
ATOM     20  C   UNL d   1      46.065 -14.368  37.161  0.00  0.00     0.013 A 
ATOM     21 CL   UNL d   1      45.770 -15.559  36.441  0.00  0.00    -0.082 Cl
ATOM     22  C   UNL d   1      45.825 -13.769  37.662  0.00  0.00     0.020 A 
BRANCH  18  23
ATOM     23  C   UNL d   1      44.236 -15.529  37.010  0.00  0.00     0.420 C 
ATOM     24  F   UNL d   1      43.753 -16.060  36.810  0.00  0.00    -0.166 F 
ATOM     25  F   UNL d   1      43.623 -15.508  36.425  0.00  0.00    -0.166 F 
ATOM     26  F   UNL d   1      44.156 -16.316  37.311  0.00  0.00    -0.166 F 
ENDBRANCH  18  23
ENDBRANCH  14  16
ENDBRANCH  12  13
ENDBRANCH   4  12
BRANCH   7  27
ATOM     27  C   UNL d   1      45.587 -12.572  44.243  0.00  0.00     0.419 C 
ATOM     28  F   UNL d   1      46.157 -12.083  44.634  0.00  0.00    -0.166 F 
ATOM     29  F   UNL d   1      45.333 -13.078  44.883  0.00  0.00    -0.166 F 
ATOM     30  F   UNL d   1      45.810 -12.578  44.955  0.00  0.00    -0.166 F 
ENDBRANCH   7  27
TORSDOF 5
ENDMDL
MODEL 2
REMARK VINA RESULT:      52.2      2.067      5.835
REMARK  5 active torsions:
REMARK  status: ('A' for Active; 'I' for Inactive)
REMARK    1  A    between atoms: C_3  and  C_1 
REMARK    2  A    between atoms: C_6  and  C_9 
REMARK    3  A    between atoms: C_7  and  C_12 
REMARK    4  A    between atoms: C_9  and  C_11 
REMARK       I    between atoms: C_11  and  N_16 
REMARK    5  A    between atoms: N_16  and  C_18 
ROOT
ATOM      1  N   UNL d   1      44.200 -13.192  38.897  0.00  0.00    -0.207 NA
ATOM      2  C   UNL d   1      44.146 -12.726  39.591  0.00  0.00     0.285 A 
ATOM      3  S   UNL d   1      45.576 -12.806  39.752  0.00  0.00    -0.080 SA
ATOM      4  C   UNL d   1      44.830 -12.535  40.016  0.00  0.00     0.092 A 
ATOM      5  C   UNL d   1      44.941 -13.457  38.640  0.00  0.00     0.090 A 
ATOM      6  C   UNL d   1      45.628 -13.268  39.063  0.00  0.00     0.047 A 
ATOM      7  C   UNL d   1      45.730 -14.182  37.698  0.00  0.00     0.073 A 
ATOM      8  C   UNL d   1      44.993 -13.916  37.956  0.00  0.00     0.024 A 
ATOM      9  O   UNL d   1      43.415 -12.458  39.854  0.00  0.00    -0.265 OA
ATOM     10  C   UNL d   1      46.362 -13.532  38.806  0.00  0.00     0.008 A 
ATOM     11  C   UNL d   1      46.414 -13.990  38.123  0.00  0.00     0.004 A 
ENDROOT
BRANCH   4  12
ATOM     12  C   UNL d   1      44.787 -12.081  40.694  0.00  0.00     0.074 C 
BRANCH  12  13
ATOM     13  C   UNL d   1      45.138 -12.356  41.398  0.00  0.00     0.280 C 
ATOM     14  N   UNL d   1      44.721 -12.320  42.112  0.00  0.00    -0.208 NA
ATOM     15  O   UNL d   1      45.658 -12.569  41.397  0.00  0.00    -0.265 OA
BRANCH  14  16
ATOM     16  C   UNL d   1      45.076 -12.595  42.804  0.00  0.00     0.085 A 
ATOM     17  C   UNL d   1      44.793 -13.279  43.161  0.00  0.00     0.024 A 
ATOM     18  C   UNL d   1      45.148 -13.553  43.853  0.00  0.00     0.084 A 
ATOM     19  C   UNL d   1      45.783 -13.144  44.183  0.00  0.00     0.062 A 
ATOM     20  C   UNL d   1      46.062 -12.455  43.816  0.00  0.00     0.013 A 
ATOM     21 CL   UNL d   1      46.131 -13.415  44.864  0.00  0.00    -0.082 Cl
ATOM     22  C   UNL d   1      45.710 -12.183  43.131  0.00  0.00     0.020 A 
BRANCH  18  23
ATOM     23  C   UNL d   1      44.871 -14.228  44.208  0.00  0.00     0.420 C 
ATOM     24  F   UNL d   1      44.614 -14.845  44.536  0.00  0.00    -0.166 F 
ATOM     25  F   UNL d   1      44.265 -14.314  44.795  0.00  0.00    -0.166 F 
ATOM     26  F   UNL d   1      45.110 -15.031  44.091  0.00  0.00    -0.166 F 
ENDBRANCH  18  23
ENDBRANCH  14  16
ENDBRANCH  12  13
ENDBRANCH   4  12
BRANCH   7  27
ATOM     27  C   UNL d   1      45.781 -14.633  37.026  0.00  0.00     0.419 C 
ATOM     28  F   UNL d   1      46.467 -14.876  36.593  0.00  0.00    -0.166 F 
ATOM     29  F   UNL d   1      45.156 -14.989  36.564  0.00  0.00    -0.166 F 
ATOM     30  F   UNL d   1      45.831 -15.047  36.407  0.00  0.00    -0.166 F 
ENDBRANCH   7  27
TORSDOF 5
ENDMDL
