MODEL 1
REMARK VINA RESULT:      -3.5      0.000      0.000
REMARK  4 active torsions:
REMARK  status: ('A' for Active; 'I' for Inactive)
REMARK    1  A    between atoms: N_4  and  C_1 
REMARK    2  A    between atoms: N_9  and  N_4 
REMARK    3  A    between atoms: C_8  and  C_7 
REMARK    4  A    between atoms: C_10  and  N_9 
ROOT
ATOM      1  N   UNL d   1      57.280   0.677  31.794  0.00  0.00    -0.146 NA
ENDROOT
BRANCH   1   2
ATOM      2  C   UNL d   1      57.968   0.664  31.339  0.00  0.00     0.122 A 
ATOM      3  C   UNL d   1      58.757   0.666  31.606  0.00  0.00     0.101 A 
ATOM      4  N   UNL d   1      59.258   0.650  30.984  0.00  0.00    -0.244 NA
ATOM      5  C   UNL d   1      58.992   0.682  32.365  0.00  0.00     0.022 C 
ATOM      6  C   UNL d   1      58.822   0.637  30.304  0.00  0.00     0.083 A 
ATOM      7  C   UNL d   1      57.996   0.646  30.514  0.00  0.00     0.039 A 
ATOM      8  C   UNL d   1      59.009   0.619  29.512  0.00  0.00     0.019 A 
ATOM      9  C   UNL d   1      57.405   0.635  29.916  0.00  0.00     0.003 A 
ATOM     10  C   UNL d   1      57.632   0.617  29.111  0.00  0.00     0.000 A 
ATOM     11  C   UNL d   1      58.437   0.609  28.933  0.00  0.00     0.002 A 
ENDBRANCH   1   2
BRANCH   1  12
ATOM     12  N   UNL d   1      57.054   0.001  32.228  0.00  0.00    -0.148 NA
BRANCH  12  13
ATOM     13  C   UNL d   1      56.340  -0.040  32.665  0.00  0.00     0.109 A 
ATOM     14  C   UNL d   1      55.976  -0.749  32.811  0.00  0.00     0.084 A 
ATOM     15  C   UNL d   1      55.273  -0.774  33.244  0.00  0.00     0.008 A 
ATOM     16  C   UNL d   1      54.942  -0.044  33.531  0.00  0.00     0.000 A 
ATOM     17  C   UNL d   1      55.336   0.682  33.368  0.00  0.00     0.002 A 
ATOM     18  C   UNL d   1      56.040   0.655  32.930  0.00  0.00     0.021 A 
BRANCH  14  19
ATOM     19  C   UNL d   1      56.304  -1.442  32.530  0.00  0.00     0.212 C 
ATOM     20  O   UNL d   1      56.210  -1.672  31.749  0.00  0.00    -0.644 OA
ATOM     21  O   UNL d   1      56.746  -1.945  33.018  0.00  0.00    -0.644 OA
ENDBRANCH  14  19
ENDBRANCH  12  13
ENDBRANCH   1  12
TORSDOF 4
ENDMDL
MODEL 2
REMARK VINA RESULT:      -3.4      3.009      4.560
REMARK  4 active torsions:
REMARK  status: ('A' for Active; 'I' for Inactive)
REMARK    1  A    between atoms: N_4  and  C_1 
REMARK    2  A    between atoms: N_9  and  N_4 
REMARK    3  A    between atoms: C_8  and  C_7 
REMARK    4  A    between atoms: C_10  and  N_9 
ROOT
ATOM      1  N   UNL d   1      58.280  -1.327  29.348  0.00  0.00    -0.146 NA
ENDROOT
BRANCH   1   2
ATOM      2  C   UNL d   1      58.148  -0.618  29.749  0.00  0.00     0.122 A 
ATOM      3  C   UNL d   1      58.378   0.149  29.519  0.00  0.00     0.101 A 
ATOM      4  N   UNL d   1      58.141   0.682  30.065  0.00  0.00    -0.244 NA
ATOM      5  C   UNL d   1      58.775   0.337  28.857  0.00  0.00     0.022 C 
ATOM      6  C   UNL d   1      57.756   0.289  30.657  0.00  0.00     0.083 A 
ATOM      7  C   UNL d   1      57.753  -0.542  30.469  0.00  0.00     0.039 A 
ATOM      8  C   UNL d   1      57.397   0.522  31.349  0.00  0.00     0.019 A 
ATOM      9  C   UNL d   1      57.388  -1.094  30.990  0.00  0.00     0.003 A 
ATOM     10  C   UNL d   1      57.028  -0.821  31.693  0.00  0.00     0.000 A 
ATOM     11  C   UNL d   1      57.044  -0.012  31.853  0.00  0.00     0.002 A 
ENDBRANCH   1   2
BRANCH   1  12
ATOM     12  N   UNL d   1      59.042  -1.668  29.344  0.00  0.00    -0.148 NA
BRANCH  12  13
ATOM     13  C   UNL d   1      59.194  -2.437  29.047  0.00  0.00     0.109 A 
ATOM     14  C   UNL d   1      59.950  -2.721  28.981  0.00  0.00     0.084 A 
ATOM     15  C   UNL d   1      60.084  -3.481  28.686  0.00  0.00     0.008 A 
ATOM     16  C   UNL d   1      59.416  -3.955  28.455  0.00  0.00     0.000 A 
ATOM     17  C   UNL d   1      58.639  -3.641  28.532  0.00  0.00     0.002 A 
ATOM     18  C   UNL d   1      58.556  -2.872  28.833  0.00  0.00     0.021 A 
BRANCH  14  19
ATOM     19  C   UNL d   1      60.583  -2.255  29.206  0.00  0.00     0.212 C 
ATOM     20  O   UNL d   1      60.845  -2.241  29.981  0.00  0.00    -0.644 OA
ATOM     21  O   UNL d   1      60.987  -1.778  28.663  0.00  0.00    -0.644 OA
ENDBRANCH  14  19
ENDBRANCH  12  13
ENDBRANCH   1  12
TORSDOF 4
ENDMDL
MODEL 3
REMARK VINA RESULT:      -3.0      1.914      4.053
REMARK  4 active torsions:
REMARK  status: ('A' for Active; 'I' for Inactive)
REMARK    1  A    between atoms: N_4  and  C_1 
REMARK    2  A    between atoms: N_9  and  N_4 
REMARK    3  A    between atoms: C_8  and  C_7 
REMARK    4  A    between atoms: C_10  and  N_9 
ROOT
ATOM      1  N   UNL d   1      57.931  -0.866  31.175  0.00  0.00    -0.146 NA
ENDROOT
BRANCH   1   2
ATOM      2  C   UNL d   1      57.583  -0.398  31.759  0.00  0.00     0.122 A 
ATOM      3  C   UNL d   1      57.870   0.317  32.077  0.00  0.00     0.101 A 
ATOM      4  N   UNL d   1      57.365   0.593  32.631  0.00  0.00    -0.244 NA
ATOM      5  C   UNL d   1      58.544   0.682  31.869  0.00  0.00     0.022 C 
ATOM      6  C   UNL d   1      56.744   0.079  32.692  0.00  0.00     0.083 A 
ATOM      7  C   UNL d   1      56.870  -0.559  32.141  0.00  0.00     0.039 A 
ATOM      8  C   UNL d   1      56.071   0.056  33.147  0.00  0.00     0.019 A 
ATOM      9  C   UNL d   1      56.310  -1.185  32.079  0.00  0.00     0.003 A 
ATOM     10  C   UNL d   1      55.628  -1.176  32.563  0.00  0.00     0.000 A 
ATOM     11  C   UNL d   1      55.529  -0.549  33.088  0.00  0.00     0.002 A 
ENDBRANCH   1   2
BRANCH   1  12
ATOM     12  N   UNL d   1      57.955  -0.599  30.384  0.00  0.00    -0.148 NA
BRANCH  12  13
ATOM     13  C   UNL d   1      58.318  -1.036  29.769  0.00  0.00     0.109 A 
ATOM     14  C   UNL d   1      58.487  -0.694  29.053  0.00  0.00     0.084 A 
ATOM     15  C   UNL d   1      58.845  -1.138  28.455  0.00  0.00     0.008 A 
ATOM     16  C   UNL d   1      59.033  -1.954  28.606  0.00  0.00     0.000 A 
ATOM     17  C   UNL d   1      58.849  -2.289  29.356  0.00  0.00     0.002 A 
ATOM     18  C   UNL d   1      58.489  -1.803  29.924  0.00  0.00     0.021 A 
BRANCH  14  19
ATOM     19  C   UNL d   1      58.302   0.090  28.921  0.00  0.00     0.212 C 
ATOM     20  O   UNL d   1      57.531   0.327  28.777  0.00  0.00    -0.644 OA
ATOM     21  O   UNL d   1      58.882   0.682  28.927  0.00  0.00    -0.644 OA
ENDBRANCH  14  19
ENDBRANCH  12  13
ENDBRANCH   1  12
TORSDOF 4
ENDMDL
MODEL 4
REMARK VINA RESULT:      -1.1      1.737      2.087
REMARK  4 active torsions:
REMARK  status: ('A' for Active; 'I' for Inactive)
REMARK    1  A    between atoms: N_4  and  C_1 
REMARK    2  A    between atoms: N_9  and  N_4 
REMARK    3  A    between atoms: C_8  and  C_7 
REMARK    4  A    between atoms: C_10  and  N_9 
ROOT
ATOM      1  N   UNL d   1      58.078  -0.590  31.030  0.00  0.00    -0.146 NA
ENDROOT
BRANCH   1   2
ATOM      2  C   UNL d   1      58.170  -0.656  30.213  0.00  0.00     0.122 A 
ATOM      3  C   UNL d   1      58.051  -0.067  29.636  0.00  0.00     0.101 A 
ATOM      4  N   UNL d   1      58.200  -0.360  28.908  0.00  0.00    -0.244 NA
ATOM      5  C   UNL d   1      57.823   0.682  29.775  0.00  0.00     0.022 C 
ATOM      6  C   UNL d   1      58.416  -1.135  28.983  0.00  0.00     0.083 A 
ATOM      7  C   UNL d   1      58.402  -1.338  29.811  0.00  0.00     0.039 A 
ATOM      8  C   UNL d   1      58.631  -1.716  28.456  0.00  0.00     0.019 A 
ATOM      9  C   UNL d   1      58.604  -2.116  30.061  0.00  0.00     0.003 A 
ATOM     10  C   UNL d   1      58.820  -2.690  29.492  0.00  0.00     0.000 A 
ATOM     11  C   UNL d   1      58.826  -2.469  28.698  0.00  0.00     0.002 A 
ENDBRANCH   1   2
BRANCH   1  12
ATOM     12  N   UNL d   1      57.317  -0.489  31.358  0.00  0.00    -0.148 NA
BRANCH  12  13
ATOM     13  C   UNL d   1      57.193  -0.219  32.141  0.00  0.00     0.109 A 
ATOM     14  C   UNL d   1      56.612  -0.537  32.609  0.00  0.00     0.084 A 
ATOM     15  C   UNL d   1      56.501  -0.261  33.379  0.00  0.00     0.008 A 
ATOM     16  C   UNL d   1      57.005   0.361  33.669  0.00  0.00     0.000 A 
ATOM     17  C   UNL d   1      57.602   0.678  33.166  0.00  0.00     0.002 A 
ATOM     18  C   UNL d   1      57.674   0.367  32.401  0.00  0.00     0.021 A 
BRANCH  14  19
ATOM     19  C   UNL d   1      56.135  -1.134  32.319  0.00  0.00     0.212 C 
ATOM     20  O   UNL d   1      55.568  -0.985  31.747  0.00  0.00    -0.644 OA
ATOM     21  O   UNL d   1      56.201  -1.915  32.588  0.00  0.00    -0.644 OA
ENDBRANCH  14  19
ENDBRANCH  12  13
ENDBRANCH   1  12
TORSDOF 4
ENDMDL
MODEL 5
REMARK VINA RESULT:      -0.6      1.357      4.050
REMARK  4 active torsions:
REMARK  status: ('A' for Active; 'I' for Inactive)
REMARK    1  A    between atoms: N_4  and  C_1 
REMARK    2  A    between atoms: N_9  and  N_4 
REMARK    3  A    between atoms: C_8  and  C_7 
REMARK    4  A    between atoms: C_10  and  N_9 
ROOT
ATOM      1  N   UNL d   1      57.535  -0.549  32.074  0.00  0.00    -0.146 NA
ENDROOT
BRANCH   1   2
ATOM      2  C   UNL d   1      56.793  -0.735  32.384  0.00  0.00     0.122 A 
ATOM      3  C   UNL d   1      56.300  -1.374  32.180  0.00  0.00     0.101 A 
ATOM      4  N   UNL d   1      55.628  -1.352  32.612  0.00  0.00    -0.244 NA
ATOM      5  C   UNL d   1      56.461  -1.932  31.637  0.00  0.00     0.022 C 
ATOM      6  C   UNL d   1      55.660  -0.711  33.103  0.00  0.00     0.083 A 
ATOM      7  C   UNL d   1      56.398  -0.307  32.968  0.00  0.00     0.039 A 
ATOM      8  C   UNL d   1      55.155  -0.400  33.661  0.00  0.00     0.019 A 
ATOM      9  C   UNL d   1      56.587   0.388  33.404  0.00  0.00     0.003 A 
ATOM     10  C   UNL d   1      56.046   0.680  33.970  0.00  0.00     0.000 A 
ATOM     11  C   UNL d   1      55.339   0.272  34.082  0.00  0.00     0.002 A 
ENDBRANCH   1   2
BRANCH   1  12
ATOM     12  N   UNL d   1      57.594  -0.182  31.326  0.00  0.00    -0.148 NA
BRANCH  12  13
ATOM     13  C   UNL d   1      58.318   0.112  31.022  0.00  0.00     0.109 A 
ATOM     14  C   UNL d   1      58.391   0.324  30.242  0.00  0.00     0.084 A 
ATOM     15  C   UNL d   1      59.110   0.613  29.956  0.00  0.00     0.008 A 
ATOM     16  C   UNL d   1      59.767   0.682  30.493  0.00  0.00     0.000 A 
ATOM     17  C   UNL d   1      59.669   0.456  31.298  0.00  0.00     0.002 A 
ATOM     18  C   UNL d   1      58.928   0.172  31.537  0.00  0.00     0.021 A 
BRANCH  14  19
ATOM     19  C   UNL d   1      57.752   0.253  29.738  0.00  0.00     0.212 C 
ATOM     20  O   UNL d   1      57.776  -0.247  29.089  0.00  0.00    -0.644 OA
ATOM     21  O   UNL d   1      57.052   0.680  29.857  0.00  0.00    -0.644 OA
ENDBRANCH  14  19
ENDBRANCH  12  13
ENDBRANCH   1  12
TORSDOF 4
ENDMDL
