MODEL 1
REMARK VINA RESULT:      15.0      0.000      0.000
REMARK  2 active torsions:
REMARK  status: ('A' for Active; 'I' for Inactive)
REMARK    1  A    between atoms: S_2  and  N_1 
REMARK    2  A    between atoms: C_8  and  S_2 
ROOT
ATOM      1  S   UNL d   1      44.029 -15.447  36.659  0.00  0.00     0.273 S 
ATOM      2  O   UNL d   1      43.822 -14.699  36.393  0.00  0.00    -0.200 OA
ATOM      3  O   UNL d   1      44.245 -16.197  36.927  0.00  0.00    -0.200 OA
ENDROOT
BRANCH   1   4
ATOM      4  N   UNL d   1      44.807 -15.185  36.738  0.00  0.00    -0.207 N 
ATOM      5  C   UNL d   1      44.896 -14.508  37.210  0.00  0.00     0.148 A 
ATOM      6  N   UNL d   1      45.599 -14.106  37.399  0.00  0.00    -0.198 NA
ATOM      7  C   UNL d   1      46.359 -14.272  37.174  0.00  0.00     0.066 A 
ATOM      8  C   UNL d   1      45.487 -14.913  36.837  0.00  0.00     0.169 A 
ATOM      9  C   UNL d   1      46.632 -14.882  36.699  0.00  0.00     0.066 A 
ATOM     10  N   UNL d   1      46.198 -15.482  36.330  0.00  0.00    -0.198 NA
ATOM     11  C   UNL d   1      45.388 -15.614  36.349  0.00  0.00     0.148 A 
ENDBRANCH   1   4
BRANCH   1  12
ATOM     12  C   UNL d   1      43.248 -15.702  36.577  0.00  0.00     0.104 A 
ATOM     13  C   UNL d   1      42.633 -15.151  36.574  0.00  0.00     0.013 A 
ATOM     14  C   UNL d   1      41.853 -15.405  36.492  0.00  0.00     0.001 A 
ATOM     15  C   UNL d   1      41.687 -16.210  36.413  0.00  0.00     0.000 A 
ATOM     16  C   UNL d   1      42.302 -16.761  36.416  0.00  0.00     0.001 A 
ATOM     17  C   UNL d   1      40.904 -16.456  36.332  0.00  0.00     0.000 C 
ATOM     18  C   UNL d   1      43.083 -16.506  36.498  0.00  0.00     0.013 A 
ENDBRANCH   1  12
TORSDOF 2
ENDMDL
MODEL 2
REMARK VINA RESULT:      17.0      7.771      8.440
REMARK  2 active torsions:
REMARK  status: ('A' for Active; 'I' for Inactive)
REMARK    1  A    between atoms: S_2  and  N_1 
REMARK    2  A    between atoms: C_8  and  S_2 
ROOT
ATOM      1  S   UNL d   1      46.043 -17.110  44.185  0.00  0.00     0.273 S 
ATOM      2  O   UNL d   1      45.882 -17.346  44.955  0.00  0.00    -0.200 OA
ATOM      3  O   UNL d   1      46.207 -16.881  43.410  0.00  0.00    -0.200 OA
ENDROOT
BRANCH   1   4
ATOM      4  N   UNL d   1      46.227 -17.893  44.002  0.00  0.00    -0.207 N 
ATOM      5  C   UNL d   1      46.268 -18.057  43.190  0.00  0.00     0.148 A 
ATOM      6  N   UNL d   1      46.439 -18.783  42.822  0.00  0.00    -0.198 NA
ATOM      7  C   UNL d   1      46.605 -19.500  43.161  0.00  0.00     0.066 A 
ATOM      8  C   UNL d   1      46.388 -18.583  43.791  0.00  0.00     0.169 A 
ATOM      9  C   UNL d   1      46.647 -19.695  43.956  0.00  0.00     0.066 A 
ATOM     10  N   UNL d   1      46.530 -19.206  44.614  0.00  0.00    -0.198 NA
ATOM     11  C   UNL d   1      46.344 -18.407  44.631  0.00  0.00     0.148 A 
ENDBRANCH   1   4
BRANCH   1  12
ATOM     12  C   UNL d   1      45.858 -16.329  44.377  0.00  0.00     0.104 A 
ATOM     13  C   UNL d   1      45.150 -16.156  44.763  0.00  0.00     0.013 A 
ATOM     14  C   UNL d   1      44.965 -15.375  44.954  0.00  0.00     0.001 A 
ATOM     15  C   UNL d   1      45.488 -14.767  44.760  0.00  0.00     0.000 A 
ATOM     16  C   UNL d   1      46.197 -14.941  44.373  0.00  0.00     0.001 A 
ATOM     17  C   UNL d   1      45.295 -13.989  44.955  0.00  0.00     0.000 C 
ATOM     18  C   UNL d   1      46.382 -15.722  44.182  0.00  0.00     0.013 A 
ENDBRANCH   1  12
TORSDOF 2
ENDMDL
MODEL 3
REMARK VINA RESULT:      17.2      7.631      8.275
REMARK  2 active torsions:
REMARK  status: ('A' for Active; 'I' for Inactive)
REMARK    1  A    between atoms: S_2  and  N_1 
REMARK    2  A    between atoms: C_8  and  S_2 
ROOT
ATOM      1  S   UNL d   1      45.859 -16.594  44.235  0.00  0.00     0.273 S 
ATOM      2  O   UNL d   1      46.250 -16.656  44.955  0.00  0.00    -0.200 OA
ATOM      3  O   UNL d   1      45.465 -16.524  43.514  0.00  0.00    -0.200 OA
ENDROOT
BRANCH   1   4
ATOM      4  N   UNL d   1      45.667 -15.815  44.427  0.00  0.00    -0.207 N 
ATOM      5  C   UNL d   1      46.275 -15.267  44.293  0.00  0.00     0.148 A 
ATOM      6  N   UNL d   1      46.262 -14.446  44.426  0.00  0.00    -0.198 NA
ATOM      7  C   UNL d   1      45.662 -13.985  44.715  0.00  0.00     0.066 A 
ATOM      8  C   UNL d   1      45.539 -15.104  44.584  0.00  0.00     0.169 A 
ATOM      9  C   UNL d   1      44.910 -14.210  44.952  0.00  0.00     0.066 A 
ATOM     10  N   UNL d   1      44.575 -14.967  44.955  0.00  0.00    -0.198 NA
ATOM     11  C   UNL d   1      44.913 -15.677  44.721  0.00  0.00     0.148 A 
ENDBRANCH   1   4
BRANCH   1  12
ATOM     12  C   UNL d   1      46.056 -17.374  44.051  0.00  0.00     0.104 A 
ATOM     13  C   UNL d   1      46.088 -17.616  43.263  0.00  0.00     0.013 A 
ATOM     14  C   UNL d   1      46.285 -18.396  43.079  0.00  0.00     0.001 A 
ATOM     15  C   UNL d   1      46.450 -18.934  43.683  0.00  0.00     0.000 A 
ATOM     16  C   UNL d   1      46.417 -18.691  44.472  0.00  0.00     0.001 A 
ATOM     17  C   UNL d   1      46.646 -19.712  43.491  0.00  0.00     0.000 C 
ATOM     18  C   UNL d   1      46.221 -17.911  44.656  0.00  0.00     0.013 A 
ENDBRANCH   1  12
TORSDOF 2
ENDMDL
MODEL 4
REMARK VINA RESULT:      17.5      7.366      7.964
REMARK  2 active torsions:
REMARK  status: ('A' for Active; 'I' for Inactive)
REMARK    1  A    between atoms: S_2  and  N_1 
REMARK    2  A    between atoms: C_8  and  S_2 
ROOT
ATOM      1  S   UNL d   1      46.072 -17.874  43.451  0.00  0.00     0.273 S 
ATOM      2  O   UNL d   1      45.505 -17.724  42.877  0.00  0.00    -0.200 OA
ATOM      3  O   UNL d   1      46.644 -18.032  44.024  0.00  0.00    -0.200 OA
ENDROOT
BRANCH   1   4
ATOM      4  N   UNL d   1      46.247 -18.583  43.068  0.00  0.00    -0.207 N 
ATOM      5  C   UNL d   1      46.352 -18.514  42.247  0.00  0.00     0.148 A 
ATOM      6  N   UNL d   1      46.531 -19.117  41.703  0.00  0.00    -0.198 NA
ATOM      7  C   UNL d   1      46.647 -19.907  41.835  0.00  0.00     0.066 A 
ATOM      8  C   UNL d   1      46.405 -19.193  42.682  0.00  0.00     0.169 A 
ATOM      9  C   UNL d   1      46.616 -20.319  42.544  0.00  0.00     0.066 A 
ATOM     10  N   UNL d   1      46.459 -20.029  43.302  0.00  0.00    -0.198 NA
ATOM     11  C   UNL d   1      46.295 -19.258  43.532  0.00  0.00     0.148 A 
ENDBRANCH   1   4
BRANCH   1  12
ATOM     12  C   UNL d   1      45.891 -17.163  43.828  0.00  0.00     0.104 A 
ATOM     13  C   UNL d   1      46.083 -16.445  43.469  0.00  0.00     0.013 A 
ATOM     14  C   UNL d   1      45.902 -15.734  43.847  0.00  0.00     0.001 A 
ATOM     15  C   UNL d   1      45.529 -15.741  44.583  0.00  0.00     0.000 A 
ATOM     16  C   UNL d   1      45.336 -16.459  44.941  0.00  0.00     0.001 A 
ATOM     17  C   UNL d   1      45.351 -15.025  44.953  0.00  0.00     0.000 C 
ATOM     18  C   UNL d   1      45.517 -17.170  44.564  0.00  0.00     0.013 A 
ENDBRANCH   1  12
TORSDOF 2
ENDMDL
