MODEL 1
REMARK VINA RESULT:      -3.7      0.000      0.000
REMARK  3 active torsions:
REMARK  status: ('A' for Active; 'I' for Inactive)
REMARK    1  A    between atoms: N_7  and  C_2 
REMARK    2  A    between atoms: C_10  and  N_7 
REMARK    3  A    between atoms: C_12  and  C_10 
ROOT
ATOM      1  C   UNL d   1     -41.173-121.441 -51.453  0.00  0.00     0.184 A 
ATOM      2  C   UNL d   1     -41.185-122.241 -51.496  0.00  0.00     0.108 A 
ATOM      3  C   UNL d   1     -41.171-120.981 -52.162  0.00  0.00     0.321 A 
ATOM      4  O   UNL d   1     -41.182-121.341 -52.881  0.00  0.00    -0.272 OA
ATOM      5  C   UNL d   1     -41.196-122.618 -52.233  0.00  0.00     0.042 A 
ATOM      6  C   UNL d   1     -41.194-122.164 -52.930  0.00  0.00     0.105 A 
ATOM      7  O   UNL d   1     -41.158-120.140 -52.123  0.00  0.00    -0.257 OA
ATOM      8  N   UNL d   1     -41.162-121.070 -50.690  0.00  0.00    -0.141 N 
ATOM      9  C   UNL d   1     -41.208-123.434 -52.270  0.00  0.00     0.004 A 
ATOM     10  C   UNL d   1     -41.205-122.534 -53.656  0.00  0.00     0.025 A 
ATOM     11  C   UNL d   1     -41.219-123.816 -52.996  0.00  0.00     0.000 A 
ATOM     12  C   UNL d   1     -41.217-123.356 -53.704  0.00  0.00     0.002 A 
ENDROOT
BRANCH   2  13
ATOM     13  N   UNL d   1     -41.186-122.691 -50.803  0.00  0.00    -0.242 NA
BRANCH  13  14
ATOM     14  C   UNL d   1     -41.904-122.916 -50.493  0.00  0.00     0.099 C 
BRANCH  14  15
ATOM     15  C   UNL d   1     -41.920-123.221 -49.705  0.00  0.00     0.019 A 
ATOM     16  C   UNL d   1     -42.614-123.209 -49.293  0.00  0.00     0.002 A 
ATOM     17  C   UNL d   1     -42.630-123.507 -48.523  0.00  0.00     0.000 A 
ATOM     18  C   UNL d   1     -41.951-123.810 -48.183  0.00  0.00     0.000 A 
ATOM     19  C   UNL d   1     -41.242-123.817 -48.615  0.00  0.00     0.000 A 
ATOM     20  C   UNL d   1     -41.229-123.519 -49.385  0.00  0.00     0.002 A 
ENDBRANCH  14  15
ENDBRANCH  13  14
ENDBRANCH   2  13
TORSDOF 3
ENDMDL
MODEL 2
REMARK VINA RESULT:      -2.8      1.407      3.833
REMARK  3 active torsions:
REMARK  status: ('A' for Active; 'I' for Inactive)
REMARK    1  A    between atoms: N_7  and  C_2 
REMARK    2  A    between atoms: C_10  and  N_7 
REMARK    3  A    between atoms: C_12  and  C_10 
ROOT
ATOM      1  C   UNL d   1     -41.125-121.100 -51.856  0.00  0.00     0.184 A 
ATOM      2  C   UNL d   1     -41.126-121.879 -52.045  0.00  0.00     0.108 A 
ATOM      3  C   UNL d   1     -41.127-120.862 -51.046  0.00  0.00     0.321 A 
ATOM      4  O   UNL d   1     -41.129-121.413 -50.460  0.00  0.00    -0.272 OA
ATOM      5  C   UNL d   1     -41.128-122.450 -51.446  0.00  0.00     0.042 A 
ATOM      6  C   UNL d   1     -41.130-122.216 -50.648  0.00  0.00     0.105 A 
ATOM      7  O   UNL d   1     -41.127-120.045 -50.842  0.00  0.00    -0.257 OA
ATOM      8  N   UNL d   1     -41.123-120.526 -52.482  0.00  0.00    -0.141 N 
ATOM      9  C   UNL d   1     -41.128-123.243 -51.644  0.00  0.00     0.004 A 
ATOM     10  C   UNL d   1     -41.132-122.778 -50.059  0.00  0.00     0.025 A 
ATOM     11  C   UNL d   1     -41.130-123.817 -51.058  0.00  0.00     0.000 A 
ATOM     12  C   UNL d   1     -41.132-123.579 -50.247  0.00  0.00     0.002 A 
ENDROOT
BRANCH   2  13
ATOM     13  N   UNL d   1     -41.124-122.112 -52.837  0.00  0.00    -0.242 NA
BRANCH  13  14
ATOM     14  C   UNL d   1     -41.840-122.252 -53.198  0.00  0.00     0.099 C 
BRANCH  14  15
ATOM     15  C   UNL d   1     -41.863-122.275 -54.042  0.00  0.00     0.019 A 
ATOM     16  C   UNL d   1     -41.269-122.647 -54.442  0.00  0.00     0.002 A 
ATOM     17  C   UNL d   1     -41.292-122.669 -55.267  0.00  0.00     0.000 A 
ATOM     18  C   UNL d   1     -41.908-122.319 -55.673  0.00  0.00     0.000 A 
ATOM     19  C   UNL d   1     -42.515-121.938 -55.253  0.00  0.00     0.000 A 
ATOM     20  C   UNL d   1     -42.490-121.918 -54.427  0.00  0.00     0.002 A 
ENDBRANCH  14  15
ENDBRANCH  13  14
ENDBRANCH   2  13
TORSDOF 3
ENDMDL
