MODEL 1
REMARK VINA RESULT:      16.7      0.000      0.000
REMARK  3 active torsions:
REMARK  status: ('A' for Active; 'I' for Inactive)
REMARK    1  A    between atoms: C_10  and  C_4 
REMARK    2  A    between atoms: S_9  and  C_10 
REMARK    3  A    between atoms: C_11  and  S_9 
ROOT
ATOM      1  C   UNL d   1      13.708  11.996  -2.509  0.00  0.00     0.056 C 
ENDROOT
BRANCH   1   2
ATOM      2  S   UNL d   1      13.153  12.420  -2.911  0.00  0.00    -0.085 SA
BRANCH   2   3
ATOM      3  C   UNL d   1      13.145  12.405  -3.736  0.00  0.00     0.030 A 
ATOM      4  C   UNL d   1      12.781  11.782  -4.131  0.00  0.00     0.007 A 
ATOM      5  C   UNL d   1      12.780  11.780  -4.956  0.00  0.00     0.012 A 
ATOM      6  C   UNL d   1      13.134  12.384  -5.386  0.00  0.00     0.058 A 
ATOM      7  C   UNL d   1      13.497  13.003  -4.980  0.00  0.00     0.012 A 
ATOM      8 CL   UNL d   1      13.126  12.369  -6.215  0.00  0.00    -0.082 Cl
ATOM      9  C   UNL d   1      13.505  13.018  -4.161  0.00  0.00     0.007 A 
ENDBRANCH   2   3
ENDBRANCH   1   2
BRANCH   1  10
ATOM     10  C   UNL d   1      14.135  12.351  -1.918  0.00  0.00     0.107 A 
ATOM     11  N   UNL d   1      14.426  11.970  -1.225  0.00  0.00    -0.220 NA
ATOM     12  C   UNL d   1      14.840  12.551  -0.761  0.00  0.00     0.180 A 
ATOM     13  N   UNL d   1      14.801  13.295  -1.179  0.00  0.00    -0.282 N 
ATOM     14  S   UNL d   1      15.280  12.679  -0.043  0.00  0.00    -0.048 SA
ATOM     15  C   UNL d   1      14.362  13.159  -1.892  0.00  0.00     0.102 A 
ATOM     16  C   UNL d   1      15.216  13.876  -0.715  0.00  0.00     0.089 A 
ATOM     17  C   UNL d   1      15.510  13.492  -0.015  0.00  0.00     0.057 A 
ENDBRANCH   1  10
TORSDOF 3
ENDMDL
MODEL 2
REMARK VINA RESULT:      18.8      2.282      4.187
REMARK  3 active torsions:
REMARK  status: ('A' for Active; 'I' for Inactive)
REMARK    1  A    between atoms: C_10  and  C_4 
REMARK    2  A    between atoms: S_9  and  C_10 
REMARK    3  A    between atoms: C_11  and  S_9 
ROOT
ATOM      1  C   UNL d   1      13.073  12.416  -2.670  0.00  0.00     0.056 C 
ENDROOT
BRANCH   1   2
ATOM      2  S   UNL d   1      13.361  11.800  -2.239  0.00  0.00    -0.085 SA
BRANCH   2   3
ATOM      3  C   UNL d   1      13.957  11.932  -1.684  0.00  0.00     0.030 A 
ATOM      4  C   UNL d   1      13.762  12.197  -0.929  0.00  0.00     0.007 A 
ATOM      5  C   UNL d   1      14.368  12.324  -0.383  0.00  0.00     0.012 A 
ATOM      6  C   UNL d   1      15.154  12.192  -0.579  0.00  0.00     0.058 A 
ATOM      7  C   UNL d   1      15.339  11.927  -1.337  0.00  0.00     0.012 A 
ATOM      8 CL   UNL d   1      15.753  12.325  -0.021  0.00  0.00    -0.082 Cl
ATOM      9  C   UNL d   1      14.747  11.796  -1.889  0.00  0.00     0.007 A 
ENDBRANCH   2   3
ENDBRANCH   1   2
BRANCH   1  10
ATOM     10  C   UNL d   1      13.155  12.416  -3.477  0.00  0.00     0.107 A 
ATOM     11  N   UNL d   1      12.958  11.779  -3.992  0.00  0.00    -0.220 NA
ATOM     12  C   UNL d   1      13.133  12.022  -4.788  0.00  0.00     0.180 A 
ATOM     13  N   UNL d   1      13.442  12.818  -4.757  0.00  0.00    -0.282 N 
ATOM     14  S   UNL d   1      13.121  11.780  -5.605  0.00  0.00    -0.048 SA
ATOM     15  C   UNL d   1      13.451  13.051  -3.941  0.00  0.00     0.102 A 
ATOM     16  C   UNL d   1      13.618  13.060  -5.554  0.00  0.00     0.089 A 
ATOM     17  C   UNL d   1      13.419  12.417  -6.074  0.00  0.00     0.057 A 
ENDBRANCH   1  10
TORSDOF 3
ENDMDL
