MODEL 1
REMARK VINA RESULT:      -3.1      0.000      0.000
REMARK  2 active torsions:
REMARK  status: ('A' for Active; 'I' for Inactive)
REMARK    1  A    between atoms: N_11  and  C_4 
REMARK    2  A    between atoms: C_16  and  N_12 
ROOT
ATOM      1  N   UNL d   1      58.384  -1.049  30.195  0.00  0.00    -0.195 N 
ATOM      2  C   UNL d   1      58.917  -1.226  29.615  0.00  0.00     0.168 A 
ATOM      3  C   UNL d   1      58.970  -1.964  29.323  0.00  0.00     0.073 A 
ATOM      4  C   UNL d   1      58.346  -0.306  30.474  0.00  0.00     0.153 A 
ATOM      5  N   UNL d   1      57.954  -2.348  30.196  0.00  0.00    -0.143 NA
ATOM      6  C   UNL d   1      58.487  -2.525  29.616  0.00  0.00     0.185 A 
ATOM      7  N   UNL d   1      59.397  -0.655  29.329  0.00  0.00    -0.227 NA
ATOM      8  C   UNL d   1      59.497  -2.139  28.750  0.00  0.00     0.007 A 
ATOM      9  N   UNL d   1      58.528  -3.278  29.331  0.00  0.00    -0.225 NA
ATOM     10  C   UNL d   1      58.819   0.263  30.193  0.00  0.00     0.057 A 
ATOM     11  C   UNL d   1      59.549  -2.878  28.459  0.00  0.00     0.019 A 
ATOM     12  C   UNL d   1      59.351   0.086  29.614  0.00  0.00     0.086 A 
ATOM     13  C   UNL d   1      59.061  -3.454  28.751  0.00  0.00     0.083 A 
ATOM     14  C   UNL d   1      59.978  -1.564  28.464  0.00  0.00     0.000 C 
ATOM     15  C   UNL d   1      59.849   0.682  29.318  0.00  0.00     0.021 C 
ATOM     16  C   UNL d   1      59.108  -4.191  28.466  0.00  0.00     0.021 C 
ENDROOT
BRANCH   4  17
ATOM     17  N   UNL d   1      57.794  -0.131  31.072  0.00  0.00    -0.286 N 
ATOM     18  C   UNL d   1      57.747  -0.651  31.719  0.00  0.00     0.101 A 
ATOM     19  C   UNL d   1      57.208  -0.508  32.334  0.00  0.00     0.100 A 
ATOM     20  N   UNL d   1      56.719   0.156  32.296  0.00  0.00    -0.301 N 
ATOM     21  C   UNL d   1      56.759   0.682  31.653  0.00  0.00     0.100 A 
ATOM     22  C   UNL d   1      57.302   0.535  31.037  0.00  0.00     0.101 A 
BRANCH  20  23
ATOM     23  C   UNL d   1      56.182   0.301  32.906  0.00  0.00     0.065 A 
ATOM     24  C   UNL d   1      56.452   0.410  33.687  0.00  0.00     0.029 A 
ATOM     25  C   UNL d   1      55.905   0.557  34.303  0.00  0.00     0.059 A 
ATOM     26 CL   UNL d   1      56.170   0.665  35.081  0.00  0.00    -0.082 Cl
ATOM     27  C   UNL d   1      55.086   0.595  34.133  0.00  0.00     0.011 A 
ATOM     28  C   UNL d   1      54.820   0.485  33.345  0.00  0.00     0.002 A 
ATOM     29  C   UNL d   1      55.364   0.340  32.741  0.00  0.00     0.018 A 
ENDBRANCH  20  23
ENDBRANCH   4  17
TORSDOF 2
ENDMDL
