MODEL 1
REMARK VINA RESULT:      -2.6      0.000      0.000
REMARK  7 active torsions:
REMARK  status: ('A' for Active; 'I' for Inactive)
REMARK    1  A    between atoms: S_3  and  C_1 
REMARK    2  A    between atoms: C_10  and  S_3 
REMARK    3  A    between atoms: N_11  and  C_4 
REMARK    4  A    between atoms: C_9  and  C_5 
REMARK    5  A    between atoms: C_20  and  N_11 
REMARK    6  A    between atoms: C_22  and  C_20 
REMARK    7  A    between atoms: C_23  and  C_22 
ROOT
ATOM      1  C   UNL d   1      32.806  19.379 -22.823  0.00  0.00     0.042 A 
ATOM      2  C   UNL d   1      32.345  19.168 -23.469  0.00  0.00     0.006 A 
ATOM      3  C   UNL d   1      33.240  18.807 -22.409  0.00  0.00     0.006 A 
ATOM      4  C   UNL d   1      32.743  17.793 -23.302  0.00  0.00     0.094 A 
ATOM      5  C   UNL d   1      33.214  18.015 -22.640  0.00  0.00     0.024 A 
ATOM      6  C   UNL d   1      32.312  18.375 -23.711  0.00  0.00     0.024 A 
ATOM      7  O   UNL d   1      32.713  16.998 -23.540  0.00  0.00    -0.328 OA
ATOM      8  C   UNL d   1      32.676  16.190 -23.790  0.00  0.00     0.181 C 
ENDROOT
BRANCH   1   9
ATOM      9  C   UNL d   1      32.843  20.168 -22.578  0.00  0.00     0.185 A 
ATOM     10  N   UNL d   1      32.748  20.390 -21.792  0.00  0.00    -0.207 NA
ATOM     11  C   UNL d   1      32.818  21.212 -21.747  0.00  0.00     0.212 A 
ATOM     12  C   UNL d   1      32.955  21.484 -22.507  0.00  0.00     0.213 A 
ATOM     13  O   UNL d   1      32.972  20.855 -23.021  0.00  0.00    -0.269 OA
BRANCH  11  14
ATOM     14  S   UNL d   1      32.779  21.775 -21.126  0.00  0.00     0.230 S 
ATOM     15  O   UNL d   1      32.418  20.996 -20.823  0.00  0.00    -0.215 OA
ATOM     16  O   UNL d   1      33.117  22.524 -21.393  0.00  0.00    -0.215 OA
BRANCH  14  17
ATOM     17  C   UNL d   1      32.741  22.326 -20.519  0.00  0.00     0.090 A 
ATOM     18  C   UNL d   1      33.165  22.203 -19.832  0.00  0.00     0.011 A 
ATOM     19  C   UNL d   1      33.130  22.750 -19.226  0.00  0.00     0.001 A 
ATOM     20  C   UNL d   1      32.670  23.420 -19.307  0.00  0.00     0.000 A 
ATOM     21  C   UNL d   1      32.240  23.548 -19.999  0.00  0.00     0.001 A 
ATOM     22  C   UNL d   1      32.276  23.002 -20.604  0.00  0.00     0.011 A 
ENDBRANCH  14  17
ENDBRANCH  11  14
BRANCH  12  23
ATOM     23  N   UNL d   1      33.055  22.291 -22.680  0.00  0.00    -0.219 NA
BRANCH  23  24
ATOM     24  C   UNL d   1      33.241  22.724 -23.349  0.00  0.00     0.101 C 
BRANCH  24  25
ATOM     25  C   UNL d   1      32.523  22.859 -23.725  0.00  0.00     0.021 C 
BRANCH  25  26
ATOM     26  C   UNL d   1      32.437  23.509 -24.242  0.00  0.00     0.002 C 
ATOM     27  C   UNL d   1      32.697  23.460 -25.029  0.00  0.00     0.000 C 
ENDBRANCH  25  26
ENDBRANCH  24  25
ENDBRANCH  23  24
ENDBRANCH  12  23
ENDBRANCH   1   9
TORSDOF 7
ENDMDL
MODEL 2
REMARK VINA RESULT:      -1.0      1.774      5.435
REMARK  7 active torsions:
REMARK  status: ('A' for Active; 'I' for Inactive)
REMARK    1  A    between atoms: S_3  and  C_1 
REMARK    2  A    between atoms: C_10  and  S_3 
REMARK    3  A    between atoms: N_11  and  C_4 
REMARK    4  A    between atoms: C_9  and  C_5 
REMARK    5  A    between atoms: C_20  and  N_11 
REMARK    6  A    between atoms: C_22  and  C_20 
REMARK    7  A    between atoms: C_23  and  C_22 
ROOT
ATOM      1  C   UNL d   1      32.496  20.338 -22.346  0.00  0.00     0.042 A 
ATOM      2  C   UNL d   1      32.681  20.211 -21.556  0.00  0.00     0.006 A 
ATOM      3  C   UNL d   1      32.463  21.107 -22.654  0.00  0.00     0.006 A 
ATOM      4  C   UNL d   1      32.805  21.633 -21.358  0.00  0.00     0.094 A 
ATOM      5  C   UNL d   1      32.615  21.758 -22.169  0.00  0.00     0.024 A 
ATOM      6  C   UNL d   1      32.836  20.858 -21.060  0.00  0.00     0.024 A 
ATOM      7  O   UNL d   1      32.960  22.283 -20.865  0.00  0.00    -0.328 OA
ATOM      8  C   UNL d   1      33.119  22.939 -20.355  0.00  0.00     0.181 C 
ENDROOT
BRANCH   1   9
ATOM      9  C   UNL d   1      32.340  19.698 -22.845  0.00  0.00     0.185 A 
ATOM     10  N   UNL d   1      32.786  19.007 -22.828  0.00  0.00    -0.207 NA
ATOM     11  C   UNL d   1      32.479  18.490 -23.396  0.00  0.00     0.212 A 
ATOM     12  C   UNL d   1      31.849  18.870 -23.754  0.00  0.00     0.213 A 
ATOM     13  O   UNL d   1      31.756  19.608 -23.425  0.00  0.00    -0.269 OA
BRANCH  11  14
ATOM     14  S   UNL d   1      32.673  17.715 -23.654  0.00  0.00     0.230 S 
ATOM     15  O   UNL d   1      32.130  17.641 -22.927  0.00  0.00    -0.215 OA
ATOM     16  O   UNL d   1      33.189  17.762 -24.346  0.00  0.00    -0.215 OA
BRANCH  14  17
ATOM     17  C   UNL d   1      32.863  16.958 -23.908  0.00  0.00     0.090 A 
ATOM     18  C   UNL d   1      32.932  16.804 -24.707  0.00  0.00     0.011 A 
ATOM     19  C   UNL d   1      33.121  16.051 -24.963  0.00  0.00     0.001 A 
ATOM     20  C   UNL d   1      33.241  15.453 -24.419  0.00  0.00     0.000 A 
ATOM     21  C   UNL d   1      33.171  15.605 -23.612  0.00  0.00     0.001 A 
ATOM     22  C   UNL d   1      32.983  16.356 -23.356  0.00  0.00     0.011 A 
ENDBRANCH  14  17
ENDBRANCH  11  14
BRANCH  12  23
ATOM     23  N   UNL d   1      31.401  18.517 -24.358  0.00  0.00    -0.219 NA
BRANCH  23  24
ATOM     24  C   UNL d   1      30.836  18.776 -24.890  0.00  0.00     0.101 C 
BRANCH  24  25
ATOM     25  C   UNL d   1      30.371  18.118 -25.049  0.00  0.00     0.021 C 
BRANCH  25  26
ATOM     26  C   UNL d   1      29.554  18.132 -24.874  0.00  0.00     0.002 C 
ATOM     27  C   UNL d   1      29.102  17.437 -24.913  0.00  0.00     0.000 C 
ENDBRANCH  25  26
ENDBRANCH  24  25
ENDBRANCH  23  24
ENDBRANCH  12  23
ENDBRANCH   1   9
TORSDOF 7
ENDMDL
