MODEL 1
REMARK VINA RESULT:      -6.4      0.000      0.000
REMARK  8 active torsions:
REMARK  status: ('A' for Active; 'I' for Inactive)
REMARK    1  A    between atoms: S_11  and  C_6 
REMARK    2  A    between atoms: O_23  and  C_10 
REMARK    3  A    between atoms: C_19  and  S_11 
REMARK    4  A    between atoms: C_12  and  C_19 
REMARK       I    between atoms: N_18  and  C_12 
REMARK    5  A    between atoms: O_25  and  C_13 
REMARK    6  A    between atoms: C_26  and  N_18 
REMARK    7  A    between atoms: C_20  and  C_27 
REMARK    8  A    between atoms: C_27  and  C_26 
ROOT
ATOM      1  C   UNL d   1     -43.648  12.903  21.536  0.00  0.00     0.286 C 
ATOM      2  O   UNL d   1     -43.499  12.177  21.899  0.00  0.00    -0.265 OA
ATOM      3  N   UNL d   1     -44.366  13.295  21.665  0.00  0.00    -0.206 NA
ENDROOT
BRANCH   1   4
ATOM      4  C   UNL d   1     -43.080  13.245  21.039  0.00  0.00     0.101 C 
BRANCH   4   5
ATOM      5  S   UNL d   1     -42.288  13.250  21.258  0.00  0.00    -0.043 SA
BRANCH   5   6
ATOM      6  C   UNL d   1     -41.744  13.712  20.837  0.00  0.00     0.198 A 
ATOM      7  N   UNL d   1     -41.335  14.333  21.218  0.00  0.00    -0.200 NA
ATOM      8  C   UNL d   1     -40.789  14.796  20.794  0.00  0.00     0.189 A 
ATOM      9  C   UNL d   1     -40.653  14.639  19.990  0.00  0.00     0.081 A 
ATOM     10  N   UNL d   1     -40.388  15.406  21.172  0.00  0.00    -0.127 N 
ATOM     11  C   UNL d   1     -41.059  14.022  19.609  0.00  0.00     0.187 A 
ATOM     12  C   UNL d   1     -40.154  14.998  19.437  0.00  0.00     0.029 A 
ATOM     13  N   UNL d   1     -41.603  13.562  20.036  0.00  0.00    -0.197 NA
ATOM     14  O   UNL d   1     -40.805  14.008  18.822  0.00  0.00    -0.289 OA
ATOM     15  C   UNL d   1     -40.244  14.609  18.708  0.00  0.00     0.102 A 
ATOM     16  C   UNL d   1     -39.856  14.784  18.010  0.00  0.00     0.027 C 
ATOM     17  C   UNL d   1     -39.646  15.640  19.582  0.00  0.00     0.002 C 
ENDBRANCH   5   6
ENDBRANCH   4   5
ENDBRANCH   1   4
BRANCH   3  18
ATOM     18  C   UNL d   1     -44.935  12.960  22.157  0.00  0.00     0.102 C 
BRANCH  18  19
ATOM     19  C   UNL d   1     -45.454  13.443  22.574  0.00  0.00     0.021 C 
BRANCH  19  20
ATOM     20  C   UNL d   1     -46.193  13.154  22.794  0.00  0.00     0.004 A 
ATOM     21  C   UNL d   1     -46.867  13.603  22.646  0.00  0.00     0.026 A 
ATOM     22  C   UNL d   1     -47.608  13.321  22.863  0.00  0.00     0.116 A 
ATOM     23  C   UNL d   1     -47.679  12.586  23.230  0.00  0.00     0.116 A 
ATOM     24  C   UNL d   1     -47.002  12.139  23.377  0.00  0.00     0.026 A 
ATOM     25  C   UNL d   1     -46.260  12.421  23.160  0.00  0.00     0.002 A 
BRANCH  22  26
ATOM     26  O   UNL d   1     -48.283  13.776  22.712  0.00  0.00    -0.326 OA
ATOM     27  C   UNL d   1     -48.211  14.584  22.578  0.00  0.00     0.181 C 
ENDBRANCH  22  26
BRANCH  23  28
ATOM     28  O   UNL d   1     -48.424  12.304  23.448  0.00  0.00    -0.326 OA
ATOM     29  C   UNL d   1     -48.518  11.499  23.622  0.00  0.00     0.181 C 
ENDBRANCH  23  28
ENDBRANCH  19  20
ENDBRANCH  18  19
ENDBRANCH   3  18
TORSDOF 8
ENDMDL
MODEL 2
REMARK VINA RESULT:      -6.1      1.334      6.996
REMARK  8 active torsions:
REMARK  status: ('A' for Active; 'I' for Inactive)
REMARK    1  A    between atoms: S_11  and  C_6 
REMARK    2  A    between atoms: O_23  and  C_10 
REMARK    3  A    between atoms: C_19  and  S_11 
REMARK    4  A    between atoms: C_12  and  C_19 
REMARK       I    between atoms: N_18  and  C_12 
REMARK    5  A    between atoms: O_25  and  C_13 
REMARK    6  A    between atoms: C_26  and  N_18 
REMARK    7  A    between atoms: C_20  and  C_27 
REMARK    8  A    between atoms: C_27  and  C_26 
ROOT
ATOM      1  C   UNL d   1     -43.285  12.962  21.459  0.00  0.00     0.286 C 
ATOM      2  O   UNL d   1     -42.882  12.242  21.484  0.00  0.00    -0.265 OA
ATOM      3  N   UNL d   1     -42.881  13.660  21.271  0.00  0.00    -0.206 NA
ENDROOT
BRANCH   1   4
ATOM      4  C   UNL d   1     -44.097  12.991  21.622  0.00  0.00     0.101 C 
BRANCH   4   5
ATOM      5  S   UNL d   1     -44.394  12.653  22.309  0.00  0.00    -0.043 SA
BRANCH   5   6
ATOM      6  C   UNL d   1     -45.179  12.789  22.533  0.00  0.00     0.198 A 
ATOM      7  N   UNL d   1     -45.603  12.208  22.958  0.00  0.00    -0.200 NA
ATOM      8  C   UNL d   1     -46.392  12.346  23.182  0.00  0.00     0.189 A 
ATOM      9  C   UNL d   1     -46.758  13.064  22.979  0.00  0.00     0.081 A 
ATOM     10  N   UNL d   1     -46.806  11.772  23.600  0.00  0.00    -0.127 N 
ATOM     11  C   UNL d   1     -46.339  13.643  22.556  0.00  0.00     0.187 A 
ATOM     12  C   UNL d   1     -47.520  13.351  23.123  0.00  0.00     0.029 A 
ATOM     13  N   UNL d   1     -45.550  13.502  22.335  0.00  0.00    -0.197 NA
ATOM     14  O   UNL d   1     -46.849  14.284  22.443  0.00  0.00    -0.289 OA
ATOM     15  C   UNL d   1     -47.582  14.111  22.791  0.00  0.00     0.102 A 
ATOM     16  C   UNL d   1     -48.240  14.596  22.803  0.00  0.00     0.027 C 
ATOM     17  C   UNL d   1     -48.125  12.951  23.530  0.00  0.00     0.002 C 
ENDBRANCH   5   6
ENDBRANCH   4   5
ENDBRANCH   1   4
BRANCH   3  18
ATOM     18  C   UNL d   1     -42.074  13.637  21.107  0.00  0.00     0.102 C 
BRANCH  18  19
ATOM     19  C   UNL d   1     -41.667  14.335  20.954  0.00  0.00     0.021 C 
BRANCH  19  20
ATOM     20  C   UNL d   1     -40.889  14.302  20.684  0.00  0.00     0.004 A 
ATOM     21  C   UNL d   1     -40.737  14.319  19.876  0.00  0.00     0.026 A 
ATOM     22  C   UNL d   1     -39.963  14.287  19.599  0.00  0.00     0.116 A 
ATOM     23  C   UNL d   1     -39.336  14.237  20.132  0.00  0.00     0.116 A 
ATOM     24  C   UNL d   1     -39.492  14.220  20.942  0.00  0.00     0.026 A 
ATOM     25  C   UNL d   1     -40.265  14.252  21.218  0.00  0.00     0.002 A 
BRANCH  22  26
ATOM     26  O   UNL d   1     -39.815  14.305  18.784  0.00  0.00    -0.326 OA
ATOM     27  C   UNL d   1     -40.390  14.587  18.269  0.00  0.00     0.181 C 
ENDBRANCH  22  26
BRANCH  23  28
ATOM     28  O   UNL d   1     -38.559  14.205  19.853  0.00  0.00    -0.326 OA
ATOM     29  C   UNL d   1     -37.941  14.067  20.388  0.00  0.00     0.181 C 
ENDBRANCH  23  28
ENDBRANCH  19  20
ENDBRANCH  18  19
ENDBRANCH   3  18
TORSDOF 8
ENDMDL
MODEL 3
REMARK VINA RESULT:      -5.9      1.283      7.054
REMARK  8 active torsions:
REMARK  status: ('A' for Active; 'I' for Inactive)
REMARK    1  A    between atoms: S_11  and  C_6 
REMARK    2  A    between atoms: O_23  and  C_10 
REMARK    3  A    between atoms: C_19  and  S_11 
REMARK    4  A    between atoms: C_12  and  C_19 
REMARK       I    between atoms: N_18  and  C_12 
REMARK    5  A    between atoms: O_25  and  C_13 
REMARK    6  A    between atoms: C_26  and  N_18 
REMARK    7  A    between atoms: C_20  and  C_27 
REMARK    8  A    between atoms: C_27  and  C_26 
ROOT
ATOM      1  C   UNL d   1     -43.382  12.930  21.457  0.00  0.00     0.286 C 
ATOM      2  O   UNL d   1     -42.976  12.211  21.453  0.00  0.00    -0.265 OA
ATOM      3  N   UNL d   1     -42.985  13.635  21.284  0.00  0.00    -0.206 NA
ENDROOT
BRANCH   1   4
ATOM      4  C   UNL d   1     -44.191  12.950  21.635  0.00  0.00     0.101 C 
BRANCH   4   5
ATOM      5  S   UNL d   1     -44.454  12.763  22.391  0.00  0.00    -0.043 SA
BRANCH   5   6
ATOM      6  C   UNL d   1     -45.255  12.848  22.585  0.00  0.00     0.198 A 
ATOM      7  N   UNL d   1     -45.631  13.590  22.507  0.00  0.00    -0.200 NA
ATOM      8  C   UNL d   1     -46.435  13.674  22.703  0.00  0.00     0.189 A 
ATOM      9  C   UNL d   1     -46.863  13.016  22.976  0.00  0.00     0.081 A 
ATOM     10  N   UNL d   1     -46.802  14.405  22.625  0.00  0.00    -0.127 N 
ATOM     11  C   UNL d   1     -46.491  12.277  23.054  0.00  0.00     0.187 A 
ATOM     12  C   UNL d   1     -47.652  12.933  23.207  0.00  0.00     0.029 A 
ATOM     13  N   UNL d   1     -45.687  12.197  22.858  0.00  0.00    -0.197 NA
ATOM     14  O   UNL d   1     -47.058  11.744  23.334  0.00  0.00    -0.289 OA
ATOM     15  C   UNL d   1     -47.779  12.142  23.432  0.00  0.00     0.102 A 
ATOM     16  C   UNL d   1     -48.480  11.817  23.698  0.00  0.00     0.027 C 
ATOM     17  C   UNL d   1     -48.225  13.535  23.216  0.00  0.00     0.002 C 
ENDBRANCH   5   6
ENDBRANCH   4   5
ENDBRANCH   1   4
BRANCH   3  18
ATOM     18  C   UNL d   1     -42.181  13.621  21.106  0.00  0.00     0.102 C 
BRANCH  18  19
ATOM     19  C   UNL d   1     -41.782  14.324  20.952  0.00  0.00     0.021 C 
BRANCH  19  20
ATOM     20  C   UNL d   1     -40.990  14.303  20.725  0.00  0.00     0.004 A 
ATOM     21  C   UNL d   1     -40.791  14.390  19.932  0.00  0.00     0.026 A 
ATOM     22  C   UNL d   1     -40.003  14.370  19.698  0.00  0.00     0.116 A 
ATOM     23  C   UNL d   1     -39.409  14.262  20.259  0.00  0.00     0.116 A 
ATOM     24  C   UNL d   1     -39.612  14.175  21.054  0.00  0.00     0.026 A 
ATOM     25  C   UNL d   1     -40.400  14.195  21.287  0.00  0.00     0.002 A 
BRANCH  22  26
ATOM     26  O   UNL d   1     -39.807  14.458  18.898  0.00  0.00    -0.326 OA
ATOM     27  C   UNL d   1     -40.373  14.311  18.319  0.00  0.00     0.181 C 
ENDBRANCH  22  26
BRANCH  23  28
ATOM     28  O   UNL d   1     -38.617  14.242  20.023  0.00  0.00    -0.326 OA
ATOM     29  C   UNL d   1     -38.023  14.196  20.600  0.00  0.00     0.181 C 
ENDBRANCH  23  28
ENDBRANCH  19  20
ENDBRANCH  18  19
ENDBRANCH   3  18
TORSDOF 8
ENDMDL
MODEL 4
REMARK VINA RESULT:      -4.3      1.330      2.145
REMARK  8 active torsions:
REMARK  status: ('A' for Active; 'I' for Inactive)
REMARK    1  A    between atoms: S_11  and  C_6 
REMARK    2  A    between atoms: O_23  and  C_10 
REMARK    3  A    between atoms: C_19  and  S_11 
REMARK    4  A    between atoms: C_12  and  C_19 
REMARK       I    between atoms: N_18  and  C_12 
REMARK    5  A    between atoms: O_25  and  C_13 
REMARK    6  A    between atoms: C_26  and  N_18 
REMARK    7  A    between atoms: C_20  and  C_27 
REMARK    8  A    between atoms: C_27  and  C_26 
ROOT
ATOM      1  C   UNL d   1     -42.113  13.337  21.158  0.00  0.00     0.286 C 
ATOM      2  O   UNL d   1     -41.834  13.367  21.935  0.00  0.00    -0.265 OA
ATOM      3  N   UNL d   1     -42.907  13.159  21.006  0.00  0.00    -0.206 NA
ENDROOT
BRANCH   1   4
ATOM      4  C   UNL d   1     -41.599  13.486  20.525  0.00  0.00     0.101 C 
BRANCH   4   5
ATOM      5  S   UNL d   1     -41.173  14.188  20.494  0.00  0.00    -0.043 SA
BRANCH   5   6
ATOM      6  C   UNL d   1     -40.738  14.379  19.816  0.00  0.00     0.198 A 
ATOM      7  N   UNL d   1     -40.928  15.060  19.371  0.00  0.00    -0.200 NA
ATOM      8  C   UNL d   1     -40.490  15.251  18.690  0.00  0.00     0.189 A 
ATOM      9  C   UNL d   1     -39.862  14.761  18.454  0.00  0.00     0.081 A 
ATOM     10  N   UNL d   1     -40.681  15.922  18.255  0.00  0.00    -0.127 N 
ATOM     11  C   UNL d   1     -39.671  14.084  18.895  0.00  0.00     0.187 A 
ATOM     12  C   UNL d   1     -39.339  14.810  17.815  0.00  0.00     0.029 A 
ATOM     13  N   UNL d   1     -40.111  13.896  19.575  0.00  0.00    -0.197 NA
ATOM     14  O   UNL d   1     -39.029  13.719  18.522  0.00  0.00    -0.289 OA
ATOM     15  C   UNL d   1     -38.818  14.163  17.853  0.00  0.00     0.102 A 
ATOM     16  C   UNL d   1     -38.212  13.994  17.330  0.00  0.00     0.027 C 
ATOM     17  C   UNL d   1     -39.332  15.402  17.233  0.00  0.00     0.002 C 
ENDBRANCH   5   6
ENDBRANCH   4   5
ENDBRANCH   1   4
BRANCH   3  18
ATOM     18  C   UNL d   1     -43.422  13.010  21.630  0.00  0.00     0.102 C 
BRANCH  18  19
ATOM     19  C   UNL d   1     -44.130  12.614  21.494  0.00  0.00     0.021 C 
BRANCH  19  20
ATOM     20  C   UNL d   1     -44.784  12.770  21.970  0.00  0.00     0.004 A 
ATOM     21  C   UNL d   1     -45.001  12.233  22.553  0.00  0.00     0.026 A 
ATOM     22  C   UNL d   1     -45.653  12.382  23.032  0.00  0.00     0.116 A 
ATOM     23  C   UNL d   1     -46.091  13.073  22.929  0.00  0.00     0.116 A 
ATOM     24  C   UNL d   1     -45.871  13.610  22.343  0.00  0.00     0.026 A 
ATOM     25  C   UNL d   1     -45.219  13.461  21.864  0.00  0.00     0.002 A 
BRANCH  22  26
ATOM     26  O   UNL d   1     -45.868  11.838  23.618  0.00  0.00    -0.326 OA
ATOM     27  C   UNL d   1     -45.666  11.045  23.535  0.00  0.00     0.181 C 
ENDBRANCH  22  26
BRANCH  23  28
ATOM     28  O   UNL d   1     -46.746  13.222  23.410  0.00  0.00    -0.326 OA
ATOM     29  C   UNL d   1     -47.263  13.839  23.212  0.00  0.00     0.181 C 
ENDBRANCH  23  28
ENDBRANCH  19  20
ENDBRANCH  18  19
ENDBRANCH   3  18
TORSDOF 8
ENDMDL
MODEL 5
REMARK VINA RESULT:      -3.7      1.473      7.316
REMARK  8 active torsions:
REMARK  status: ('A' for Active; 'I' for Inactive)
REMARK    1  A    between atoms: S_11  and  C_6 
REMARK    2  A    between atoms: O_23  and  C_10 
REMARK    3  A    between atoms: C_19  and  S_11 
REMARK    4  A    between atoms: C_12  and  C_19 
REMARK       I    between atoms: N_18  and  C_12 
REMARK    5  A    between atoms: O_25  and  C_13 
REMARK    6  A    between atoms: C_26  and  N_18 
REMARK    7  A    between atoms: C_20  and  C_27 
REMARK    8  A    between atoms: C_27  and  C_26 
ROOT
ATOM      1  C   UNL d   1     -41.564  13.820  20.860  0.00  0.00     0.286 C 
ATOM      2  O   UNL d   1     -40.832  13.789  21.239  0.00  0.00    -0.265 OA
ATOM      3  N   UNL d   1     -41.611  14.020  20.058  0.00  0.00    -0.206 NA
ENDROOT
BRANCH   1   4
ATOM      4  C   UNL d   1     -42.258  13.653  21.281  0.00  0.00     0.101 C 
BRANCH   4   5
ATOM      5  S   UNL d   1     -42.689  12.973  21.114  0.00  0.00    -0.043 SA
BRANCH   5   6
ATOM      6  C   UNL d   1     -43.370  12.796  21.551  0.00  0.00     0.198 A 
ATOM      7  N   UNL d   1     -43.403  12.104  22.019  0.00  0.00    -0.200 NA
ATOM      8  C   UNL d   1     -44.088  11.928  22.457  0.00  0.00     0.189 A 
ATOM      9  C   UNL d   1     -44.739  12.443  22.428  0.00  0.00     0.081 A 
ATOM     10  N   UNL d   1     -44.118  11.247  22.915  0.00  0.00    -0.127 N 
ATOM     11  C   UNL d   1     -44.708  13.132  21.964  0.00  0.00     0.187 A 
ATOM     12  C   UNL d   1     -45.479  12.414  22.796  0.00  0.00     0.029 A 
ATOM     13  N   UNL d   1     -44.023  13.304  21.527  0.00  0.00    -0.197 NA
ATOM     14  O   UNL d   1     -45.433  13.521  22.051  0.00  0.00    -0.289 OA
ATOM     15  C   UNL d   1     -45.915  13.083  22.565  0.00  0.00     0.102 A 
ATOM     16  C   UNL d   1     -46.675  13.275  22.799  0.00  0.00     0.027 C 
ATOM     17  C   UNL d   1     -45.746  11.818  23.311  0.00  0.00     0.002 C 
ENDBRANCH   5   6
ENDBRANCH   4   5
ENDBRANCH   1   4
BRANCH   3  18
ATOM     18  C   UNL d   1     -40.925  14.188  19.635  0.00  0.00     0.102 C 
BRANCH  18  19
ATOM     19  C   UNL d   1     -40.935  14.170  18.813  0.00  0.00     0.021 C 
BRANCH  19  20
ATOM     20  C   UNL d   1     -40.271  14.417  18.391  0.00  0.00     0.004 A 
ATOM     21  C   UNL d   1     -39.728  13.861  18.125  0.00  0.00     0.026 A 
ATOM     22  C   UNL d   1     -39.063  14.099  17.703  0.00  0.00     0.116 A 
ATOM     23  C   UNL d   1     -38.939  14.899  17.546  0.00  0.00     0.116 A 
ATOM     24  C   UNL d   1     -39.486  15.455  17.815  0.00  0.00     0.026 A 
ATOM     25  C   UNL d   1     -40.151  15.216  18.236  0.00  0.00     0.002 A 
BRANCH  22  26
ATOM     26  O   UNL d   1     -38.519  13.535  17.437  0.00  0.00    -0.326 OA
ATOM     27  C   UNL d   1     -38.635  12.739  17.610  0.00  0.00     0.181 C 
ENDBRANCH  22  26
BRANCH  23  28
ATOM     28  O   UNL d   1     -38.271  15.138  17.123  0.00  0.00    -0.326 OA
ATOM     29  C   UNL d   1     -38.219  15.921  16.856  0.00  0.00     0.181 C 
ENDBRANCH  23  28
ENDBRANCH  19  20
ENDBRANCH  18  19
ENDBRANCH   3  18
TORSDOF 8
ENDMDL
