MODEL 1
REMARK VINA RESULT:      57.2      0.000      0.000
REMARK  5 active torsions:
REMARK  status: ('A' for Active; 'I' for Inactive)
REMARK       I    between atoms: N_2  and  C_1 
REMARK    1  A    between atoms: C_3  and  C_1 
REMARK    2  A    between atoms: C_5  and  N_2 
REMARK    3  A    between atoms: C_6  and  C_3 
REMARK    4  A    between atoms: C_7  and  C_3 
REMARK    5  A    between atoms: C_9  and  C_5 
ROOT
ATOM      1  C   UNL d   1      60.366  48.796  50.908  0.00  0.00     0.058 C 
ENDROOT
BRANCH   1   2
ATOM      2  C   UNL d   1      59.720  49.406  50.394  0.00  0.00     0.275 C 
ATOM      3  N   UNL d   1      59.048  49.706  50.163  0.00  0.00    -0.231 NA
ATOM      4  O   UNL d   1      60.397  49.675  50.105  0.00  0.00    -0.266 OA
BRANCH   3   5
ATOM      5  C   UNL d   1      58.354  49.431  50.457  0.00  0.00     0.146 C 
ATOM      6  C   UNL d   1      58.548  49.696  51.170  0.00  0.00     0.033 C 
ATOM      7  C   UNL d   1      58.171  49.168  49.728  0.00  0.00     0.033 C 
BRANCH   5   8
ATOM      8  C   UNL d   1      57.657  49.152  50.737  0.00  0.00     0.229 C 
ATOM      9  O   UNL d   1      57.150  48.798  50.226  0.00  0.00    -0.286 OA
ENDBRANCH   5   8
ENDBRANCH   3   5
ENDBRANCH   1   2
BRANCH   1  10
ATOM     10  C   UNL d   1      60.760  49.094  51.550  0.00  0.00     0.005 A 
ATOM     11  C   UNL d   1      61.563  49.213  51.523  0.00  0.00     0.000 A 
ATOM     12  C   UNL d   1      61.959  49.518  52.181  0.00  0.00     0.000 A 
ATOM     13  C   UNL d   1      61.542  49.703  52.869  0.00  0.00     0.000 A 
ATOM     14  C   UNL d   1      60.720  49.581  52.893  0.00  0.00     0.000 A 
ATOM     15  C   UNL d   1      60.326  49.278  52.239  0.00  0.00     0.000 A 
ENDBRANCH   1  10
BRANCH   1  16
ATOM     16  C   UNL d   1      60.581  48.021  50.800  0.00  0.00     0.005 A 
ATOM     17  C   UNL d   1      60.067  47.407  51.010  0.00  0.00     0.000 A 
ATOM     18  C   UNL d   1      60.287  46.611  50.898  0.00  0.00     0.000 A 
ATOM     19  C   UNL d   1      61.031  46.429  50.572  0.00  0.00     0.000 A 
ATOM     20  C   UNL d   1      61.551  47.052  50.359  0.00  0.00     0.000 A 
ATOM     21  C   UNL d   1      61.318  47.840  50.476  0.00  0.00     0.000 A 
ENDBRANCH   1  16
TORSDOF 5
ENDMDL
