MODEL 1
REMARK VINA RESULT:      -8.3      0.000      0.000
REMARK  4 active torsions:
REMARK  status: ('A' for Active; 'I' for Inactive)
REMARK    1  A    between atoms: N_3  and  C_1 
REMARK       I    between atoms: C_5  and  N_3 
REMARK    2  A    between atoms: C_15  and  C_5 
REMARK    3  A    between atoms: C_8  and  C_9 
REMARK    4  A    between atoms: O_16  and  C_8 
ROOT
ATOM      1  C   UNL d   1      51.626  33.907  52.658  0.00  0.00     0.197 A 
ATOM      2  N   UNL d   1      51.957  33.157  52.508  0.00  0.00    -0.221 NA
ATOM      3  S   UNL d   1      52.042  34.244  53.284  0.00  0.00    -0.047 SA
ATOM      4  C   UNL d   1      52.628  33.716  53.529  0.00  0.00     0.050 A 
ATOM      5  C   UNL d   1      52.575  33.038  53.045  0.00  0.00     0.090 A 
ATOM      6  C   UNL d   1      53.714  33.130  54.231  0.00  0.00     0.064 A 
ATOM      7  C   UNL d   1      53.201  33.757  54.122  0.00  0.00     0.013 A 
ATOM      8  C   UNL d   1      53.096  32.414  53.164  0.00  0.00     0.020 A 
ATOM      9  C   UNL d   1      53.661  32.452  53.747  0.00  0.00     0.007 A 
ENDROOT
BRANCH   1  10
ATOM     10  N   UNL d   1      50.994  34.249  52.249  0.00  0.00    -0.183 NA
ATOM     11  C   UNL d   1      50.223  34.149  52.524  0.00  0.00     0.281 C 
ATOM     12  O   UNL d   1      50.083  33.709  53.208  0.00  0.00    -0.265 OA
BRANCH  11  13
ATOM     13  C   UNL d   1      49.601  34.485  52.122  0.00  0.00     0.058 A 
ATOM     14  C   UNL d   1      49.095  35.019  52.512  0.00  0.00     0.005 A 
ATOM     15  C   UNL d   1      48.464  35.360  52.103  0.00  0.00     0.000 A 
ATOM     16  C   UNL d   1      48.337  35.167  51.304  0.00  0.00     0.000 A 
ATOM     17  C   UNL d   1      48.836  34.645  50.931  0.00  0.00     0.000 A 
ATOM     18  C   UNL d   1      49.468  34.304  51.340  0.00  0.00     0.005 A 
ENDBRANCH  11  13
ENDBRANCH   1  10
BRANCH   6  19
ATOM     19  C   UNL d   1      54.291  33.157  54.820  0.00  0.00     0.296 C 
ATOM     20  O   UNL d   1      54.240  32.672  55.476  0.00  0.00    -0.259 OA
BRANCH  19  21
ATOM     21  O   UNL d   1      54.927  33.686  54.737  0.00  0.00    -0.296 OA
ATOM     22  C   UNL d   1      55.443  33.799  55.365  0.00  0.00     0.185 C 
ENDBRANCH  19  21
ENDBRANCH   6  19
TORSDOF 4
ENDMDL
MODEL 2
REMARK VINA RESULT:      -7.8      1.310      5.172
REMARK  4 active torsions:
REMARK  status: ('A' for Active; 'I' for Inactive)
REMARK    1  A    between atoms: N_3  and  C_1 
REMARK       I    between atoms: C_5  and  N_3 
REMARK    2  A    between atoms: C_15  and  C_5 
REMARK    3  A    between atoms: C_8  and  C_9 
REMARK    4  A    between atoms: O_16  and  C_8 
ROOT
ATOM      1  C   UNL d   1      51.470  33.846  53.171  0.00  0.00     0.197 A 
ATOM      2  N   UNL d   1      51.328  33.738  52.357  0.00  0.00    -0.221 NA
ATOM      3  S   UNL d   1      50.837  34.269  53.484  0.00  0.00    -0.047 SA
ATOM      4  C   UNL d   1      50.298  34.428  52.877  0.00  0.00     0.050 A 
ATOM      5  C   UNL d   1      50.605  34.098  52.174  0.00  0.00     0.090 A 
ATOM      6  C   UNL d   1      49.164  34.894  52.163  0.00  0.00     0.064 A 
ATOM      7  C   UNL d   1      49.576  34.827  52.865  0.00  0.00     0.013 A 
ATOM      8  C   UNL d   1      50.183  34.172  51.474  0.00  0.00     0.020 A 
ATOM      9  C   UNL d   1      49.471  34.564  51.460  0.00  0.00     0.007 A 
ENDROOT
BRANCH   1  10
ATOM     10  N   UNL d   1      52.131  33.574  53.587  0.00  0.00    -0.183 NA
ATOM     11  C   UNL d   1      52.830  34.012  53.584  0.00  0.00     0.281 C 
ATOM     12  O   UNL d   1      52.868  34.722  53.165  0.00  0.00    -0.265 OA
BRANCH  11  13
ATOM     13  C   UNL d   1      53.480  33.745  53.993  0.00  0.00     0.058 A 
ATOM     14  C   UNL d   1      53.989  33.188  53.643  0.00  0.00     0.005 A 
ATOM     15  C   UNL d   1      54.650  32.917  54.058  0.00  0.00     0.000 A 
ATOM     16  C   UNL d   1      54.801  33.202  54.825  0.00  0.00     0.000 A 
ATOM     17  C   UNL d   1      54.297  33.746  55.160  0.00  0.00     0.000 A 
ATOM     18  C   UNL d   1      53.637  34.018  54.744  0.00  0.00     0.005 A 
ENDBRANCH  11  13
ENDBRANCH   1  10
BRANCH   6  19
ATOM     19  C   UNL d   1      48.440  35.290  52.136  0.00  0.00     0.296 C 
ATOM     20  O   UNL d   1      47.955  35.227  51.482  0.00  0.00    -0.259 OA
BRANCH  19  21
ATOM     21  O   UNL d   1      48.211  35.755  52.786  0.00  0.00    -0.296 OA
ATOM     22  C   UNL d   1      47.516  36.189  52.747  0.00  0.00     0.185 C 
ENDBRANCH  19  21
ENDBRANCH   6  19
TORSDOF 4
ENDMDL
MODEL 3
REMARK VINA RESULT:      -7.5      1.435      2.061
REMARK  4 active torsions:
REMARK  status: ('A' for Active; 'I' for Inactive)
REMARK    1  A    between atoms: N_3  and  C_1 
REMARK       I    between atoms: C_5  and  N_3 
REMARK    2  A    between atoms: C_15  and  C_5 
REMARK    3  A    between atoms: C_8  and  C_9 
REMARK    4  A    between atoms: O_16  and  C_8 
ROOT
ATOM      1  C   UNL d   1      50.583  34.293  53.058  0.00  0.00     0.197 A 
ATOM      2  N   UNL d   1      51.345  34.587  52.894  0.00  0.00    -0.221 NA
ATOM      3  S   UNL d   1      50.652  33.489  53.220  0.00  0.00    -0.047 SA
ATOM      4  C   UNL d   1      51.448  33.273  53.159  0.00  0.00     0.050 A 
ATOM      5  C   UNL d   1      51.880  33.958  52.957  0.00  0.00     0.090 A 
ATOM      6  C   UNL d   1      52.648  32.516  53.161  0.00  0.00     0.064 A 
ATOM      7  C   UNL d   1      51.838  32.554  53.260  0.00  0.00     0.013 A 
ATOM      8  C   UNL d   1      52.694  33.909  52.859  0.00  0.00     0.020 A 
ATOM      9  C   UNL d   1      53.080  33.201  52.958  0.00  0.00     0.007 A 
ENDROOT
BRANCH   1  10
ATOM     10  N   UNL d   1      49.883  34.734  53.057  0.00  0.00    -0.183 NA
ATOM     11  C   UNL d   1      49.438  34.802  52.366  0.00  0.00     0.281 C 
ATOM     12  O   UNL d   1      49.692  34.429  51.676  0.00  0.00    -0.265 OA
BRANCH  11  13
ATOM     13  C   UNL d   1      48.751  35.236  52.366  0.00  0.00     0.058 A 
ATOM     14  C   UNL d   1      48.247  35.213  51.703  0.00  0.00     0.005 A 
ATOM     15  C   UNL d   1      47.549  35.654  51.702  0.00  0.00     0.000 A 
ATOM     16  C   UNL d   1      47.353  36.118  52.364  0.00  0.00     0.000 A 
ATOM     17  C   UNL d   1      47.851  36.135  53.007  0.00  0.00     0.000 A 
ATOM     18  C   UNL d   1      48.549  35.694  53.008  0.00  0.00     0.005 A 
ENDBRANCH  11  13
ENDBRANCH   1  10
BRANCH   6  19
ATOM     19  C   UNL d   1      53.051  31.803  53.258  0.00  0.00     0.296 C 
ATOM     20  O   UNL d   1      53.695  31.754  53.758  0.00  0.00    -0.259 OA
BRANCH  19  21
ATOM     21  O   UNL d   1      52.792  31.133  52.840  0.00  0.00    -0.296 OA
ATOM     22  C   UNL d   1      53.116  30.399  53.012  0.00  0.00     0.185 C 
ENDBRANCH  19  21
ENDBRANCH   6  19
TORSDOF 4
ENDMDL
MODEL 4
REMARK VINA RESULT:      -5.6     10.895     11.583
REMARK  4 active torsions:
REMARK  status: ('A' for Active; 'I' for Inactive)
REMARK    1  A    between atoms: N_3  and  C_1 
REMARK       I    between atoms: C_5  and  N_3 
REMARK    2  A    between atoms: C_15  and  C_5 
REMARK    3  A    between atoms: C_8  and  C_9 
REMARK    4  A    between atoms: O_16  and  C_8 
ROOT
ATOM      1  C   UNL d   1      44.512  26.190  56.471  0.00  0.00     0.197 A 
ATOM      2  N   UNL d   1      44.391  26.007  55.667  0.00  0.00    -0.221 NA
ATOM      3  S   UNL d   1      44.706  25.491  56.862  0.00  0.00    -0.047 SA
ATOM      4  C   UNL d   1      44.709  24.872  56.314  0.00  0.00     0.050 A 
ATOM      5  C   UNL d   1      44.512  25.194  55.569  0.00  0.00     0.090 A 
ATOM      6  C   UNL d   1      44.819  23.584  55.729  0.00  0.00     0.064 A 
ATOM      7  C   UNL d   1      44.861  24.065  56.388  0.00  0.00     0.013 A 
ATOM      8  C   UNL d   1      44.472  24.702  54.913  0.00  0.00     0.020 A 
ATOM      9  C   UNL d   1      44.622  23.906  54.984  0.00  0.00     0.007 A 
ENDROOT
BRANCH   1  10
ATOM     10  N   UNL d   1      44.448  26.941  56.812  0.00  0.00    -0.183 NA
ATOM     11  C   UNL d   1      45.117  27.417  56.891  0.00  0.00     0.281 C 
ATOM     12  O   UNL d   1      45.850  27.143  56.629  0.00  0.00    -0.265 OA
BRANCH  11  13
ATOM     13  C   UNL d   1      45.054  28.155  57.226  0.00  0.00     0.058 A 
ATOM     14  C   UNL d   1      44.830  28.805  56.757  0.00  0.00     0.005 A 
ATOM     15  C   UNL d   1      44.766  29.555  57.097  0.00  0.00     0.000 A 
ATOM     16  C   UNL d   1      44.925  29.656  57.907  0.00  0.00     0.000 A 
ATOM     17  C   UNL d   1      45.143  29.014  58.358  0.00  0.00     0.000 A 
ATOM     18  C   UNL d   1      45.207  28.265  58.018  0.00  0.00     0.005 A 
ENDBRANCH  11  13
ENDBRANCH   1  10
BRANCH   6  19
ATOM     19  C   UNL d   1      44.969  22.775  55.788  0.00  0.00     0.296 C 
ATOM     20  O   UNL d   1      44.354  22.237  55.805  0.00  0.00    -0.259 OA
BRANCH  19  21
ATOM     21  O   UNL d   1      45.757  22.514  55.831  0.00  0.00    -0.296 OA
ATOM     22  C   UNL d   1      45.913  21.710  55.887  0.00  0.00     0.185 C 
ENDBRANCH  19  21
ENDBRANCH   6  19
TORSDOF 4
ENDMDL
MODEL 5
REMARK VINA RESULT:      -5.4     10.172     11.126
REMARK  4 active torsions:
REMARK  status: ('A' for Active; 'I' for Inactive)
REMARK    1  A    between atoms: N_3  and  C_1 
REMARK       I    between atoms: C_5  and  N_3 
REMARK    2  A    between atoms: C_15  and  C_5 
REMARK    3  A    between atoms: C_8  and  C_9 
REMARK    4  A    between atoms: O_16  and  C_8 
ROOT
ATOM      1  C   UNL d   1      44.470  30.280  59.707  0.00  0.00     0.197 A 
ATOM      2  N   UNL d   1      44.723  30.685  59.024  0.00  0.00    -0.221 NA
ATOM      3  S   UNL d   1      44.405  29.482  59.517  0.00  0.00    -0.047 SA
ATOM      4  C   UNL d   1      44.613  29.380  58.724  0.00  0.00     0.050 A 
ATOM      5  C   UNL d   1      44.811  30.130  58.416  0.00  0.00     0.090 A 
ATOM      6  C   UNL d   1      44.881  28.791  57.461  0.00  0.00     0.064 A 
ATOM      7  C   UNL d   1      44.650  28.712  58.241  0.00  0.00     0.013 A 
ATOM      8  C   UNL d   1      45.042  30.198  57.631  0.00  0.00     0.020 A 
ATOM      9  C   UNL d   1      45.079  29.541  57.153  0.00  0.00     0.007 A 
ENDROOT
BRANCH   1  10
ATOM     10  N   UNL d   1      44.314  30.623  60.443  0.00  0.00    -0.183 NA
ATOM     11  C   UNL d   1      44.800  30.456  61.088  0.00  0.00     0.281 C 
ATOM     12  O   UNL d   1      45.442  29.946  60.998  0.00  0.00    -0.265 OA
BRANCH  11  13
ATOM     13  C   UNL d   1      44.647  30.793  61.812  0.00  0.00     0.058 A 
ATOM     14  C   UNL d   1      44.661  30.324  62.499  0.00  0.00     0.005 A 
ATOM     15  C   UNL d   1      44.505  30.667  63.234  0.00  0.00     0.000 A 
ATOM     16  C   UNL d   1      44.335  31.479  63.283  0.00  0.00     0.000 A 
ATOM     17  C   UNL d   1      44.323  31.931  62.606  0.00  0.00     0.000 A 
ATOM     18  C   UNL d   1      44.479  31.588  61.871  0.00  0.00     0.005 A 
ENDBRANCH  11  13
ENDBRANCH   1  10
BRANCH   6  19
ATOM     19  C   UNL d   1      44.922  28.132  56.966  0.00  0.00     0.296 C 
ATOM     20  O   UNL d   1      44.497  28.107  56.268  0.00  0.00    -0.259 OA
BRANCH  19  21
ATOM     21  O   UNL d   1      45.404  27.492  57.187  0.00  0.00    -0.296 OA
ATOM     22  C   UNL d   1      45.378  26.797  56.751  0.00  0.00     0.185 C 
ENDBRANCH  19  21
ENDBRANCH   6  19
TORSDOF 4
ENDMDL
MODEL 6
REMARK VINA RESULT:      -5.3     11.167     11.724
REMARK  4 active torsions:
REMARK  status: ('A' for Active; 'I' for Inactive)
REMARK    1  A    between atoms: N_3  and  C_1 
REMARK       I    between atoms: C_5  and  N_3 
REMARK    2  A    between atoms: C_15  and  C_5 
REMARK    3  A    between atoms: C_8  and  C_9 
REMARK    4  A    between atoms: O_16  and  C_8 
ROOT
ATOM      1  C   UNL d   1      44.407  26.836  58.013  0.00  0.00     0.197 A 
ATOM      2  N   UNL d   1      44.314  26.395  57.312  0.00  0.00    -0.221 NA
ATOM      3  S   UNL d   1      44.557  26.307  58.626  0.00  0.00    -0.047 SA
ATOM      4  C   UNL d   1      44.560  25.540  58.319  0.00  0.00     0.050 A 
ATOM      5  C   UNL d   1      44.409  25.595  57.499  0.00  0.00     0.090 A 
ATOM      6  C   UNL d   1      44.647  24.128  58.208  0.00  0.00     0.064 A 
ATOM      7  C   UNL d   1      44.678  24.802  58.668  0.00  0.00     0.013 A 
ATOM      8  C   UNL d   1      44.379  24.911  57.046  0.00  0.00     0.020 A 
ATOM      9  C   UNL d   1      44.496  24.183  57.389  0.00  0.00     0.007 A 
ENDROOT
BRANCH   1  10
ATOM     10  N   UNL d   1      44.356  27.659  58.078  0.00  0.00    -0.183 NA
ATOM     11  C   UNL d   1      45.019  28.127  57.931  0.00  0.00     0.281 C 
ATOM     12  O   UNL d   1      45.733  27.773  57.719  0.00  0.00    -0.265 OA
BRANCH  11  13
ATOM     13  C   UNL d   1      44.970  28.936  57.994  0.00  0.00     0.058 A 
ATOM     14  C   UNL d   1      45.114  29.303  58.727  0.00  0.00     0.005 A 
ATOM     15  C   UNL d   1      45.064  30.125  58.791  0.00  0.00     0.000 A 
ATOM     16  C   UNL d   1      44.868  30.581  58.123  0.00  0.00     0.000 A 
ATOM     17  C   UNL d   1      44.728  30.213  57.411  0.00  0.00     0.000 A 
ATOM     18  C   UNL d   1      44.779  29.391  57.347  0.00  0.00     0.005 A 
ENDBRANCH  11  13
ENDBRANCH   1  10
BRANCH   6  19
ATOM     19  C   UNL d   1      44.764  23.383  58.544  0.00  0.00     0.296 C 
ATOM     20  O   UNL d   1      44.315  23.138  59.181  0.00  0.00    -0.259 OA
BRANCH  19  21
ATOM     21  O   UNL d   1      45.346  22.883  58.224  0.00  0.00    -0.296 OA
ATOM     22  C   UNL d   1      45.460  22.138  58.547  0.00  0.00     0.185 C 
ENDBRANCH  19  21
ENDBRANCH   6  19
TORSDOF 4
ENDMDL
