MODEL 1
REMARK VINA RESULT:      79.3      0.000      0.000
REMARK  6 active torsions:
REMARK  status: ('A' for Active; 'I' for Inactive)
REMARK    1  A    between atoms: S_5  and  C_2 
REMARK    2  A    between atoms: C_15  and  S_5 
REMARK    3  A    between atoms: N_11  and  C_8 
REMARK    4  A    between atoms: C_16  and  N_11 
REMARK    5  A    between atoms: C_17  and  N_12 
REMARK    6  A    between atoms: C_24  and  C_17 
ROOT
ATOM      1  C   UNL d   1      46.020 -17.548  43.656  0.00  0.00     0.197 A 
ATOM      2  C   UNL d   1      45.793 -17.083  44.288  0.00  0.00     0.227 A 
ATOM      3  N   UNL d   1      46.018 -18.336  43.909  0.00  0.00    -0.192 N 
ATOM      4  N   UNL d   1      46.230 -17.366  42.876  0.00  0.00    -0.206 NA
ATOM      5  N   UNL d   1      45.652 -17.571  44.928  0.00  0.00    -0.115 NA
ATOM      6  N   UNL d   1      45.791 -18.354  44.696  0.00  0.00    -0.058 NA
ATOM      7  C   UNL d   1      46.437 -17.967  42.354  0.00  0.00     0.166 A 
ATOM      8  C   UNL d   1      46.436 -18.754  42.607  0.00  0.00     0.054 A 
ATOM      9  C   UNL d   1      46.228 -18.938  43.380  0.00  0.00     0.089 A 
ATOM     10  C   UNL d   1      46.644 -19.356  42.082  0.00  0.00     0.005 A 
ATOM     11  C   UNL d   1      46.226 -19.730  43.634  0.00  0.00     0.019 A 
ATOM     12  C   UNL d   1      46.642 -20.147  42.336  0.00  0.00     0.000 A 
ATOM     13  C   UNL d   1      46.433 -20.330  43.113  0.00  0.00     0.002 A 
ENDROOT
BRANCH   7  14
ATOM     14  N   UNL d   1      46.646 -17.772  41.574  0.00  0.00    -0.227 NA
BRANCH  14  15
ATOM     15  C   UNL d   1      46.060 -17.683  40.991  0.00  0.00     0.086 A 
ATOM     16  C   UNL d   1      45.267 -17.592  41.211  0.00  0.00     0.038 A 
ATOM     17  C   UNL d   1      44.686 -17.504  40.628  0.00  0.00     0.082 A 
ATOM     18  N   UNL d   1      44.902 -17.506  39.828  0.00  0.00    -0.302 N 
ATOM     19  C   UNL d   1      45.690 -17.596  39.614  0.00  0.00     0.082 A 
ATOM     20  C   UNL d   1      46.271 -17.685  40.197  0.00  0.00     0.038 A 
BRANCH  18  21
ATOM     21  C   UNL d   1      44.327 -17.418  39.246  0.00  0.00     0.080 C 
BRANCH  21  22
ATOM     22  C   UNL d   1      44.454 -16.893  38.620  0.00  0.00     0.018 A 
ATOM     23  C   UNL d   1      45.162 -16.919  38.202  0.00  0.00     0.002 A 
ATOM     24  C   UNL d   1      45.295 -16.400  37.578  0.00  0.00     0.000 A 
ATOM     25  C   UNL d   1      44.707 -15.842  37.369  0.00  0.00     0.000 A 
ATOM     26  C   UNL d   1      44.002 -15.823  37.792  0.00  0.00     0.000 A 
ATOM     27  C   UNL d   1      43.870 -16.345  38.418  0.00  0.00     0.002 A 
ENDBRANCH  21  22
ENDBRANCH  18  21
ENDBRANCH  14  15
ENDBRANCH   7  14
BRANCH   2  28
ATOM     28  S   UNL d   1      45.719 -16.260  44.283  0.00  0.00     0.231 S 
ATOM     29  O   UNL d   1      45.093 -16.320  43.746  0.00  0.00    -0.215 OA
ATOM     30  O   UNL d   1      46.343 -16.191  44.818  0.00  0.00    -0.215 OA
BRANCH  28  31
ATOM     31  C   UNL d   1      45.639 -15.439  44.272  0.00  0.00     0.090 A 
ATOM     32  C   UNL d   1      44.911 -15.099  44.424  0.00  0.00     0.011 A 
ATOM     33  C   UNL d   1      44.826 -14.278  44.414  0.00  0.00     0.001 A 
ATOM     34  C   UNL d   1      45.477 -13.799  44.251  0.00  0.00     0.000 A 
ATOM     35  C   UNL d   1      46.203 -14.143  44.099  0.00  0.00     0.001 A 
ATOM     36  C   UNL d   1      46.284 -14.959  44.109  0.00  0.00     0.011 A 
ENDBRANCH  28  31
ENDBRANCH   2  28
TORSDOF 6
ENDMDL
