MODEL 1
REMARK VINA RESULT:      -6.7      0.000      0.000
REMARK  7 active torsions:
REMARK  status: ('A' for Active; 'I' for Inactive)
REMARK    1  A    between atoms: C_2  and  C_1 
REMARK    2  A    between atoms: O_13  and  C_11 
REMARK    3  A    between atoms: C_18  and  O_13 
REMARK    4  A    between atoms: C_15  and  C_18 
REMARK       I    between atoms: N_21  and  C_15 
REMARK    5  A    between atoms: C_23  and  C_16 
REMARK    6  A    between atoms: C_26  and  N_21 
REMARK    7  A    between atoms: C_27  and  C_26 
ROOT
ATOM      1  C   UNL d   1      49.919  34.370  52.636  0.00  0.00     0.087 A 
ATOM      2  C   UNL d   1      50.536  34.790  52.988  0.00  0.00     0.201 A 
ATOM      3  C   UNL d   1      51.217  34.380  53.242  0.00  0.00     0.062 A 
ATOM      4  C   UNL d   1      49.972  33.557  52.537  0.00  0.00     0.128 A 
ATOM      5  C   UNL d   1      51.270  33.567  53.143  0.00  0.00     0.105 A 
ATOM      6  O   UNL d   1      50.644  33.136  52.786  0.00  0.00    -0.305 OA
ATOM      7  C   UNL d   1      51.834  34.800  53.593  0.00  0.00     0.007 A 
ATOM      8  C   UNL d   1      52.558  33.577  53.744  0.00  0.00     0.102 A 
ATOM      9  C   UNL d   1      51.941  33.146  53.391  0.00  0.00     0.050 A 
ATOM     10  C   UNL d   1      52.505  34.390  53.843  0.00  0.00     0.023 A 
ATOM     11  O   UNL d   1      50.483  35.603  53.087  0.00  0.00    -0.286 OA
ENDROOT
BRANCH   8  12
ATOM     12  O   UNL d   1      53.235  33.156  53.995  0.00  0.00    -0.302 OA
BRANCH  12  13
ATOM     13  C   UNL d   1      53.459  32.479  53.604  0.00  0.00     0.158 C 
ATOM     14  C   UNL d   1      53.521  32.462  52.779  0.00  0.00     0.032 C 
BRANCH  13  15
ATOM     15  C   UNL d   1      53.633  31.781  54.038  0.00  0.00     0.302 C 
ATOM     16  O   UNL d   1      53.982  31.843  54.777  0.00  0.00    -0.263 OA
ATOM     17  N   UNL d   1      53.446  31.064  53.708  0.00  0.00    -0.201 NA
BRANCH  17  18
ATOM     18  C   UNL d   1      53.586  30.399  54.067  0.00  0.00     0.148 C 
BRANCH  18  19
ATOM     19  C   UNL d   1      53.184  29.617  53.727  0.00  0.00     0.255 C 
ATOM     20  O   UNL d   1      53.100  28.933  54.176  0.00  0.00    -0.281 OA
ENDBRANCH  18  19
ENDBRANCH  17  18
ENDBRANCH  13  15
ENDBRANCH  12  13
ENDBRANCH   8  12
BRANCH  10  21
ATOM     21  C   UNL d   1      53.081  34.745  54.166  0.00  0.00     0.002 C 
ATOM     22  C   UNL d   1      53.019  35.467  54.379  0.00  0.00     0.000 C 
ENDBRANCH  10  21
BRANCH   1  23
ATOM     23  C   UNL d   1      49.243  34.780  52.384  0.00  0.00     0.116 A 
ATOM     24  N   UNL d   1      48.717  35.273  52.761  0.00  0.00    -0.238 NA
ATOM     25  C   UNL d   1      48.147  35.518  52.217  0.00  0.00     0.088 A 
ATOM     26  C   UNL d   1      47.490  36.029  52.345  0.00  0.00     0.021 C 
ATOM     27  C   UNL d   1      48.311  35.189  51.524  0.00  0.00     0.056 A 
ATOM     28  S   UNL d   1      49.003  34.713  51.598  0.00  0.00    -0.066 SA
ENDBRANCH   1  23
TORSDOF 7
ENDMDL
MODEL 2
REMARK VINA RESULT:      -6.3      1.601      5.295
REMARK  7 active torsions:
REMARK  status: ('A' for Active; 'I' for Inactive)
REMARK    1  A    between atoms: C_2  and  C_1 
REMARK    2  A    between atoms: O_13  and  C_11 
REMARK    3  A    between atoms: C_18  and  O_13 
REMARK    4  A    between atoms: C_15  and  C_18 
REMARK       I    between atoms: N_21  and  C_15 
REMARK    5  A    between atoms: C_23  and  C_16 
REMARK    6  A    between atoms: C_26  and  N_21 
REMARK    7  A    between atoms: C_27  and  C_26 
ROOT
ATOM      1  C   UNL d   1      52.205  31.406  53.391  0.00  0.00     0.087 A 
ATOM      2  C   UNL d   1      52.568  32.148  53.396  0.00  0.00     0.201 A 
ATOM      3  C   UNL d   1      52.101  32.833  53.303  0.00  0.00     0.062 A 
ATOM      4  C   UNL d   1      51.393  31.341  53.296  0.00  0.00     0.128 A 
ATOM      5  C   UNL d   1      51.288  32.767  53.208  0.00  0.00     0.105 A 
ATOM      6  O   UNL d   1      50.915  32.014  53.203  0.00  0.00    -0.305 OA
ATOM      7  C   UNL d   1      52.464  33.573  53.308  0.00  0.00     0.007 A 
ATOM      8  C   UNL d   1      51.184  34.182  53.120  0.00  0.00     0.102 A 
ATOM      9  C   UNL d   1      50.810  33.440  53.114  0.00  0.00     0.050 A 
ATOM     10  C   UNL d   1      51.997  34.247  53.216  0.00  0.00     0.023 A 
ATOM     11  O   UNL d   1      53.381  32.213  53.491  0.00  0.00    -0.286 OA
ENDROOT
BRANCH   8  12
ATOM     12  O   UNL d   1      50.706  34.861  53.027  0.00  0.00    -0.302 OA
BRANCH  12  13
ATOM     13  C   UNL d   1      50.006  34.810  52.614  0.00  0.00     0.158 C 
ATOM     14  C   UNL d   1      49.942  34.340  51.936  0.00  0.00     0.032 C 
BRANCH  13  15
ATOM     15  C   UNL d   1      49.332  35.239  52.876  0.00  0.00     0.302 C 
ATOM     16  O   UNL d   1      49.326  35.556  53.631  0.00  0.00    -0.263 OA
ATOM     17  N   UNL d   1      48.707  35.323  52.366  0.00  0.00    -0.201 NA
BRANCH  17  18
ATOM     18  C   UNL d   1      48.070  35.707  52.561  0.00  0.00     0.148 C 
BRANCH  18  19
ATOM     19  C   UNL d   1      47.437  35.888  51.886  0.00  0.00     0.255 C 
ATOM     20  O   UNL d   1      46.758  36.331  52.026  0.00  0.00    -0.281 OA
ENDBRANCH  18  19
ENDBRANCH  17  18
ENDBRANCH  13  15
ENDBRANCH  12  13
ENDBRANCH   8  12
BRANCH  10  21
ATOM     21  C   UNL d   1      52.298  34.933  53.216  0.00  0.00     0.002 C 
ATOM     22  C   UNL d   1      52.920  35.081  53.619  0.00  0.00     0.000 C 
ENDBRANCH  10  21
BRANCH   1  23
ATOM     23  C   UNL d   1      52.673  30.727  53.484  0.00  0.00     0.116 A 
ATOM     24  N   UNL d   1      52.951  30.326  54.135  0.00  0.00    -0.238 NA
ATOM     25  C   UNL d   1      53.394  29.679  53.878  0.00  0.00     0.088 A 
ATOM     26  C   UNL d   1      53.793  29.102  54.344  0.00  0.00     0.021 C 
ATOM     27  C   UNL d   1      53.393  29.676  53.094  0.00  0.00     0.056 A 
ATOM     28  S   UNL d   1      52.942  30.330  52.813  0.00  0.00    -0.066 SA
ENDBRANCH   1  23
TORSDOF 7
ENDMDL
MODEL 3
REMARK VINA RESULT:      -5.2      2.402      5.997
REMARK  7 active torsions:
REMARK  status: ('A' for Active; 'I' for Inactive)
REMARK    1  A    between atoms: C_2  and  C_1 
REMARK    2  A    between atoms: O_13  and  C_11 
REMARK    3  A    between atoms: C_18  and  O_13 
REMARK    4  A    between atoms: C_15  and  C_18 
REMARK       I    between atoms: N_21  and  C_15 
REMARK    5  A    between atoms: C_23  and  C_16 
REMARK    6  A    between atoms: C_26  and  N_21 
REMARK    7  A    between atoms: C_27  and  C_26 
ROOT
ATOM      1  C   UNL d   1      50.553  34.293  52.610  0.00  0.00     0.087 A 
ATOM      2  C   UNL d   1      50.143  34.833  53.079  0.00  0.00     0.201 A 
ATOM      3  C   UNL d   1      49.405  35.124  52.819  0.00  0.00     0.062 A 
ATOM      4  C   UNL d   1      50.241  34.041  51.893  0.00  0.00     0.128 A 
ATOM      5  C   UNL d   1      49.093  34.872  52.102  0.00  0.00     0.105 A 
ATOM      6  O   UNL d   1      49.508  34.322  51.622  0.00  0.00    -0.305 OA
ATOM      7  C   UNL d   1      48.995  35.664  53.288  0.00  0.00     0.007 A 
ATOM      8  C   UNL d   1      47.953  35.696  52.309  0.00  0.00     0.102 A 
ATOM      9  C   UNL d   1      48.360  35.152  51.830  0.00  0.00     0.050 A 
ATOM     10  C   UNL d   1      48.266  35.948  53.025  0.00  0.00     0.023 A 
ATOM     11  O   UNL d   1      50.455  35.085  53.795  0.00  0.00    -0.286 OA
ENDROOT
BRANCH   8  12
ATOM     12  O   UNL d   1      47.215  35.980  52.038  0.00  0.00    -0.302 OA
BRANCH  12  13
ATOM     13  C   UNL d   1      46.823  35.586  51.444  0.00  0.00     0.158 C 
ATOM     14  C   UNL d   1      47.235  35.138  50.883  0.00  0.00     0.032 C 
BRANCH  13  15
ATOM     15  C   UNL d   1      45.986  35.630  51.392  0.00  0.00     0.302 C 
ATOM     16  O   UNL d   1      45.642  36.174  50.885  0.00  0.00    -0.263 OA
ATOM     17  N   UNL d   1      45.544  35.127  51.850  0.00  0.00    -0.201 NA
BRANCH  17  18
ATOM     18  C   UNL d   1      44.775  35.131  51.836  0.00  0.00     0.148 C 
BRANCH  18  19
ATOM     19  C   UNL d   1      44.316  34.958  52.642  0.00  0.00     0.255 C 
ATOM     20  O   UNL d   1      44.358  34.233  53.026  0.00  0.00    -0.281 OA
ENDBRANCH  18  19
ENDBRANCH  17  18
ENDBRANCH  13  15
ENDBRANCH  12  13
ENDBRANCH   8  12
BRANCH  10  21
ATOM     21  C   UNL d   1      47.870  36.439  53.430  0.00  0.00     0.002 C 
ATOM     22  C   UNL d   1      47.932  36.457  54.183  0.00  0.00     0.000 C 
ENDBRANCH  10  21
BRANCH   1  23
ATOM     23  C   UNL d   1      51.287  34.006  52.871  0.00  0.00     0.116 A 
ATOM     24  N   UNL d   1      52.018  34.349  52.966  0.00  0.00    -0.238 NA
ATOM     25  C   UNL d   1      52.543  33.779  53.249  0.00  0.00     0.088 A 
ATOM     26  C   UNL d   1      53.361  33.869  53.433  0.00  0.00     0.021 C 
ATOM     27  C   UNL d   1      52.154  33.103  53.328  0.00  0.00     0.056 A 
ATOM     28  S   UNL d   1      51.352  33.214  53.096  0.00  0.00    -0.066 SA
ENDBRANCH   1  23
TORSDOF 7
ENDMDL
MODEL 4
REMARK VINA RESULT:      -5.1      1.991      2.692
REMARK  7 active torsions:
REMARK  status: ('A' for Active; 'I' for Inactive)
REMARK    1  A    between atoms: C_2  and  C_1 
REMARK    2  A    between atoms: O_13  and  C_11 
REMARK    3  A    between atoms: C_18  and  O_13 
REMARK    4  A    between atoms: C_15  and  C_18 
REMARK       I    between atoms: N_21  and  C_15 
REMARK    5  A    between atoms: C_23  and  C_16 
REMARK    6  A    between atoms: C_26  and  N_21 
REMARK    7  A    between atoms: C_27  and  C_26 
ROOT
ATOM      1  C   UNL d   1      48.680  35.333  52.575  0.00  0.00     0.087 A 
ATOM      2  C   UNL d   1      49.198  34.790  52.233  0.00  0.00     0.201 A 
ATOM      3  C   UNL d   1      49.921  34.618  52.614  0.00  0.00     0.062 A 
ATOM      4  C   UNL d   1      48.871  35.703  53.282  0.00  0.00     0.128 A 
ATOM      5  C   UNL d   1      50.112  34.988  53.321  0.00  0.00     0.105 A 
ATOM      6  O   UNL d   1      49.586  35.542  53.672  0.00  0.00    -0.305 OA
ATOM      7  C   UNL d   1      50.439  34.075  52.272  0.00  0.00     0.007 A 
ATOM      8  C   UNL d   1      51.343  34.279  53.360  0.00  0.00     0.102 A 
ATOM      9  C   UNL d   1      50.827  34.828  53.712  0.00  0.00     0.050 A 
ATOM     10  C   UNL d   1      51.152  33.909  52.653  0.00  0.00     0.023 A 
ATOM     11  O   UNL d   1      49.007  34.420  51.525  0.00  0.00    -0.286 OA
ENDROOT
BRANCH   8  12
ATOM     12  O   UNL d   1      52.064  34.115  53.751  0.00  0.00    -0.302 OA
BRANCH  12  13
ATOM     13  C   UNL d   1      52.570  34.724  53.937  0.00  0.00     0.158 C 
ATOM     14  C   UNL d   1      52.620  35.400  53.463  0.00  0.00     0.032 C 
BRANCH  13  15
ATOM     15  C   UNL d   1      53.055  34.672  54.621  0.00  0.00     0.302 C 
ATOM     16  O   UNL d   1      52.899  35.158  55.263  0.00  0.00    -0.263 OA
ATOM     17  N   UNL d   1      53.666  34.139  54.623  0.00  0.00    -0.201 NA
BRANCH  17  18
ATOM     18  C   UNL d   1      54.135  34.056  55.226  0.00  0.00     0.148 C 
BRANCH  18  19
ATOM     19  C   UNL d   1      54.938  33.576  55.102  0.00  0.00     0.255 C 
ATOM     20  O   UNL d   1      55.659  33.840  55.396  0.00  0.00    -0.281 OA
ENDBRANCH  18  19
ENDBRANCH  17  18
ENDBRANCH  13  15
ENDBRANCH  12  13
ENDBRANCH   8  12
BRANCH  10  21
ATOM     21  C   UNL d   1      51.642  33.420  52.367  0.00  0.00     0.002 C 
ATOM     22  C   UNL d   1      51.458  32.692  52.284  0.00  0.00     0.000 C 
ENDBRANCH  10  21
BRANCH   1  23
ATOM     23  C   UNL d   1      47.962  35.502  52.194  0.00  0.00     0.116 A 
ATOM     24  N   UNL d   1      47.482  35.075  51.695  0.00  0.00    -0.238 NA
ATOM     25  C   UNL d   1      46.832  35.540  51.491  0.00  0.00     0.088 A 
ATOM     26  C   UNL d   1      46.185  35.341  50.989  0.00  0.00     0.021 C 
ATOM     27  C   UNL d   1      46.903  36.234  51.850  0.00  0.00     0.056 A 
ATOM     28  S   UNL d   1      47.612  36.241  52.305  0.00  0.00    -0.066 SA
ENDBRANCH   1  23
TORSDOF 7
ENDMDL
MODEL 5
REMARK VINA RESULT:      -4.7      1.922      3.584
REMARK  7 active torsions:
REMARK  status: ('A' for Active; 'I' for Inactive)
REMARK    1  A    between atoms: C_2  and  C_1 
REMARK    2  A    between atoms: O_13  and  C_11 
REMARK    3  A    between atoms: C_18  and  O_13 
REMARK    4  A    between atoms: C_15  and  C_18 
REMARK       I    between atoms: N_21  and  C_15 
REMARK    5  A    between atoms: C_23  and  C_16 
REMARK    6  A    between atoms: C_26  and  N_21 
REMARK    7  A    between atoms: C_27  and  C_26 
ROOT
ATOM      1  C   UNL d   1      47.255  35.923  53.530  0.00  0.00     0.087 A 
ATOM      2  C   UNL d   1      47.475  35.622  52.794  0.00  0.00     0.201 A 
ATOM      3  C   UNL d   1      48.257  35.351  52.680  0.00  0.00     0.062 A 
ATOM      4  C   UNL d   1      47.797  35.958  54.146  0.00  0.00     0.128 A 
ATOM      5  C   UNL d   1      48.799  35.386  53.296  0.00  0.00     0.105 A 
ATOM      6  O   UNL d   1      48.578  35.692  54.046  0.00  0.00    -0.305 OA
ATOM      7  C   UNL d   1      48.477  35.050  51.945  0.00  0.00     0.007 A 
ATOM      8  C   UNL d   1      49.792  34.819  52.452  0.00  0.00     0.102 A 
ATOM      9  C   UNL d   1      49.579  35.121  53.197  0.00  0.00     0.050 A 
ATOM     10  C   UNL d   1      49.250  34.784  51.837  0.00  0.00     0.023 A 
ATOM     11  O   UNL d   1      46.933  35.587  52.179  0.00  0.00    -0.286 OA
ENDROOT
BRANCH   8  12
ATOM     12  O   UNL d   1      50.578  34.551  52.349  0.00  0.00    -0.302 OA
BRANCH  12  13
ATOM     13  C   UNL d   1      50.927  34.091  52.922  0.00  0.00     0.158 C 
ATOM     14  C   UNL d   1      50.483  33.555  53.370  0.00  0.00     0.032 C 
BRANCH  13  15
ATOM     15  C   UNL d   1      51.752  34.154  53.067  0.00  0.00     0.302 C 
ATOM     16  O   UNL d   1      52.104  34.894  53.068  0.00  0.00    -0.263 OA
ATOM     17  N   UNL d   1      52.173  33.475  53.203  0.00  0.00    -0.201 NA
BRANCH  17  18
ATOM     18  C   UNL d   1      52.930  33.484  53.340  0.00  0.00     0.148 C 
BRANCH  18  19
ATOM     19  C   UNL d   1      53.356  32.665  53.535  0.00  0.00     0.255 C 
ATOM     20  O   UNL d   1      53.797  32.254  52.975  0.00  0.00    -0.281 OA
ENDBRANCH  18  19
ENDBRANCH  17  18
ENDBRANCH  13  15
ENDBRANCH  12  13
ENDBRANCH   8  12
BRANCH  10  21
ATOM     21  C   UNL d   1      49.479  34.506  51.180  0.00  0.00     0.002 C 
ATOM     22  C   UNL d   1      48.979  34.254  50.672  0.00  0.00     0.000 C 
ENDBRANCH  10  21
BRANCH   1  23
ATOM     23  C   UNL d   1      46.478  36.191  53.641  0.00  0.00     0.116 A 
ATOM     24  N   UNL d   1      45.828  36.234  53.153  0.00  0.00    -0.238 NA
ATOM     25  C   UNL d   1      45.199  36.556  53.579  0.00  0.00     0.088 A 
ATOM     26  C   UNL d   1      44.414  36.709  53.313  0.00  0.00     0.021 C 
ATOM     27  C   UNL d   1      45.446  36.709  54.307  0.00  0.00     0.056 A 
ATOM     28  S   UNL d   1      46.256  36.488  54.378  0.00  0.00    -0.066 SA
ENDBRANCH   1  23
TORSDOF 7
ENDMDL
