MODEL 1
REMARK VINA RESULT:      44.0      0.000      0.000
REMARK  6 active torsions:
REMARK  status: ('A' for Active; 'I' for Inactive)
REMARK    1  A    between atoms: C_6  and  N_1 
REMARK    2  A    between atoms: S_7  and  C_2 
REMARK    3  A    between atoms: C_12  and  S_7 
REMARK    4  A    between atoms: C_8  and  O_9 
REMARK    5  A    between atoms: O_9  and  C_13 
REMARK    6  A    between atoms: C_13  and  C_12 
ROOT
ATOM      1  N   UNL d   1      56.682  49.458  50.152  0.00  0.00    -0.186 N 
ATOM      2  C   UNL d   1      57.310  49.143  49.745  0.00  0.00     0.219 A 
ATOM      3  N   UNL d   1      57.121  49.171  48.923  0.00  0.00    -0.101 NA
ATOM      4  N   UNL d   1      56.390  49.498  48.835  0.00  0.00    -0.022 NA
ATOM      5  N   UNL d   1      56.100  49.683  49.584  0.00  0.00    -0.038 NA
ENDROOT
BRANCH   2   6
ATOM      6  S   UNL d   1      58.031  48.839  50.083  0.00  0.00    -0.044 SA
BRANCH   6   7
ATOM      7  C   UNL d   1      58.757  49.072  49.769  0.00  0.00     0.065 C 
BRANCH   7   8
ATOM      8  C   UNL d   1      59.391  49.269  50.282  0.00  0.00     0.130 C 
BRANCH   8   9
ATOM      9  O   UNL d   1      59.875  48.676  50.576  0.00  0.00    -0.305 OA
BRANCH   9  10
ATOM     10  C   UNL d   1      60.521  48.849  51.075  0.00  0.00     0.100 A 
ATOM     11  C   UNL d   1      61.140  48.293  51.142  0.00  0.00     0.025 A 
ATOM     12  C   UNL d   1      61.787  48.447  51.631  0.00  0.00     0.002 A 
ATOM     13  C   UNL d   1      61.823  49.149  52.055  0.00  0.00     0.000 A 
ATOM     14  C   UNL d   1      61.217  49.702  51.995  0.00  0.00     0.002 A 
ATOM     15  C   UNL d   1      60.557  49.556  51.502  0.00  0.00     0.025 A 
ENDBRANCH   9  10
ENDBRANCH   8   9
ENDBRANCH   7   8
ENDBRANCH   6   7
ENDBRANCH   2   6
BRANCH   1  16
ATOM     16  C   UNL d   1      56.711  49.504  50.990  0.00  0.00     0.087 A 
ATOM     17  C   UNL d   1      57.460  49.666  51.374  0.00  0.00     0.019 A 
ATOM     18  C   UNL d   1      57.469  49.708  52.199  0.00  0.00     0.002 A 
ATOM     19  C   UNL d   1      56.768  49.594  52.648  0.00  0.00     0.000 A 
ATOM     20  C   UNL d   1      56.061  49.440  52.261  0.00  0.00     0.002 A 
ATOM     21  C   UNL d   1      56.033  49.395  51.438  0.00  0.00     0.019 A 
ENDBRANCH   1  16
TORSDOF 6
ENDMDL
MODEL 2
REMARK VINA RESULT:      46.1      1.406      2.267
REMARK  6 active torsions:
REMARK  status: ('A' for Active; 'I' for Inactive)
REMARK    1  A    between atoms: C_6  and  N_1 
REMARK    2  A    between atoms: S_7  and  C_2 
REMARK    3  A    between atoms: C_12  and  S_7 
REMARK    4  A    between atoms: C_8  and  O_9 
REMARK    5  A    between atoms: O_9  and  C_13 
REMARK    6  A    between atoms: C_13  and  C_12 
ROOT
ATOM      1  N   UNL d   1      57.156  49.474  51.185  0.00  0.00    -0.186 N 
ATOM      2  C   UNL d   1      57.944  49.575  51.351  0.00  0.00     0.219 A 
ATOM      3  N   UNL d   1      58.016  49.708  52.181  0.00  0.00    -0.101 NA
ATOM      4  N   UNL d   1      57.282  49.688  52.512  0.00  0.00    -0.022 NA
ATOM      5  N   UNL d   1      56.734  49.545  51.912  0.00  0.00    -0.038 NA
ENDROOT
BRANCH   2   6
ATOM      6  S   UNL d   1      58.586  49.551  50.789  0.00  0.00    -0.044 SA
BRANCH   6   7
ATOM      7  C   UNL d   1      59.354  49.416  51.057  0.00  0.00     0.065 C 
BRANCH   7   8
ATOM      8  C   UNL d   1      60.007  49.707  50.619  0.00  0.00     0.130 C 
BRANCH   8   9
ATOM      9  O   UNL d   1      60.768  49.489  50.830  0.00  0.00    -0.305 OA
BRANCH   9  10
ATOM     10  C   UNL d   1      61.045  48.710  50.716  0.00  0.00     0.100 A 
ATOM     11  C   UNL d   1      61.834  48.593  50.468  0.00  0.00     0.025 A 
ATOM     12  C   UNL d   1      62.124  47.830  50.349  0.00  0.00     0.002 A 
ATOM     13  C   UNL d   1      61.637  47.181  50.476  0.00  0.00     0.000 A 
ATOM     14  C   UNL d   1      60.859  47.287  50.720  0.00  0.00     0.002 A 
ATOM     15  C   UNL d   1      60.554  48.056  50.843  0.00  0.00     0.025 A 
ENDBRANCH   9  10
ENDBRANCH   8   9
ENDBRANCH   7   8
ENDBRANCH   6   7
ENDBRANCH   2   6
BRANCH   1  16
ATOM     16  C   UNL d   1      56.911  49.331  50.394  0.00  0.00     0.087 A 
ATOM     17  C   UNL d   1      56.265  48.786  50.249  0.00  0.00     0.019 A 
ATOM     18  C   UNL d   1      56.040  48.657  49.466  0.00  0.00     0.002 A 
ATOM     19  C   UNL d   1      56.429  49.047  48.831  0.00  0.00     0.000 A 
ATOM     20  C   UNL d   1      57.044  49.564  48.991  0.00  0.00     0.002 A 
ATOM     21  C   UNL d   1      57.284  49.705  49.768  0.00  0.00     0.019 A 
ENDBRANCH   1  16
TORSDOF 6
ENDMDL
MODEL 3
REMARK VINA RESULT:      46.6      2.303      3.171
REMARK  6 active torsions:
REMARK  status: ('A' for Active; 'I' for Inactive)
REMARK    1  A    between atoms: C_6  and  N_1 
REMARK    2  A    between atoms: S_7  and  C_2 
REMARK    3  A    between atoms: C_12  and  S_7 
REMARK    4  A    between atoms: C_8  and  O_9 
REMARK    5  A    between atoms: O_9  and  C_13 
REMARK    6  A    between atoms: C_13  and  C_12 
ROOT
ATOM      1  N   UNL d   1      59.164  49.614  51.509  0.00  0.00    -0.186 N 
ATOM      2  C   UNL d   1      59.929  49.472  51.279  0.00  0.00     0.219 A 
ATOM      3  N   UNL d   1      60.410  49.477  51.972  0.00  0.00    -0.101 NA
ATOM      4  N   UNL d   1      59.942  49.619  52.612  0.00  0.00    -0.022 NA
ATOM      5  N   UNL d   1      59.166  49.708  52.348  0.00  0.00    -0.038 NA
ENDROOT
BRANCH   2   6
ATOM      6  S   UNL d   1      60.201  49.342  50.481  0.00  0.00    -0.044 SA
BRANCH   6   7
ATOM      7  C   UNL d   1      60.967  49.062  50.354  0.00  0.00     0.065 C 
BRANCH   7   8
ATOM      8  C   UNL d   1      61.085  48.336  49.950  0.00  0.00     0.130 C 
BRANCH   8   9
ATOM      9  O   UNL d   1      61.212  47.649  50.378  0.00  0.00    -0.305 OA
BRANCH   9  10
ATOM     10  C   UNL d   1      61.541  46.970  50.022  0.00  0.00     0.100 A 
ATOM     11  C   UNL d   1      61.072  46.282  49.953  0.00  0.00     0.025 A 
ATOM     12  C   UNL d   1      61.382  45.601  49.604  0.00  0.00     0.002 A 
ATOM     13  C   UNL d   1      62.153  45.597  49.324  0.00  0.00     0.000 A 
ATOM     14  C   UNL d   1      62.621  46.270  49.388  0.00  0.00     0.002 A 
ATOM     15  C   UNL d   1      62.319  46.966  49.740  0.00  0.00     0.025 A 
ENDBRANCH   9  10
ENDBRANCH   8   9
ENDBRANCH   7   8
ENDBRANCH   6   7
ENDBRANCH   2   6
BRANCH   1  16
ATOM     16  C   UNL d   1      58.554  49.643  50.932  0.00  0.00     0.087 A 
ATOM     17  C   UNL d   1      57.735  49.632  51.189  0.00  0.00     0.019 A 
ATOM     18  C   UNL d   1      57.150  49.661  50.607  0.00  0.00     0.002 A 
ATOM     19  C   UNL d   1      57.348  49.699  49.792  0.00  0.00     0.000 A 
ATOM     20  C   UNL d   1      58.136  49.708  49.567  0.00  0.00     0.002 A 
ATOM     21  C   UNL d   1      58.735  49.680  50.134  0.00  0.00     0.019 A 
ENDBRANCH   1  16
TORSDOF 6
ENDMDL
