MODEL 1
REMARK VINA RESULT:      12.2      0.000      0.000
REMARK  4 active torsions:
REMARK  status: ('A' for Active; 'I' for Inactive)
REMARK    1  A    between atoms: C_6  and  N_3 
REMARK    2  A    between atoms: C_13  and  N_4 
REMARK    3  A    between atoms: C_5  and  C_6 
REMARK       I    between atoms: N_10  and  C_5 
REMARK    4  A    between atoms: C_14  and  N_10 
ROOT
ATOM      1  C   UNL d   1      44.924 -15.101  44.742  0.00  0.00     0.322 A 
ATOM      2  C   UNL d   1      44.871 -14.301  44.549  0.00  0.00     0.322 A 
ATOM      3  N   UNL d   1      45.649 -15.484  44.724  0.00  0.00    -0.262 N 
ATOM      4  N   UNL d   1      45.544 -13.882  44.338  0.00  0.00    -0.267 N 
ATOM      5  C   UNL d   1      46.326 -15.065  44.512  0.00  0.00     0.102 A 
ATOM      6  O   UNL d   1      44.243 -15.521  44.955  0.00  0.00    -0.261 OA
ATOM      7  O   UNL d   1      44.138 -13.919  44.568  0.00  0.00    -0.261 OA
ATOM      8  C   UNL d   1      46.274 -14.265  44.319  0.00  0.00     0.102 A 
ENDROOT
BRANCH   3   9
ATOM      9  C   UNL d   1      45.701 -16.280  44.917  0.00  0.00     0.146 C 
BRANCH   9  10
ATOM     10  C   UNL d   1      45.973 -16.814  44.357  0.00  0.00     0.297 C 
ATOM     11  N   UNL d   1      45.904 -17.620  44.473  0.00  0.00    -0.207 NA
ATOM     12  O   UNL d   1      46.322 -16.527  43.666  0.00  0.00    -0.264 OA
BRANCH  11  13
ATOM     13  C   UNL d   1      46.179 -18.151  43.906  0.00  0.00     0.085 A 
ATOM     14  C   UNL d   1      46.416 -18.923  44.040  0.00  0.00     0.019 A 
ATOM     15  C   UNL d   1      46.646 -19.243  43.324  0.00  0.00     0.002 A 
ATOM     16  C   UNL d   1      46.554 -18.678  42.746  0.00  0.00     0.002 A 
ATOM     17  C   UNL d   1      46.262 -17.993  43.101  0.00  0.00     0.019 A 
ENDBRANCH  11  13
ENDBRANCH   9  10
ENDBRANCH   3   9
BRANCH   4  18
ATOM     18  C   UNL d   1      45.492 -13.082  44.144  0.00  0.00     0.083 C 
ATOM     19  C   UNL d   1      46.056 -12.550  44.433  0.00  0.00     0.021 C 
ENDBRANCH   4  18
TORSDOF 4
ENDMDL
