MODEL 1
REMARK VINA RESULT:      -4.3      0.000      0.000
REMARK  7 active torsions:
REMARK  status: ('A' for Active; 'I' for Inactive)
REMARK    1  A    between atoms: O_9  and  N_1 
REMARK    2  A    between atoms: C_8  and  O_11 
REMARK    3  A    between atoms: C_15  and  O_9 
REMARK    4  A    between atoms: O_11  and  C_16 
REMARK    5  A    between atoms: C_18  and  C_15 
REMARK    6  A    between atoms: C_16  and  C_17 
REMARK    7  A    between atoms: C_17  and  C_18 
ROOT
ATOM      1  N   UNL d   1     -41.454-122.452 -52.917  0.00  0.00    -0.139 N 
ATOM      2  C   UNL d   1     -41.398-123.049 -53.495  0.00  0.00     0.287 A 
ATOM      3  C   UNL d   1     -41.770-121.774 -53.277  0.00  0.00     0.287 A 
ATOM      4  C   UNL d   1     -41.679-122.736 -54.208  0.00  0.00     0.063 A 
ATOM      5  C   UNL d   1     -41.908-121.952 -54.074  0.00  0.00     0.063 A 
ATOM      6  O   UNL d   1     -41.933-121.035 -52.943  0.00  0.00    -0.265 OA
ATOM      7  O   UNL d   1     -41.123-123.817 -53.418  0.00  0.00    -0.265 OA
ATOM      8  C   UNL d   1     -42.212-121.499 -54.695  0.00  0.00     0.005 A 
ATOM      9  C   UNL d   1     -41.756-123.066 -54.962  0.00  0.00     0.005 A 
ATOM     10  C   UNL d   1     -42.288-121.829 -55.445  0.00  0.00     0.000 A 
ATOM     11  C   UNL d   1     -42.059-122.613 -55.579  0.00  0.00     0.000 A 
ENDROOT
BRANCH   1  12
ATOM     12  O   UNL d   1     -41.235-122.523 -52.126  0.00  0.00    -0.221 OA
BRANCH  12  13
ATOM     13  C   UNL d   1     -41.123-122.997 -51.458  0.00  0.00     0.148 C 
BRANCH  13  14
ATOM     14  C   UNL d   1     -41.287-122.689 -50.712  0.00  0.00     0.031 C 
BRANCH  14  15
ATOM     15  C   UNL d   1     -41.197-123.162 -50.044  0.00  0.00     0.029 C 
BRANCH  15  16
ATOM     16  C   UNL d   1     -41.667-123.028 -49.382  0.00  0.00     0.126 C 
BRANCH  16  17
ATOM     17  O   UNL d   1     -41.855-123.657 -48.882  0.00  0.00    -0.271 OA
BRANCH  17  18
ATOM     18  C   UNL d   1     -42.348-123.530 -48.236  0.00  0.00     0.300 C 
ATOM     19  O   UNL d   1     -43.168-123.540 -48.334  0.00  0.00    -0.259 OA
ATOM     20  C   UNL d   1     -42.024-123.392 -47.493  0.00  0.00     0.074 C 
ENDBRANCH  17  18
ENDBRANCH  16  17
ENDBRANCH  15  16
ENDBRANCH  14  15
ENDBRANCH  13  14
ENDBRANCH  12  13
ENDBRANCH   1  12
TORSDOF 7
ENDMDL
