MODEL 1
REMARK VINA RESULT:      21.8      0.000      0.000
REMARK  1 active torsions:
REMARK  status: ('A' for Active; 'I' for Inactive)
REMARK    1  A    between atoms: C_10  and  C_4 
ROOT
ATOM      1  C   UNL d   1     -51.290  25.849  33.309  0.00  0.00     0.111 A 
ATOM      2  C   UNL d   1     -50.464  24.668  33.309  0.00  0.00     0.062 A 
ATOM      3  C   UNL d   1     -50.634  26.319  33.308  0.00  0.00     0.213 A 
ATOM      4  C   UNL d   1     -51.216  24.999  33.310  0.00  0.00     0.018 A 
ATOM      5  C   UNL d   1     -49.776  25.170  33.307  0.00  0.00     0.105 A 
ATOM      6  O   UNL d   1     -49.850  25.956  33.306  0.00  0.00    -0.287 OA
ATOM      7  C   UNL d   1     -52.038  26.179  33.310  0.00  0.00     0.105 C 
ATOM      8  C   UNL d   1     -50.357  23.851  33.310  0.00  0.00     0.198 A 
ATOM      9  N   UNL d   1     -52.800  26.515  33.312  0.00  0.00    -0.191 NA
ATOM     10  N   UNL d   1     -50.693  27.166  33.307  0.00  0.00    -0.120 N 
ATOM     11  O   UNL d   1     -51.045  23.402  33.312  0.00  0.00    -0.286 OA
ATOM     12  C   UNL d   1     -49.013  24.834  33.306  0.00  0.00     0.025 A 
ATOM     13  C   UNL d   1     -49.609  23.522  33.309  0.00  0.00     0.042 A 
ATOM     14  C   UNL d   1     -48.930  23.992  33.307  0.00  0.00     0.005 A 
ENDROOT
BRANCH   4  15
ATOM     15  C   UNL d   1     -51.864  24.509  33.312  0.00  0.00     0.001 A 
ATOM     16  C   UNL d   1     -51.778  23.683  33.320  0.00  0.00     0.000 A 
ATOM     17  C   UNL d   1     -52.443  23.195  33.322  0.00  0.00     0.000 A 
ATOM     18  C   UNL d   1     -53.201  23.511  33.316  0.00  0.00     0.000 A 
ATOM     19  C   UNL d   1     -53.288  24.337  33.308  0.00  0.00     0.000 A 
ATOM     20  C   UNL d   1     -52.622  24.826  33.306  0.00  0.00     0.000 A 
ENDBRANCH   4  15
TORSDOF 1
ENDMDL
