MODEL 1
REMARK VINA RESULT:      13.6      0.000      0.000
REMARK  3 active torsions:
REMARK  status: ('A' for Active; 'I' for Inactive)
REMARK    1  A    between atoms: N_2  and  C_1 
REMARK    2  A    between atoms: N_3  and  C_1 
REMARK       I    between atoms: C_4  and  N_3 
REMARK    3  A    between atoms: C_9  and  C_4 
ROOT
ATOM      1  C   UNL d   1      46.050 -17.464  44.127  0.00  0.00     0.209 C 
ATOM      2  S   UNL d   1      45.850 -17.842  44.823  0.00  0.00    -0.038 SA
ENDROOT
BRANCH   1   3
ATOM      3  N   UNL d   1      46.213 -17.905  43.457  0.00  0.00    -0.282 N 
ATOM      4  C   UNL d   1      46.348 -18.719  43.521  0.00  0.00     0.066 A 
ATOM      5  C   UNL d   1      46.511 -19.155  42.841  0.00  0.00     0.016 A 
ATOM      6  C   UNL d   1      46.319 -19.089  44.259  0.00  0.00     0.018 A 
ATOM      7  C   UNL d   1      46.646 -19.964  42.895  0.00  0.00     0.001 A 
ATOM      8  C   UNL d   1      46.541 -18.780  42.093  0.00  0.00     0.003 A 
ATOM      9  C   UNL d   1      46.618 -20.330  43.625  0.00  0.00     0.000 A 
ATOM     10  C   UNL d   1      46.453 -19.892  44.308  0.00  0.00     0.002 A 
ATOM     11  C   UNL d   1      46.406 -17.972  42.035  0.00  0.00     0.019 A 
ATOM     12  C   UNL d   1      46.242 -17.530  42.709  0.00  0.00     0.082 A 
ENDBRANCH   1   3
BRANCH   1  13
ATOM     13  N   UNL d   1      46.084 -16.640  44.108  0.00  0.00    -0.180 NA
ATOM     14  C   UNL d   1      45.523 -16.193  44.529  0.00  0.00     0.281 C 
ATOM     15  O   UNL d   1      44.947 -16.567  44.955  0.00  0.00    -0.265 OA
BRANCH  14  16
ATOM     16  C   UNL d   1      45.571 -15.369  44.501  0.00  0.00     0.058 A 
ATOM     17  C   UNL d   1      46.270 -14.978  44.294  0.00  0.00     0.005 A 
ATOM     18  C   UNL d   1      46.313 -14.161  44.267  0.00  0.00     0.000 A 
ATOM     19  C   UNL d   1      45.633 -13.709  44.453  0.00  0.00     0.000 A 
ATOM     20  C   UNL d   1      44.940 -14.088  44.658  0.00  0.00     0.000 A 
ATOM     21  C   UNL d   1      44.887 -14.928  44.688  0.00  0.00     0.005 A 
ENDBRANCH  14  16
ENDBRANCH   1  13
TORSDOF 3
ENDMDL
MODEL 2
REMARK VINA RESULT:      15.8      1.496      4.872
REMARK  3 active torsions:
REMARK  status: ('A' for Active; 'I' for Inactive)
REMARK    1  A    between atoms: N_2  and  C_1 
REMARK    2  A    between atoms: N_3  and  C_1 
REMARK       I    between atoms: C_4  and  N_3 
REMARK    3  A    between atoms: C_9  and  C_4 
ROOT
ATOM      1  C   UNL d   1      45.195 -14.651  44.550  0.00  0.00     0.209 C 
ATOM      2  S   UNL d   1      44.481 -14.729  44.939  0.00  0.00    -0.038 SA
ENDROOT
BRANCH   1   3
ATOM      3  N   UNL d   1      45.539 -13.911  44.476  0.00  0.00    -0.282 N 
ATOM      4  C   UNL d   1      45.237 -13.368  43.930  0.00  0.00     0.066 A 
ATOM      5  C   UNL d   1      45.589 -12.626  43.863  0.00  0.00     0.016 A 
ATOM      6  C   UNL d   1      44.589 -13.568  43.457  0.00  0.00     0.018 A 
ATOM      7  C   UNL d   1      45.296 -12.080  43.323  0.00  0.00     0.001 A 
ATOM      8  C   UNL d   1      46.245 -12.423  44.341  0.00  0.00     0.003 A 
ATOM      9  C   UNL d   1      44.656 -12.278  42.856  0.00  0.00     0.000 A 
ATOM     10  C   UNL d   1      44.301 -13.023  42.923  0.00  0.00     0.002 A 
ATOM     11  C   UNL d   1      46.542 -12.965  44.882  0.00  0.00     0.019 A 
ATOM     12  C   UNL d   1      46.195 -13.708  44.955  0.00  0.00     0.082 A 
ENDBRANCH   1   3
BRANCH   1  13
ATOM     13  N   UNL d   1      45.561 -15.319  44.235  0.00  0.00    -0.180 NA
ATOM     14  C   UNL d   1      45.288 -16.077  44.444  0.00  0.00     0.281 C 
ATOM     15  O   UNL d   1      44.666 -16.155  44.954  0.00  0.00    -0.265 OA
BRANCH  14  16
ATOM     16  C   UNL d   1      45.665 -16.737  44.121  0.00  0.00     0.058 A 
ATOM     17  C   UNL d   1      45.803 -16.807  43.308  0.00  0.00     0.005 A 
ATOM     18  C   UNL d   1      46.177 -17.463  42.992  0.00  0.00     0.000 A 
ATOM     19  C   UNL d   1      46.427 -18.078  43.503  0.00  0.00     0.000 A 
ATOM     20  C   UNL d   1      46.294 -18.015  44.306  0.00  0.00     0.000 A 
ATOM     21  C   UNL d   1      45.910 -17.344  44.639  0.00  0.00     0.005 A 
ENDBRANCH  14  16
ENDBRANCH   1  13
TORSDOF 3
ENDMDL
