MODEL 1
REMARK VINA RESULT:      -5.6      0.000      0.000
REMARK  4 active torsions:
REMARK  status: ('A' for Active; 'I' for Inactive)
REMARK    1  A    between atoms: C_6  and  C_1 
REMARK    2  A    between atoms: C_7  and  C_4 
REMARK    3  A    between atoms: O_10  and  C_6 
REMARK    4  A    between atoms: O_12  and  C_11 
ROOT
ATOM      1  C   UNL d   1     -41.534-122.410 -51.049  0.00  0.00     0.173 A 
ATOM      2  N   UNL d   1     -41.211-121.670 -51.232  0.00  0.00    -0.121 NA
ATOM      3  C   UNL d   1     -41.645-122.821 -51.757  0.00  0.00     0.054 A 
ATOM      4  C   UNL d   1     -41.390-122.335 -52.379  0.00  0.00     0.127 A 
ATOM      5  O   UNL d   1     -41.123-121.626 -52.050  0.00  0.00    -0.211 OA
ENDROOT
BRANCH   4   6
ATOM      6  C   UNL d   1     -41.403-122.532 -53.181  0.00  0.00     0.027 A 
ATOM      7  C   UNL d   1     -41.699-121.985 -53.722  0.00  0.00     0.026 A 
ATOM      8  C   UNL d   1     -41.715-122.174 -54.519  0.00  0.00     0.094 A 
ATOM      9  C   UNL d   1     -41.436-122.910 -54.781  0.00  0.00     0.024 A 
ATOM     10  C   UNL d   1     -41.142-123.450 -54.235  0.00  0.00     0.002 A 
ATOM     11  C   UNL d   1     -41.125-123.264 -53.436  0.00  0.00     0.002 A 
BRANCH   8  12
ATOM     12  O   UNL d   1     -42.012-121.628 -55.069  0.00  0.00    -0.328 OA
ATOM     13  C   UNL d   1     -42.457-121.891 -55.716  0.00  0.00     0.181 C 
ENDBRANCH   8  12
ENDBRANCH   4   6
BRANCH   1  14
ATOM     14  C   UNL d   1     -41.718-122.697 -50.295  0.00  0.00     0.316 C 
ATOM     15  O   UNL d   1     -41.191-123.188 -49.897  0.00  0.00    -0.257 OA
BRANCH  14  16
ATOM     16  O   UNL d   1     -42.440-122.485 -49.944  0.00  0.00    -0.294 OA
ATOM     17  C   UNL d   1     -42.647-122.799 -49.207  0.00  0.00     0.185 C 
ENDBRANCH  14  16
ENDBRANCH   1  14
TORSDOF 4
ENDMDL
MODEL 2
REMARK VINA RESULT:      -5.1      0.907      4.020
REMARK  4 active torsions:
REMARK  status: ('A' for Active; 'I' for Inactive)
REMARK    1  A    between atoms: C_6  and  C_1 
REMARK    2  A    between atoms: C_7  and  C_4 
REMARK    3  A    between atoms: O_10  and  C_6 
REMARK    4  A    between atoms: O_12  and  C_11 
ROOT
ATOM      1  C   UNL d   1     -41.458-122.356 -53.215  0.00  0.00     0.173 A 
ATOM      2  N   UNL d   1     -41.201-121.647 -52.873  0.00  0.00    -0.121 NA
ATOM      3  C   UNL d   1     -41.624-122.886 -52.604  0.00  0.00     0.054 A 
ATOM      4  C   UNL d   1     -41.471-122.505 -51.883  0.00  0.00     0.127 A 
ATOM      5  O   UNL d   1     -41.210-121.740 -52.055  0.00  0.00    -0.211 OA
ENDROOT
BRANCH   4   6
ATOM      6  C   UNL d   1     -41.565-122.837 -51.133  0.00  0.00     0.027 A 
ATOM      7  C   UNL d   1     -42.108-122.500 -50.612  0.00  0.00     0.026 A 
ATOM      8  C   UNL d   1     -42.206-122.825 -49.866  0.00  0.00     0.094 A 
ATOM      9  C   UNL d   1     -41.762-123.487 -49.635  0.00  0.00     0.024 A 
ATOM     10  C   UNL d   1     -41.223-123.816 -50.160  0.00  0.00     0.002 A 
ATOM     11  C   UNL d   1     -41.123-123.494 -50.908  0.00  0.00     0.002 A 
BRANCH   8  12
ATOM     12  O   UNL d   1     -42.752-122.491 -49.336  0.00  0.00    -0.328 OA
ATOM     13  C   UNL d   1     -42.938-122.883 -48.631  0.00  0.00     0.181 C 
ENDBRANCH   8  12
ENDBRANCH   4   6
BRANCH   1  14
ATOM     14  C   UNL d   1     -41.537-122.516 -54.023  0.00  0.00     0.316 C 
ATOM     15  O   UNL d   1     -41.350-123.260 -54.319  0.00  0.00    -0.257 OA
BRANCH  14  16
ATOM     16  O   UNL d   1     -41.806-121.918 -54.531  0.00  0.00    -0.294 OA
ATOM     17  C   UNL d   1     -41.933-122.085 -55.332  0.00  0.00     0.185 C 
ENDBRANCH  14  16
ENDBRANCH   1  14
TORSDOF 4
ENDMDL
MODEL 3
REMARK VINA RESULT:      -4.3      0.926      1.225
REMARK  4 active torsions:
REMARK  status: ('A' for Active; 'I' for Inactive)
REMARK    1  A    between atoms: C_6  and  C_1 
REMARK    2  A    between atoms: C_7  and  C_4 
REMARK    3  A    between atoms: O_10  and  C_6 
REMARK    4  A    between atoms: O_12  and  C_11 
ROOT
ATOM      1  C   UNL d   1     -42.032-122.811 -50.206  0.00  0.00     0.173 A 
ATOM      2  N   UNL d   1     -42.392-122.112 -50.469  0.00  0.00    -0.121 NA
ATOM      3  C   UNL d   1     -41.703-123.189 -50.863  0.00  0.00     0.054 A 
ATOM      4  C   UNL d   1     -41.859-122.725 -51.533  0.00  0.00     0.127 A 
ATOM      5  O   UNL d   1     -42.284-122.061 -51.284  0.00  0.00    -0.211 OA
ENDROOT
BRANCH   4   6
ATOM      6  C   UNL d   1     -41.627-122.901 -52.305  0.00  0.00     0.027 A 
ATOM      7  C   UNL d   1     -41.678-122.313 -52.881  0.00  0.00     0.026 A 
ATOM      8  C   UNL d   1     -41.450-122.482 -53.650  0.00  0.00     0.094 A 
ATOM      9  C   UNL d   1     -41.170-123.237 -53.849  0.00  0.00     0.024 A 
ATOM     10  C   UNL d   1     -41.123-123.817 -53.269  0.00  0.00     0.002 A 
ATOM     11  C   UNL d   1     -41.350-123.652 -52.498  0.00  0.00     0.002 A 
BRANCH   8  12
ATOM     12  O   UNL d   1     -41.498-121.894 -54.235  0.00  0.00    -0.328 OA
ATOM     13  C   UNL d   1     -42.016-121.988 -54.875  0.00  0.00     0.181 C 
ENDBRANCH   8  12
ENDBRANCH   4   6
BRANCH   1  14
ATOM     14  C   UNL d   1     -42.002-123.090 -49.428  0.00  0.00     0.316 C 
ATOM     15  O   UNL d   1     -42.686-123.127 -48.972  0.00  0.00    -0.257 OA
BRANCH  14  16
ATOM     16  O   UNL d   1     -41.274-123.331 -49.112  0.00  0.00    -0.294 OA
ATOM     17  C   UNL d   1     -41.216-123.519 -48.307  0.00  0.00     0.185 C 
ENDBRANCH  14  16
ENDBRANCH   1  14
TORSDOF 4
ENDMDL
MODEL 4
REMARK VINA RESULT:      -3.4      1.333      4.160
REMARK  4 active torsions:
REMARK  status: ('A' for Active; 'I' for Inactive)
REMARK    1  A    between atoms: C_6  and  C_1 
REMARK    2  A    between atoms: C_7  and  C_4 
REMARK    3  A    between atoms: O_10  and  C_6 
REMARK    4  A    between atoms: O_12  and  C_11 
ROOT
ATOM      1  C   UNL d   1     -41.988-122.670 -54.231  0.00  0.00     0.173 A 
ATOM      2  N   UNL d   1     -42.078-123.475 -54.058  0.00  0.00    -0.121 NA
ATOM      3  C   UNL d   1     -41.784-122.282 -53.530  0.00  0.00     0.054 A 
ATOM      4  C   UNL d   1     -41.748-122.846 -52.924  0.00  0.00     0.127 A 
ATOM      5  O   UNL d   1     -41.930-123.581 -53.255  0.00  0.00    -0.211 OA
ENDROOT
BRANCH   4   6
ATOM      6  C   UNL d   1     -41.562-122.694 -52.134  0.00  0.00     0.027 A 
ATOM      7  C   UNL d   1     -41.463-123.328 -51.617  0.00  0.00     0.026 A 
ATOM      8  C   UNL d   1     -41.279-123.183 -50.831  0.00  0.00     0.094 A 
ATOM      9  C   UNL d   1     -41.193-122.404 -50.557  0.00  0.00     0.024 A 
ATOM     10  C   UNL d   1     -41.294-121.778 -51.079  0.00  0.00     0.002 A 
ATOM     11  C   UNL d   1     -41.478-121.919 -51.866  0.00  0.00     0.002 A 
BRANCH   8  12
ATOM     12  O   UNL d   1     -41.177-123.817 -50.305  0.00  0.00    -0.328 OA
ATOM     13  C   UNL d   1     -41.496-123.778 -49.542  0.00  0.00     0.181 C 
ENDBRANCH   8  12
ENDBRANCH   4   6
BRANCH   1  14
ATOM     14  C   UNL d   1     -42.082-122.308 -54.969  0.00  0.00     0.316 C 
ATOM     15  O   UNL d   1     -42.640-122.592 -55.503  0.00  0.00    -0.257 OA
BRANCH  14  16
ATOM     16  O   UNL d   1     -41.608-121.657 -55.165  0.00  0.00    -0.294 OA
ATOM     17  C   UNL d   1     -41.356-121.550 -55.947  0.00  0.00     0.185 C 
ENDBRANCH  14  16
ENDBRANCH   1  14
TORSDOF 4
ENDMDL
