MODEL 1
REMARK VINA RESULT:      -3.4      0.000      0.000
REMARK  3 active torsions:
REMARK  status: ('A' for Active; 'I' for Inactive)
REMARK    1  A    between atoms: C_2  and  S_1 
REMARK    2  A    between atoms: N_3  and  S_1 
REMARK    3  A    between atoms: C_12  and  N_3 
ROOT
ATOM      1  S   UNL d   1      31.223  16.638 -24.012  0.00  0.00     0.285 S 
ATOM      2  O   UNL d   1      31.361  16.414 -24.716  0.00  0.00    -0.198 OA
ATOM      3  O   UNL d   1      31.291  16.864 -23.274  0.00  0.00    -0.198 OA
ENDROOT
BRANCH   1   4
ATOM      4  C   UNL d   1      30.389  16.671 -24.027  0.00  0.00     0.105 A 
ATOM      5  C   UNL d   1      29.944  16.080 -23.653  0.00  0.00     0.012 A 
ATOM      6  C   UNL d   1      29.118  16.112 -23.668  0.00  0.00     0.001 A 
ATOM      7  C   UNL d   1      30.345  15.453 -23.262  0.00  0.00     0.001 C 
ATOM      8  C   UNL d   1      28.742  16.735 -24.056  0.00  0.00     0.000 A 
ATOM      9  C   UNL d   1      29.179  17.333 -24.435  0.00  0.00     0.001 A 
ATOM     10  C   UNL d   1      30.005  17.301 -24.420  0.00  0.00     0.013 A 
ATOM     11  C   UNL d   1      28.790  17.960 -24.826  0.00  0.00     0.000 C 
ENDBRANCH   1   4
BRANCH   1  12
ATOM     12  N   UNL d   1      31.966  16.588 -24.067  0.00  0.00    -0.158 NA
BRANCH  12  13
ATOM     13  C   UNL d   1      32.250  17.218 -24.021  0.00  0.00     0.095 A 
ATOM     14  C   UNL d   1      32.481  17.533 -24.594  0.00  0.00     0.040 A 
ATOM     15  C   UNL d   1      32.759  18.153 -24.534  0.00  0.00     0.089 A 
ATOM     16  N   UNL d   1      33.024  18.576 -25.007  0.00  0.00    -0.236 NA
ATOM     17  C   UNL d   1      32.813  18.466 -23.930  0.00  0.00     0.049 A 
ATOM     18  C   UNL d   1      33.240  19.148 -24.682  0.00  0.00     0.135 A 
ATOM     19  S   UNL d   1      33.108  19.073 -24.025  0.00  0.00    -0.064 SA
ATOM     20  C   UNL d   1      32.578  18.139 -23.362  0.00  0.00     0.010 A 
ATOM     21  C   UNL d   1      32.295  17.513 -23.407  0.00  0.00     0.021 A 
ENDBRANCH  12  13
ENDBRANCH   1  12
TORSDOF 3
ENDMDL
MODEL 2
REMARK VINA RESULT:      -3.2      1.516      3.506
REMARK  3 active torsions:
REMARK  status: ('A' for Active; 'I' for Inactive)
REMARK    1  A    between atoms: C_2  and  S_1 
REMARK    2  A    between atoms: N_3  and  S_1 
REMARK    3  A    between atoms: C_12  and  N_3 
ROOT
ATOM      1  S   UNL d   1      31.308  15.960 -23.919  0.00  0.00     0.285 S 
ATOM      2  O   UNL d   1      31.254  16.053 -24.663  0.00  0.00    -0.198 OA
ATOM      3  O   UNL d   1      31.214  15.720 -23.188  0.00  0.00    -0.198 OA
ENDROOT
BRANCH   1   4
ATOM      4  C   UNL d   1      31.897  16.524 -23.740  0.00  0.00     0.105 A 
ATOM      5  C   UNL d   1      32.658  16.277 -23.527  0.00  0.00     0.012 A 
ATOM      6  C   UNL d   1      33.241  16.835 -23.350  0.00  0.00     0.001 A 
ATOM      7  C   UNL d   1      32.825  15.453 -23.495  0.00  0.00     0.001 C 
ATOM      8  C   UNL d   1      33.059  17.639 -23.387  0.00  0.00     0.000 A 
ATOM      9  C   UNL d   1      32.298  17.899 -23.600  0.00  0.00     0.001 A 
ATOM     10  C   UNL d   1      31.715  17.340 -23.777  0.00  0.00     0.013 A 
ATOM     11  C   UNL d   1      32.122  18.715 -23.635  0.00  0.00     0.000 C 
ENDBRANCH   1   4
BRANCH   1  12
ATOM     12  N   UNL d   1      30.788  15.476 -24.147  0.00  0.00    -0.158 NA
BRANCH  12  13
ATOM     13  C   UNL d   1      30.171  15.647 -23.882  0.00  0.00     0.095 A 
ATOM     14  C   UNL d   1      29.708  15.978 -24.278  0.00  0.00     0.040 A 
ATOM     15  C   UNL d   1      29.105  16.141 -24.005  0.00  0.00     0.089 A 
ATOM     16  N   UNL d   1      28.560  16.463 -24.274  0.00  0.00    -0.236 NA
ATOM     17  C   UNL d   1      28.950  15.987 -23.357  0.00  0.00     0.049 A 
ATOM     18  C   UNL d   1      28.073  16.502 -23.781  0.00  0.00     0.135 A 
ATOM     19  S   UNL d   1      28.319  16.209 -23.226  0.00  0.00    -0.064 SA
ATOM     20  C   UNL d   1      29.423  15.655 -22.970  0.00  0.00     0.010 A 
ATOM     21  C   UNL d   1      30.037  15.484 -23.233  0.00  0.00     0.021 A 
ENDBRANCH  12  13
ENDBRANCH   1  12
TORSDOF 3
ENDMDL
MODEL 3
REMARK VINA RESULT:      -2.6      1.289      3.622
REMARK  3 active torsions:
REMARK  status: ('A' for Active; 'I' for Inactive)
REMARK    1  A    between atoms: C_2  and  S_1 
REMARK    2  A    between atoms: N_3  and  S_1 
REMARK    3  A    between atoms: C_12  and  N_3 
ROOT
ATOM      1  S   UNL d   1      32.563  18.027 -24.325  0.00  0.00     0.285 S 
ATOM      2  O   UNL d   1      33.111  17.549 -24.135  0.00  0.00    -0.198 OA
ATOM      3  O   UNL d   1      31.933  18.355 -24.635  0.00  0.00    -0.198 OA
ENDROOT
BRANCH   1   4
ATOM      4  C   UNL d   1      32.787  18.696 -23.878  0.00  0.00     0.105 A 
ATOM      5  C   UNL d   1      32.950  19.413 -24.259  0.00  0.00     0.012 A 
ATOM      6  C   UNL d   1      33.172  20.076 -23.817  0.00  0.00     0.001 A 
ATOM      7  C   UNL d   1      32.885  19.455 -25.097  0.00  0.00     0.001 C 
ATOM      8  C   UNL d   1      33.230  20.017 -22.996  0.00  0.00     0.000 A 
ATOM      9  C   UNL d   1      33.069  19.301 -22.604  0.00  0.00     0.001 A 
ATOM     10  C   UNL d   1      32.847  18.638 -23.046  0.00  0.00     0.013 A 
ATOM     11  C   UNL d   1      33.131  19.250 -21.772  0.00  0.00     0.000 C 
ENDBRANCH   1   4
BRANCH   1  12
ATOM     12  N   UNL d   1      32.420  17.396 -24.697  0.00  0.00    -0.158 NA
BRANCH  12  13
ATOM     13  C   UNL d   1      31.881  17.068 -24.410  0.00  0.00     0.095 A 
ATOM     14  C   UNL d   1      31.988  16.493 -24.038  0.00  0.00     0.040 A 
ATOM     15  C   UNL d   1      31.449  16.180 -23.762  0.00  0.00     0.089 A 
ATOM     16  N   UNL d   1      31.406  15.612 -23.376  0.00  0.00    -0.236 NA
ATOM     17  C   UNL d   1      30.814  16.419 -23.842  0.00  0.00     0.049 A 
ATOM     18  C   UNL d   1      30.737  15.510 -23.224  0.00  0.00     0.135 A 
ATOM     19  S   UNL d   1      30.383  16.006 -23.512  0.00  0.00    -0.064 SA
ATOM     20  C   UNL d   1      30.720  16.997 -24.217  0.00  0.00     0.010 A 
ATOM     21  C   UNL d   1      31.255  17.324 -24.503  0.00  0.00     0.021 A 
ENDBRANCH  12  13
ENDBRANCH   1  12
TORSDOF 3
ENDMDL
MODEL 4
REMARK VINA RESULT:      -1.6      1.734      2.604
REMARK  3 active torsions:
REMARK  status: ('A' for Active; 'I' for Inactive)
REMARK    1  A    between atoms: C_2  and  S_1 
REMARK    2  A    between atoms: N_3  and  S_1 
REMARK    3  A    between atoms: C_12  and  N_3 
ROOT
ATOM      1  S   UNL d   1      32.600  18.245 -23.987  0.00  0.00     0.285 S 
ATOM      2  O   UNL d   1      33.240  17.856 -23.934  0.00  0.00    -0.198 OA
ATOM      3  O   UNL d   1      32.070  18.810 -24.024  0.00  0.00    -0.198 OA
ENDROOT
BRANCH   1   4
ATOM      4  C   UNL d   1      32.051  17.620 -24.065  0.00  0.00     0.105 A 
ATOM      5  C   UNL d   1      31.432  17.678 -24.612  0.00  0.00     0.012 A 
ATOM      6  C   UNL d   1      30.889  17.059 -24.689  0.00  0.00     0.001 A 
ATOM      7  C   UNL d   1      31.366  18.371 -25.083  0.00  0.00     0.001 C 
ATOM      8  C   UNL d   1      30.969  16.386 -24.218  0.00  0.00     0.000 A 
ATOM      9  C   UNL d   1      31.588  16.318 -23.666  0.00  0.00     0.001 A 
ATOM     10  C   UNL d   1      32.131  16.937 -23.589  0.00  0.00     0.013 A 
ATOM     11  C   UNL d   1      31.661  15.633 -23.194  0.00  0.00     0.000 C 
ENDBRANCH   1   4
BRANCH   1  12
ATOM     12  N   UNL d   1      33.141  18.754 -23.914  0.00  0.00    -0.158 NA
BRANCH  12  13
ATOM     13  C   UNL d   1      33.158  18.991 -23.264  0.00  0.00     0.095 A 
ATOM     14  C   UNL d   1      33.107  19.672 -23.145  0.00  0.00     0.040 A 
ATOM     15  C   UNL d   1      33.125  19.892 -22.500  0.00  0.00     0.089 A 
ATOM     16  N   UNL d   1      33.087  20.527 -22.239  0.00  0.00    -0.236 NA
ATOM     17  C   UNL d   1      33.191  19.461 -21.975  0.00  0.00     0.049 A 
ATOM     18  C   UNL d   1      33.130  20.475 -21.549  0.00  0.00     0.135 A 
ATOM     19  S   UNL d   1      33.194  19.821 -21.396  0.00  0.00    -0.064 SA
ATOM     20  C   UNL d   1      33.241  18.779 -22.107  0.00  0.00     0.010 A 
ATOM     21  C   UNL d   1      33.224  18.542 -22.753  0.00  0.00     0.021 A 
ENDBRANCH  12  13
ENDBRANCH   1  12
TORSDOF 3
ENDMDL
