MODEL 1
REMARK VINA RESULT:     -10.3      0.000      0.000
REMARK  5 active torsions:
REMARK  status: ('A' for Active; 'I' for Inactive)
REMARK    1  A    between atoms: C_3  and  C_1 
REMARK       I    between atoms: N_2  and  C_4 
REMARK    2  A    between atoms: C_5  and  N_2 
REMARK       I    between atoms: N_6  and  C_3 
REMARK    3  A    between atoms: C_4  and  C_7 
REMARK    4  A    between atoms: C_7  and  N_6 
REMARK    5  A    between atoms: C_21  and  C_7 
ROOT
ATOM      1  C   UNL d   1      53.654  31.395  53.712  0.00  0.00     0.263 C 
ATOM      2  N   UNL d   1      53.454  31.970  54.258  0.00  0.00    -0.206 NA
ATOM      3  O   UNL d   1      54.036  31.621  53.013  0.00  0.00    -0.270 OA
ENDROOT
BRANCH   2   4
ATOM      4  C   UNL d   1      53.626  32.755  54.118  0.00  0.00     0.142 C 
BRANCH   4   5
ATOM      5  C   UNL d   1      53.100  33.235  53.684  0.00  0.00     0.299 C 
ATOM      6  N   UNL d   1      52.342  33.356  53.946  0.00  0.00    -0.181 NA
ATOM      7  O   UNL d   1      53.368  33.581  52.986  0.00  0.00    -0.263 OA
BRANCH   6   8
ATOM      8  C   UNL d   1      51.817  33.829  53.521  0.00  0.00     0.197 A 
ATOM      9  N   UNL d   1      51.084  33.524  53.249  0.00  0.00    -0.219 NA
ATOM     10  C   UNL d   1      50.699  34.137  52.848  0.00  0.00     0.108 A 
ATOM     11  C   UNL d   1      51.147  34.788  52.859  0.00  0.00     0.059 A 
ATOM     12  S   UNL d   1      51.874  34.626  53.284  0.00  0.00    -0.046 SA
ENDBRANCH   6   8
ENDBRANCH   4   5
BRANCH   4  13
ATOM     13  C   UNL d   1      54.324  33.068  54.409  0.00  0.00     0.022 C 
ATOM     14  C   UNL d   1      54.942  33.240  53.889  0.00  0.00     0.002 C 
ATOM     15  C   UNL d   1      54.377  33.197  55.202  0.00  0.00     0.002 C 
ENDBRANCH   4  13
ENDBRANCH   2   4
BRANCH   1  16
ATOM     16  C   UNL d   1      53.483  30.619  53.850  0.00  0.00     0.111 A 
ATOM     17  C   UNL d   1      53.171  30.574  53.208  0.00  0.00     0.026 A 
ATOM     18  C   UNL d   1      52.864  29.913  52.978  0.00  0.00     0.045 A 
ATOM     19  C   UNL d   1      52.991  29.299  53.652  0.00  0.00    -0.022 A 
ATOM     20  C   UNL d   1      52.820  29.128  53.394  0.00  0.00    -0.022 A 
ATOM     21  C   UNL d   1      53.356  29.352  54.403  0.00  0.00    -0.007 A 
ATOM     22  C   UNL d   1      53.650  30.142  54.519  0.00  0.00    -0.014 A 
ATOM     23  C   UNL d   1      53.325  28.667  54.781  0.00  0.00    -0.001 A 
ATOM     24  C   UNL d   1      53.150  29.176  54.072  0.00  0.00    -0.007 A 
ATOM     25  C   UNL d   1      53.467  30.001  54.218  0.00  0.00    -0.014 A 
ENDBRANCH   1  16
TORSDOF 5
ENDMDL
MODEL 2
REMARK VINA RESULT:      -9.9      1.453      4.175
REMARK  5 active torsions:
REMARK  status: ('A' for Active; 'I' for Inactive)
REMARK    1  A    between atoms: C_3  and  C_1 
REMARK       I    between atoms: N_2  and  C_4 
REMARK    2  A    between atoms: C_5  and  N_2 
REMARK       I    between atoms: N_6  and  C_3 
REMARK    3  A    between atoms: C_4  and  C_7 
REMARK    4  A    between atoms: C_7  and  N_6 
REMARK    5  A    between atoms: C_21  and  C_7 
ROOT
ATOM      1  C   UNL d   1      52.505  33.251  53.513  0.00  0.00     0.263 C 
ATOM      2  N   UNL d   1      53.079  32.774  53.179  0.00  0.00    -0.206 NA
ATOM      3  O   UNL d   1      52.505  33.363  54.334  0.00  0.00    -0.270 OA
ENDROOT
BRANCH   2   4
ATOM      4  C   UNL d   1      53.644  32.412  53.644  0.00  0.00     0.142 C 
BRANCH   4   5
ATOM      5  C   UNL d   1      53.531  31.633  53.919  0.00  0.00     0.299 C 
ATOM      6  N   UNL d   1      53.413  31.025  53.396  0.00  0.00    -0.181 NA
ATOM      7  O   UNL d   1      53.544  31.497  54.732  0.00  0.00    -0.263 OA
BRANCH   6   8
ATOM      8  C   UNL d   1      53.302  30.252  53.661  0.00  0.00     0.197 A 
ATOM      9  N   UNL d   1      52.597  29.833  53.486  0.00  0.00    -0.219 NA
ATOM     10  C   UNL d   1      52.667  29.085  53.832  0.00  0.00     0.108 A 
ATOM     11  C   UNL d   1      53.362  29.023  54.202  0.00  0.00     0.059 A 
ATOM     12  S   UNL d   1      53.797  29.757  54.113  0.00  0.00    -0.046 SA
ENDBRANCH   6   8
ENDBRANCH   4   5
BRANCH   4  13
ATOM     13  C   UNL d   1      54.323  32.824  53.840  0.00  0.00     0.022 C 
ATOM     14  C   UNL d   1      54.428  33.094  54.613  0.00  0.00     0.002 C 
ATOM     15  C   UNL d   1      54.867  32.950  53.260  0.00  0.00     0.002 C 
ENDBRANCH   4  13
ENDBRANCH   2   4
BRANCH   1  16
ATOM     16  C   UNL d   1      51.947  33.608  53.053  0.00  0.00     0.111 A 
ATOM     17  C   UNL d   1      51.475  33.558  53.588  0.00  0.00     0.026 A 
ATOM     18  C   UNL d   1      50.765  33.824  53.496  0.00  0.00     0.045 A 
ATOM     19  C   UNL d   1      50.705  34.169  52.644  0.00  0.00    -0.022 A 
ATOM     20  C   UNL d   1      50.388  34.215  52.792  0.00  0.00    -0.022 A 
ATOM     21  C   UNL d   1      51.258  34.227  52.019  0.00  0.00    -0.007 A 
ATOM     22  C   UNL d   1      52.000  33.891  52.266  0.00  0.00    -0.014 A 
ATOM     23  C   UNL d   1      50.939  34.570  51.392  0.00  0.00    -0.001 A 
ATOM     24  C   UNL d   1      50.887  34.268  52.227  0.00  0.00    -0.007 A 
ATOM     25  C   UNL d   1      51.678  33.921  52.464  0.00  0.00    -0.014 A 
ENDBRANCH   1  16
TORSDOF 5
ENDMDL
MODEL 3
REMARK VINA RESULT:      -9.7      1.239      1.905
REMARK  5 active torsions:
REMARK  status: ('A' for Active; 'I' for Inactive)
REMARK    1  A    between atoms: C_3  and  C_1 
REMARK       I    between atoms: N_2  and  C_4 
REMARK    2  A    between atoms: C_5  and  N_2 
REMARK       I    between atoms: N_6  and  C_3 
REMARK    3  A    between atoms: C_4  and  C_7 
REMARK    4  A    between atoms: C_7  and  N_6 
REMARK    5  A    between atoms: C_21  and  C_7 
ROOT
ATOM      1  C   UNL d   1      52.832  32.628  53.047  0.00  0.00     0.263 C 
ATOM      2  N   UNL d   1      52.294  33.033  53.512  0.00  0.00    -0.206 NA
ATOM      3  O   UNL d   1      53.270  33.049  52.484  0.00  0.00    -0.270 OA
ENDROOT
BRANCH   2   4
ATOM      4  C   UNL d   1      52.189  33.837  53.425  0.00  0.00     0.142 C 
BRANCH   4   5
ATOM      5  C   UNL d   1      51.572  34.135  52.950  0.00  0.00     0.299 C 
ATOM      6  N   UNL d   1      50.798  34.037  53.170  0.00  0.00    -0.181 NA
ATOM      7  O   UNL d   1      51.768  34.531  52.254  0.00  0.00    -0.263 OA
BRANCH   6   8
ATOM      8  C   UNL d   1      50.184  34.330  52.703  0.00  0.00     0.197 A 
ATOM      9  N   UNL d   1      49.638  34.888  53.009  0.00  0.00    -0.219 NA
ATOM     10  C   UNL d   1      49.102  35.062  52.403  0.00  0.00     0.108 A 
ATOM     11  C   UNL d   1      49.286  34.649  51.756  0.00  0.00     0.059 A 
ATOM     12  S   UNL d   1      49.977  34.166  51.913  0.00  0.00    -0.046 SA
ENDBRANCH   6   8
ENDBRANCH   4   5
BRANCH   4  13
ATOM     13  C   UNL d   1      52.697  34.350  53.810  0.00  0.00     0.022 C 
ATOM     14  C   UNL d   1      53.168  34.865  53.369  0.00  0.00     0.002 C 
ATOM     15  C   UNL d   1      52.715  34.329  54.615  0.00  0.00     0.002 C 
ENDBRANCH   4  13
ENDBRANCH   2   4
BRANCH   1  16
ATOM     16  C   UNL d   1      52.935  31.834  53.133  0.00  0.00     0.111 A 
ATOM     17  C   UNL d   1      53.602  31.946  53.367  0.00  0.00     0.026 A 
ATOM     18  C   UNL d   1      54.043  31.354  53.562  0.00  0.00     0.045 A 
ATOM     19  C   UNL d   1      53.552  30.586  53.432  0.00  0.00    -0.022 A 
ATOM     20  C   UNL d   1      53.867  30.482  53.552  0.00  0.00    -0.022 A 
ATOM     21  C   UNL d   1      52.772  30.455  53.158  0.00  0.00    -0.007 A 
ATOM     22  C   UNL d   1      52.405  31.202  52.980  0.00  0.00    -0.014 A 
ATOM     23  C   UNL d   1      52.603  29.691  53.144  0.00  0.00    -0.001 A 
ATOM     24  C   UNL d   1      53.163  30.364  53.305  0.00  0.00    -0.007 A 
ATOM     25  C   UNL d   1      52.756  31.138  53.111  0.00  0.00    -0.014 A 
ENDBRANCH   1  16
TORSDOF 5
ENDMDL
MODEL 4
REMARK VINA RESULT:      -8.8      1.282      2.309
REMARK  5 active torsions:
REMARK  status: ('A' for Active; 'I' for Inactive)
REMARK    1  A    between atoms: C_3  and  C_1 
REMARK       I    between atoms: N_2  and  C_4 
REMARK    2  A    between atoms: C_5  and  N_2 
REMARK       I    between atoms: N_6  and  C_3 
REMARK    3  A    between atoms: C_4  and  C_7 
REMARK    4  A    between atoms: C_7  and  N_6 
REMARK    5  A    between atoms: C_21  and  C_7 
ROOT
ATOM      1  C   UNL d   1      52.585  32.222  52.914  0.00  0.00     0.263 C 
ATOM      2  N   UNL d   1      52.081  32.648  53.397  0.00  0.00    -0.206 NA
ATOM      3  O   UNL d   1      52.909  32.591  52.247  0.00  0.00    -0.270 OA
ENDROOT
BRANCH   2   4
ATOM      4  C   UNL d   1      51.897  33.424  53.226  0.00  0.00     0.142 C 
BRANCH   4   5
ATOM      5  C   UNL d   1      52.377  34.045  53.508  0.00  0.00     0.299 C 
ATOM      6  N   UNL d   1      52.424  34.203  54.302  0.00  0.00    -0.181 NA
ATOM      7  O   UNL d   1      52.801  34.493  52.961  0.00  0.00    -0.263 OA
BRANCH   6   8
ATOM      8  C   UNL d   1      52.897  34.816  54.586  0.00  0.00     0.197 A 
ATOM      9  N   UNL d   1      53.567  34.657  55.066  0.00  0.00    -0.219 NA
ATOM     10  C   UNL d   1      53.911  35.387  55.251  0.00  0.00     0.108 A 
ATOM     11  C   UNL d   1      53.498  35.971  54.917  0.00  0.00     0.059 A 
ATOM     12  S   UNL d   1      52.837  35.641  54.481  0.00  0.00    -0.046 SA
ENDBRANCH   6   8
ENDBRANCH   4   5
BRANCH   4  13
ATOM     13  C   UNL d   1      51.235  33.588  52.775  0.00  0.00     0.022 C 
ATOM     14  C   UNL d   1      51.325  33.924  52.026  0.00  0.00     0.002 C 
ATOM     15  C   UNL d   1      50.514  33.411  53.085  0.00  0.00     0.002 C 
ENDBRANCH   4  13
ENDBRANCH   2   4
BRANCH   1  16
ATOM     16  C   UNL d   1      52.767  31.455  53.083  0.00  0.00     0.111 A 
ATOM     17  C   UNL d   1      53.443  31.644  53.216  0.00  0.00     0.026 A 
ATOM     18  C   UNL d   1      53.954  31.116  53.425  0.00  0.00     0.045 A 
ATOM     19  C   UNL d   1      53.519  30.305  53.452  0.00  0.00    -0.022 A 
ATOM     20  C   UNL d   1      53.854  30.240  53.544  0.00  0.00    -0.022 A 
ATOM     21  C   UNL d   1      52.727  30.083  53.297  0.00  0.00    -0.007 A 
ATOM     22  C   UNL d   1      52.280  30.773  53.076  0.00  0.00    -0.014 A 
ATOM     23  C   UNL d   1      52.625  29.314  53.397  0.00  0.00    -0.001 A 
ATOM     24  C   UNL d   1      53.139  30.040  53.403  0.00  0.00    -0.007 A 
ATOM     25  C   UNL d   1      52.647  30.751  53.169  0.00  0.00    -0.014 A 
ENDBRANCH   1  16
TORSDOF 5
ENDMDL
MODEL 5
REMARK VINA RESULT:      -8.8      1.298      3.113
REMARK  5 active torsions:
REMARK  status: ('A' for Active; 'I' for Inactive)
REMARK    1  A    between atoms: C_3  and  C_1 
REMARK       I    between atoms: N_2  and  C_4 
REMARK    2  A    between atoms: C_5  and  N_2 
REMARK       I    between atoms: N_6  and  C_3 
REMARK    3  A    between atoms: C_4  and  C_7 
REMARK    4  A    between atoms: C_7  and  N_6 
REMARK    5  A    between atoms: C_21  and  C_7 
ROOT
ATOM      1  C   UNL d   1      53.788  32.735  53.738  0.00  0.00     0.263 C 
ATOM      2  N   UNL d   1      53.028  32.479  53.898  0.00  0.00    -0.206 NA
ATOM      3  O   UNL d   1      54.078  32.670  52.965  0.00  0.00    -0.270 OA
ENDROOT
BRANCH   2   4
ATOM      4  C   UNL d   1      52.561  32.164  53.308  0.00  0.00     0.142 C 
BRANCH   4   5
ATOM      5  C   UNL d   1      52.035  32.649  52.879  0.00  0.00     0.299 C 
ATOM      6  N   UNL d   1      51.543  33.166  53.265  0.00  0.00    -0.181 NA
ATOM      7  O   UNL d   1      52.027  32.589  52.057  0.00  0.00    -0.263 OA
BRANCH   6   8
ATOM      8  C   UNL d   1      51.021  33.647  52.846  0.00  0.00     0.197 A 
ATOM      9  N   UNL d   1      50.218  33.718  53.078  0.00  0.00    -0.219 NA
ATOM     10  C   UNL d   1      49.856  34.237  52.545  0.00  0.00     0.108 A 
ATOM     11  C   UNL d   1      50.382  34.483  52.010  0.00  0.00     0.059 A 
ATOM     12  S   UNL d   1      51.143  34.124  52.173  0.00  0.00    -0.046 SA
ENDBRANCH   6   8
ENDBRANCH   4   5
BRANCH   4  13
ATOM     13  C   UNL d   1      52.614  31.365  53.140  0.00  0.00     0.022 C 
ATOM     14  C   UNL d   1      52.991  31.117  52.448  0.00  0.00     0.002 C 
ATOM     15  C   UNL d   1      52.292  30.848  53.666  0.00  0.00     0.002 C 
ENDBRANCH   4  13
ENDBRANCH   2   4
BRANCH   1  16
ATOM     16  C   UNL d   1      54.249  33.046  54.321  0.00  0.00     0.111 A 
ATOM     17  C   UNL d   1      54.728  33.253  53.832  0.00  0.00     0.026 A 
ATOM     18  C   UNL d   1      55.362  33.619  54.048  0.00  0.00     0.045 A 
ATOM     19  C   UNL d   1      55.336  33.702  54.965  0.00  0.00    -0.022 A 
ATOM     20  C   UNL d   1      55.637  33.853  54.861  0.00  0.00    -0.022 A 
ATOM     21  C   UNL d   1      54.775  33.460  55.538  0.00  0.00    -0.007 A 
ATOM     22  C   UNL d   1      54.127  33.068  55.150  0.00  0.00    -0.014 A 
ATOM     23  C   UNL d   1      55.004  33.660  56.259  0.00  0.00    -0.001 A 
ATOM     24  C   UNL d   1      55.131  33.635  55.378  0.00  0.00    -0.007 A 
ATOM     25  C   UNL d   1      54.437  33.219  54.993  0.00  0.00    -0.014 A 
ENDBRANCH   1  16
TORSDOF 5
ENDMDL
MODEL 6
REMARK VINA RESULT:      -8.4      1.717      4.848
REMARK  5 active torsions:
REMARK  status: ('A' for Active; 'I' for Inactive)
REMARK    1  A    between atoms: C_3  and  C_1 
REMARK       I    between atoms: N_2  and  C_4 
REMARK    2  A    between atoms: C_5  and  N_2 
REMARK       I    between atoms: N_6  and  C_3 
REMARK    3  A    between atoms: C_4  and  C_7 
REMARK    4  A    between atoms: C_7  and  N_6 
REMARK    5  A    between atoms: C_21  and  C_7 
ROOT
ATOM      1  C   UNL d   1      50.864  34.211  52.891  0.00  0.00     0.263 C 
ATOM      2  N   UNL d   1      51.620  34.132  52.590  0.00  0.00    -0.206 NA
ATOM      3  O   UNL d   1      50.747  34.135  53.708  0.00  0.00    -0.270 OA
ENDROOT
BRANCH   2   4
ATOM      4  C   UNL d   1      52.252  33.982  53.084  0.00  0.00     0.142 C 
BRANCH   4   5
ATOM      5  C   UNL d   1      52.444  33.199  53.300  0.00  0.00     0.299 C 
ATOM      6  N   UNL d   1      52.722  32.675  52.747  0.00  0.00    -0.181 NA
ATOM      7  O   UNL d   1      52.344  32.973  54.087  0.00  0.00    -0.263 OA
BRANCH   6   8
ATOM      8  C   UNL d   1      52.913  31.901  52.956  0.00  0.00     0.197 A 
ATOM      9  N   UNL d   1      52.483  31.251  52.644  0.00  0.00    -0.219 NA
ATOM     10  C   UNL d   1      52.816  30.564  52.963  0.00  0.00     0.108 A 
ATOM     11  C   UNL d   1      53.413  30.753  53.444  0.00  0.00     0.059 A 
ATOM     12  S   UNL d   1      53.505  31.605  53.463  0.00  0.00    -0.046 SA
ENDBRANCH   6   8
ENDBRANCH   4   5
BRANCH   4  13
ATOM     13  C   UNL d   1      52.696  34.608  53.366  0.00  0.00     0.022 C 
ATOM     14  C   UNL d   1      52.697  34.777  54.174  0.00  0.00     0.002 C 
ATOM     15  C   UNL d   1      53.120  35.038  52.834  0.00  0.00     0.002 C 
ENDBRANCH   4  13
ENDBRANCH   2   4
BRANCH   1  16
ATOM     16  C   UNL d   1      50.239  34.360  52.403  0.00  0.00     0.111 A 
ATOM     17  C   UNL d   1      49.911  34.713  52.931  0.00  0.00     0.026 A 
ATOM     18  C   UNL d   1      49.224  35.024  52.813  0.00  0.00     0.045 A 
ATOM     19  C   UNL d   1      48.983  34.843  51.943  0.00  0.00    -0.022 A 
ATOM     20  C   UNL d   1      48.716  35.028  52.083  0.00  0.00    -0.022 A 
ATOM     21  C   UNL d   1      49.367  34.430  51.325  0.00  0.00    -0.007 A 
ATOM     22  C   UNL d   1      50.118  34.142  51.603  0.00  0.00    -0.014 A 
ATOM     23  C   UNL d   1      48.931  34.425  50.675  0.00  0.00    -0.001 A 
ATOM     24  C   UNL d   1      49.063  34.655  51.525  0.00  0.00    -0.007 A 
ATOM     25  C   UNL d   1      49.858  34.342  51.794  0.00  0.00    -0.014 A 
ENDBRANCH   1  16
TORSDOF 5
ENDMDL
MODEL 7
REMARK VINA RESULT:      -8.0      1.587      4.297
REMARK  5 active torsions:
REMARK  status: ('A' for Active; 'I' for Inactive)
REMARK    1  A    between atoms: C_3  and  C_1 
REMARK       I    between atoms: N_2  and  C_4 
REMARK    2  A    between atoms: C_5  and  N_2 
REMARK       I    between atoms: N_6  and  C_3 
REMARK    3  A    between atoms: C_4  and  C_7 
REMARK    4  A    between atoms: C_7  and  N_6 
REMARK    5  A    between atoms: C_21  and  C_7 
ROOT
ATOM      1  C   UNL d   1      51.816  33.335  52.716  0.00  0.00     0.263 C 
ATOM      2  N   UNL d   1      51.961  32.859  53.365  0.00  0.00    -0.206 NA
ATOM      3  O   UNL d   1      52.368  33.352  52.099  0.00  0.00    -0.270 OA
ENDROOT
BRANCH   2   4
ATOM      4  C   UNL d   1      52.639  32.406  53.407  0.00  0.00     0.142 C 
BRANCH   4   5
ATOM      5  C   UNL d   1      53.338  32.720  53.734  0.00  0.00     0.299 C 
ATOM      6  N   UNL d   1      53.350  32.994  54.497  0.00  0.00    -0.181 NA
ATOM      7  O   UNL d   1      54.015  32.745  53.264  0.00  0.00    -0.263 OA
BRANCH   6   8
ATOM      8  C   UNL d   1      54.039  33.305  54.826  0.00  0.00     0.197 A 
ATOM      9  N   UNL d   1      54.372  32.975  55.522  0.00  0.00    -0.219 NA
ATOM     10  C   UNL d   1      55.052  33.414  55.697  0.00  0.00     0.108 A 
ATOM     11  C   UNL d   1      55.151  33.983  55.159  0.00  0.00     0.059 A 
ATOM     12  S   UNL d   1      54.517  33.942  54.582  0.00  0.00    -0.046 SA
ENDBRANCH   6   8
ENDBRANCH   4   5
BRANCH   4  13
ATOM     13  C   UNL d   1      52.624  31.639  53.123  0.00  0.00     0.022 C 
ATOM     14  C   UNL d   1      53.123  31.425  52.500  0.00  0.00     0.002 C 
ATOM     15  C   UNL d   1      52.117  31.119  53.469  0.00  0.00     0.002 C 
ENDBRANCH   4  13
ENDBRANCH   2   4
BRANCH   1  16
ATOM     16  C   UNL d   1      51.146  33.782  52.675  0.00  0.00     0.111 A 
ATOM     17  C   UNL d   1      51.175  33.759  51.961  0.00  0.00     0.026 A 
ATOM     18  C   UNL d   1      50.641  34.114  51.546  0.00  0.00     0.045 A 
ATOM     19  C   UNL d   1      50.051  34.511  52.131  0.00  0.00    -0.022 A 
ATOM     20  C   UNL d   1      49.935  34.587  51.807  0.00  0.00    -0.022 A 
ATOM     21  C   UNL d   1      50.018  34.537  52.967  0.00  0.00    -0.007 A 
ATOM     22  C   UNL d   1      50.673  34.101  53.290  0.00  0.00    -0.014 A 
ATOM     23  C   UNL d   1      49.400  34.951  53.211  0.00  0.00    -0.001 A 
ATOM     24  C   UNL d   1      49.904  34.611  52.562  0.00  0.00    -0.007 A 
ATOM     25  C   UNL d   1      50.586  34.158  52.925  0.00  0.00    -0.014 A 
ENDBRANCH   1  16
TORSDOF 5
ENDMDL
