MODEL 1
REMARK VINA RESULT:       3.4      0.000      0.000
REMARK  2 active torsions:
REMARK  status: ('A' for Active; 'I' for Inactive)
REMARK    1  A    between atoms: C_6  and  C_2 
REMARK    2  A    between atoms: C_7  and  C_6 
ROOT
ATOM      1  N   UNL d   1      23.186  11.937  -1.532  0.00  0.00    -0.193 NA
ATOM      2  C   UNL d   1      24.000  12.915  -1.135  0.00  0.00     0.153 A 
ATOM      3  N   UNL d   1      24.172  12.748  -1.922  0.00  0.00    -0.306 N 
ATOM      4  C   UNL d   1      23.669  12.143  -2.167  0.00  0.00     0.147 A 
ATOM      5  C   UNL d   1      23.391  12.417  -0.887  0.00  0.00     0.276 A 
ATOM      6  C   UNL d   1      24.723  13.066  -2.454  0.00  0.00     0.077 A 
ATOM      7  C   UNL d   1      23.710  11.849  -2.947  0.00  0.00     0.037 A 
ATOM      8  O   UNL d   1      23.048  12.399  -0.137  0.00  0.00    -0.268 OA
ATOM      9  C   UNL d   1      24.767  12.779  -3.222  0.00  0.00     0.019 A 
ATOM     10  C   UNL d   1      24.258  12.168  -3.470  0.00  0.00     0.005 A 
ATOM     11  C   UNL d   1      24.608  13.449  -1.298  0.00  0.00     0.033 C 
ENDROOT
BRANCH   2  12
ATOM     12  C   UNL d   1      23.809  13.066  -0.343  0.00  0.00     0.128 C 
BRANCH  12  13
ATOM     13  C   UNL d   1      23.507  13.803  -0.131  0.00  0.00     0.188 C 
ATOM     14  O   UNL d   1      22.700  13.907  -0.014  0.00  0.00    -0.647 OA
ATOM     15  O   UNL d   1      24.024  14.444  -0.036  0.00  0.00    -0.647 OA
ENDBRANCH  12  13
ENDBRANCH   2  12
TORSDOF 2
ENDMDL
