MODEL 1
REMARK VINA RESULT:      45.5      0.000      0.000
REMARK  3 active torsions:
REMARK  status: ('A' for Active; 'I' for Inactive)
REMARK    1  A    between atoms: C_14  and  C_4 
REMARK    2  A    between atoms: C_10  and  O_11 
REMARK    3  A    between atoms: O_11  and  C_14 
ROOT
ATOM      1  C   UNL d   1     -50.765  25.984  33.314  0.00  0.00     0.144 C 
ENDROOT
BRANCH   1   2
ATOM      2  O   UNL d   1     -50.780  25.191  33.567  0.00  0.00    -0.303 OA
BRANCH   2   3
ATOM      3  C   UNL d   1     -51.455  24.757  33.502  0.00  0.00     0.100 A 
ATOM      4  C   UNL d   1     -51.419  23.938  33.377  0.00  0.00     0.024 A 
ATOM      5  C   UNL d   1     -52.127  23.504  33.313  0.00  0.00     0.013 A 
ATOM      6  C   UNL d   1     -50.706  23.543  33.316  0.00  0.00     0.002 C 
ATOM      7  C   UNL d   1     -52.861  23.875  33.370  0.00  0.00     0.058 A 
ATOM      8  C   UNL d   1     -52.898  24.694  33.495  0.00  0.00     0.013 A 
ATOM      9 CL   UNL d   1     -53.587  23.440  33.306  0.00  0.00    -0.082 Cl
ATOM     10  C   UNL d   1     -52.200  25.147  33.563  0.00  0.00     0.026 A 
ENDBRANCH   2   3
ENDBRANCH   1   2
BRANCH   1  11
ATOM     11  C   UNL d   1     -50.296  26.525  33.691  0.00  0.00     0.142 A 
ATOM     12  N   UNL d   1     -49.521  26.395  33.946  0.00  0.00    -0.057 NA
ATOM     13  C   UNL d   1     -49.259  27.078  34.293  0.00  0.00     0.735 A 
ATOM     14  N   UNL d   1     -49.857  27.627  34.257  0.00  0.00    -0.136 N 
ATOM     15  N   UNL d   1     -48.534  27.276  34.646  0.00  0.00    -0.059 NA
ATOM     16  C   UNL d   1     -50.482  27.272  33.886  0.00  0.00     0.120 A 
ATOM     17  C   UNL d   1     -49.729  28.388  34.580  0.00  0.00     0.100 A 
ATOM     18  C   UNL d   1     -49.025  28.580  34.923  0.00  0.00     0.041 A 
ATOM     19  C   UNL d   1     -48.421  28.018  34.957  0.00  0.00     0.119 A 
ENDBRANCH   1  11
TORSDOF 3
ENDMDL
MODEL 2
REMARK VINA RESULT:      46.1      1.611      2.301
REMARK  3 active torsions:
REMARK  status: ('A' for Active; 'I' for Inactive)
REMARK    1  A    between atoms: C_14  and  C_4 
REMARK    2  A    between atoms: C_10  and  O_11 
REMARK    3  A    between atoms: O_11  and  C_14 
ROOT
ATOM      1  C   UNL d   1     -51.830  25.307  33.311  0.00  0.00     0.144 C 
ENDROOT
BRANCH   1   2
ATOM      2  O   UNL d   1     -52.260  24.959  33.934  0.00  0.00    -0.303 OA
BRANCH   2   3
ATOM      3  C   UNL d   1     -52.928  24.538  33.778  0.00  0.00     0.100 A 
ATOM      4  C   UNL d   1     -53.608  24.919  33.497  0.00  0.00     0.024 A 
ATOM      5  C   UNL d   1     -54.293  24.469  33.341  0.00  0.00     0.013 A 
ATOM      6  C   UNL d   1     -53.629  25.725  33.367  0.00  0.00     0.002 C 
ATOM      7  C   UNL d   1     -54.303  23.653  33.462  0.00  0.00     0.058 A 
ATOM      8  C   UNL d   1     -53.622  23.273  33.744  0.00  0.00     0.013 A 
ATOM      9 CL   UNL d   1     -54.996  23.188  33.306  0.00  0.00    -0.082 Cl
ATOM     10  C   UNL d   1     -52.927  23.705  33.906  0.00  0.00     0.026 A 
ENDBRANCH   2   3
ENDBRANCH   1   2
BRANCH   1  11
ATOM     11  C   UNL d   1     -51.021  25.307  33.322  0.00  0.00     0.142 A 
ATOM     12  N   UNL d   1     -50.539  24.636  33.311  0.00  0.00    -0.057 NA
ATOM     13  C   UNL d   1     -49.769  24.886  33.328  0.00  0.00     0.735 A 
ATOM     14  N   UNL d   1     -49.767  25.698  33.348  0.00  0.00    -0.136 N 
ATOM     15  N   UNL d   1     -49.052  24.467  33.327  0.00  0.00    -0.059 NA
ATOM     16  C   UNL d   1     -50.539  25.938  33.344  0.00  0.00     0.120 A 
ATOM     17  C   UNL d   1     -49.032  26.101  33.368  0.00  0.00     0.100 A 
ATOM     18  C   UNL d   1     -48.336  25.694  33.367  0.00  0.00     0.041 A 
ATOM     19  C   UNL d   1     -48.346  24.869  33.346  0.00  0.00     0.119 A 
ENDBRANCH   1  11
TORSDOF 3
ENDMDL
