MODEL 1
REMARK VINA RESULT:      -9.9      0.000      0.000
REMARK  2 active torsions:
REMARK  status: ('A' for Active; 'I' for Inactive)
REMARK    1  A    between atoms: C_3  and  C_1 
REMARK       I    between atoms: N_6  and  C_3 
REMARK    2  A    between atoms: C_11  and  N_6 
ROOT
ATOM      1  C   UNL d   1      52.164  33.336  53.363  0.00  0.00     0.121 A 
ATOM      2  C   UNL d   1      52.572  32.686  53.021  0.00  0.00     0.305 A 
ATOM      3  C   UNL d   1      52.530  33.783  53.953  0.00  0.00     0.012 A 
ATOM      4  O   UNL d   1      53.342  32.489  53.273  0.00  0.00    -0.273 OA
ATOM      5  C   UNL d   1      53.293  33.585  54.200  0.00  0.00     0.023 A 
ATOM      6  C   UNL d   1      53.694  32.947  53.864  0.00  0.00     0.103 A 
ATOM      7  O   UNL d   1      52.233  32.200  52.413  0.00  0.00    -0.259 OA
ATOM      8  C   UNL d   1      53.637  34.041  54.785  0.00  0.00     0.002 A 
ATOM      9  C   UNL d   1      54.449  32.747  54.105  0.00  0.00     0.025 A 
ATOM     10  C   UNL d   1      54.805  33.205  54.699  0.00  0.00     0.002 A 
ATOM     11  C   UNL d   1      54.397  33.855  55.041  0.00  0.00     0.000 A 
ENDROOT
BRANCH   1  12
ATOM     12  C   UNL d   1      51.388  33.549  53.121  0.00  0.00     0.284 C 
ATOM     13  N   UNL d   1      51.254  34.236  52.685  0.00  0.00    -0.208 NA
ATOM     14  O   UNL d   1      50.762  33.040  53.338  0.00  0.00    -0.265 OA
BRANCH  13  15
ATOM     15  C   UNL d   1      50.482  34.433  52.454  0.00  0.00     0.085 A 
ATOM     16  C   UNL d   1      50.220  34.280  51.686  0.00  0.00     0.019 A 
ATOM     17  C   UNL d   1      49.470  34.474  51.472  0.00  0.00     0.002 A 
ATOM     18  C   UNL d   1      49.210  34.322  50.708  0.00  0.00     0.000 C 
ATOM     19  C   UNL d   1      48.959  34.824  52.008  0.00  0.00     0.000 A 
ATOM     20  C   UNL d   1      49.228  34.981  52.796  0.00  0.00     0.002 A 
ATOM     21  C   UNL d   1      48.179  35.020  51.767  0.00  0.00     0.000 C 
ATOM     22  C   UNL d   1      49.994  34.780  53.007  0.00  0.00     0.019 A 
ENDBRANCH  13  15
ENDBRANCH   1  12
TORSDOF 2
ENDMDL
MODEL 2
REMARK VINA RESULT:      -8.9      1.044      4.614
REMARK  2 active torsions:
REMARK  status: ('A' for Active; 'I' for Inactive)
REMARK    1  A    between atoms: C_3  and  C_1 
REMARK       I    between atoms: N_6  and  C_3 
REMARK    2  A    between atoms: C_11  and  N_6 
ROOT
ATOM      1  C   UNL d   1      51.133  34.416  52.693  0.00  0.00     0.121 A 
ATOM      2  C   UNL d   1      51.015  34.156  51.903  0.00  0.00     0.305 A 
ATOM      3  C   UNL d   1      50.511  34.772  53.102  0.00  0.00     0.012 A 
ATOM      4  O   UNL d   1      50.276  34.255  51.530  0.00  0.00    -0.273 OA
ATOM      5  C   UNL d   1      49.779  34.869  52.730  0.00  0.00     0.023 A 
ATOM      6  C   UNL d   1      49.664  34.613  51.954  0.00  0.00     0.103 A 
ATOM      7  O   UNL d   1      51.627  33.786  51.445  0.00  0.00    -0.259 OA
ATOM      8  C   UNL d   1      49.177  35.223  53.153  0.00  0.00     0.002 A 
ATOM      9  C   UNL d   1      48.942  34.705  51.580  0.00  0.00     0.025 A 
ATOM     10  C   UNL d   1      48.326  35.065  52.005  0.00  0.00     0.002 A 
ATOM     11  C   UNL d   1      48.444  35.325  52.794  0.00  0.00     0.000 A 
ENDROOT
BRANCH   1  12
ATOM     12  C   UNL d   1      51.871  34.325  53.084  0.00  0.00     0.284 C 
ATOM     13  N   UNL d   1      51.971  33.753  53.670  0.00  0.00    -0.208 NA
ATOM     14  O   UNL d   1      52.495  34.832  52.857  0.00  0.00    -0.265 OA
BRANCH  13  15
ATOM     15  C   UNL d   1      52.706  33.675  54.047  0.00  0.00     0.085 A 
ATOM     16  C   UNL d   1      53.203  33.039  53.875  0.00  0.00     0.019 A 
ATOM     17  C   UNL d   1      53.912  32.972  54.245  0.00  0.00     0.002 A 
ATOM     18  C   UNL d   1      54.406  32.339  54.074  0.00  0.00     0.000 C 
ATOM     19  C   UNL d   1      54.151  33.530  54.795  0.00  0.00     0.000 A 
ATOM     20  C   UNL d   1      53.641  34.184  54.972  0.00  0.00     0.002 A 
ATOM     21  C   UNL d   1      54.896  33.445  55.173  0.00  0.00     0.000 C 
ATOM     22  C   UNL d   1      52.920  34.244  54.590  0.00  0.00     0.019 A 
ENDBRANCH  13  15
ENDBRANCH   1  12
TORSDOF 2
ENDMDL
MODEL 3
REMARK VINA RESULT:      -8.7      2.301      3.768
REMARK  2 active torsions:
REMARK  status: ('A' for Active; 'I' for Inactive)
REMARK    1  A    between atoms: C_3  and  C_1 
REMARK       I    between atoms: N_6  and  C_3 
REMARK    2  A    between atoms: C_11  and  N_6 
ROOT
ATOM      1  C   UNL d   1      53.255  31.311  53.612  0.00  0.00     0.121 A 
ATOM      2  C   UNL d   1      52.976  30.944  52.910  0.00  0.00     0.305 A 
ATOM      3  C   UNL d   1      53.439  30.847  54.269  0.00  0.00     0.012 A 
ATOM      4  O   UNL d   1      52.883  30.116  52.872  0.00  0.00    -0.273 OA
ATOM      5  C   UNL d   1      53.347  30.026  54.229  0.00  0.00     0.023 A 
ATOM      6  C   UNL d   1      53.072  29.666  53.539  0.00  0.00     0.103 A 
ATOM      7  O   UNL d   1      52.775  31.383  52.211  0.00  0.00    -0.259 OA
ATOM      8  C   UNL d   1      53.535  29.585  54.891  0.00  0.00     0.002 A 
ATOM      9  C   UNL d   1      52.979  28.855  53.493  0.00  0.00     0.025 A 
ATOM     10  C   UNL d   1      53.168  28.401  54.162  0.00  0.00     0.002 A 
ATOM     11  C   UNL d   1      53.447  28.768  54.864  0.00  0.00     0.000 A 
ENDROOT
BRANCH   1  12
ATOM     12  C   UNL d   1      53.354  32.144  53.668  0.00  0.00     0.284 C 
ATOM     13  N   UNL d   1      52.860  32.596  54.150  0.00  0.00    -0.208 NA
ATOM     14  O   UNL d   1      53.966  32.492  53.220  0.00  0.00    -0.265 OA
BRANCH  13  15
ATOM     15  C   UNL d   1      52.970  33.418  54.194  0.00  0.00     0.085 A 
ATOM     16  C   UNL d   1      52.521  33.929  53.727  0.00  0.00     0.019 A 
ATOM     17  C   UNL d   1      52.635  34.723  53.778  0.00  0.00     0.002 A 
ATOM     18  C   UNL d   1      52.188  35.231  53.313  0.00  0.00     0.000 C 
ATOM     19  C   UNL d   1      53.194  35.033  54.289  0.00  0.00     0.000 A 
ATOM     20  C   UNL d   1      53.655  34.508  54.769  0.00  0.00     0.002 A 
ATOM     21  C   UNL d   1      53.300  35.865  54.329  0.00  0.00     0.000 C 
ATOM     22  C   UNL d   1      53.533  33.700  54.712  0.00  0.00     0.019 A 
ENDBRANCH  13  15
ENDBRANCH   1  12
TORSDOF 2
ENDMDL
MODEL 4
REMARK VINA RESULT:      -8.4      1.227      4.663
REMARK  2 active torsions:
REMARK  status: ('A' for Active; 'I' for Inactive)
REMARK    1  A    between atoms: C_3  and  C_1 
REMARK       I    between atoms: N_6  and  C_3 
REMARK    2  A    between atoms: C_11  and  N_6 
ROOT
ATOM      1  C   UNL d   1      50.079  34.554  52.463  0.00  0.00     0.121 A 
ATOM      2  C   UNL d   1      49.702  34.468  51.717  0.00  0.00     0.305 A 
ATOM      3  C   UNL d   1      49.705  34.982  53.062  0.00  0.00     0.012 A 
ATOM      4  O   UNL d   1      48.955  34.811  51.578  0.00  0.00    -0.273 OA
ATOM      5  C   UNL d   1      48.964  35.320  52.921  0.00  0.00     0.023 A 
ATOM      6  C   UNL d   1      48.594  35.236  52.188  0.00  0.00     0.103 A 
ATOM      7  O   UNL d   1      50.050  34.038  51.074  0.00  0.00    -0.259 OA
ATOM      8  C   UNL d   1      48.611  35.739  53.527  0.00  0.00     0.002 A 
ATOM      9  C   UNL d   1      47.862  35.569  52.043  0.00  0.00     0.025 A 
ATOM     10  C   UNL d   1      47.498  35.996  52.655  0.00  0.00     0.002 A 
ATOM     11  C   UNL d   1      47.874  36.081  53.401  0.00  0.00     0.000 A 
ENDROOT
BRANCH   1  12
ATOM     12  C   UNL d   1      50.831  34.215  52.621  0.00  0.00     0.284 C 
ATOM     13  N   UNL d   1      50.919  33.629  53.195  0.00  0.00    -0.208 NA
ATOM     14  O   UNL d   1      51.482  34.493  52.177  0.00  0.00    -0.265 OA
BRANCH  13  15
ATOM     15  C   UNL d   1      51.669  33.304  53.340  0.00  0.00     0.085 A 
ATOM     16  C   UNL d   1      51.869  32.560  53.046  0.00  0.00     0.019 A 
ATOM     17  C   UNL d   1      52.598  32.254  53.191  0.00  0.00     0.002 A 
ATOM     18  C   UNL d   1      52.797  31.513  52.899  0.00  0.00     0.000 C 
ATOM     19  C   UNL d   1      53.148  32.673  53.630  0.00  0.00     0.000 A 
ATOM     20  C   UNL d   1      52.942  33.438  53.932  0.00  0.00     0.002 A 
ATOM     21  C   UNL d   1      53.904  32.338  53.772  0.00  0.00     0.000 C 
ATOM     22  C   UNL d   1      52.197  33.743  53.779  0.00  0.00     0.019 A 
ENDBRANCH  13  15
ENDBRANCH   1  12
TORSDOF 2
ENDMDL
MODEL 5
REMARK VINA RESULT:      -8.3      2.663      4.420
REMARK  2 active torsions:
REMARK  status: ('A' for Active; 'I' for Inactive)
REMARK    1  A    between atoms: C_3  and  C_1 
REMARK       I    between atoms: N_6  and  C_3 
REMARK    2  A    between atoms: C_11  and  N_6 
ROOT
ATOM      1  C   UNL d   1      53.656  33.093  54.269  0.00  0.00     0.121 A 
ATOM      2  C   UNL d   1      54.136  33.362  54.904  0.00  0.00     0.305 A 
ATOM      3  C   UNL d   1      53.156  33.624  53.882  0.00  0.00     0.012 A 
ATOM      4  O   UNL d   1      54.112  34.160  55.145  0.00  0.00    -0.273 OA
ATOM      5  C   UNL d   1      53.134  34.414  54.124  0.00  0.00     0.023 A 
ATOM      6  C   UNL d   1      53.605  34.678  54.747  0.00  0.00     0.103 A 
ATOM      7  O   UNL d   1      54.664  32.851  55.329  0.00  0.00    -0.259 OA
ATOM      8  C   UNL d   1      52.632  34.923  53.727  0.00  0.00     0.002 A 
ATOM      9  C   UNL d   1      53.588  35.459  54.990  0.00  0.00     0.025 A 
ATOM     10  C   UNL d   1      53.080  35.981  54.591  0.00  0.00     0.002 A 
ATOM     11  C   UNL d   1      52.600  35.712  53.957  0.00  0.00     0.000 A 
ENDROOT
BRANCH   1  12
ATOM     12  C   UNL d   1      53.668  32.292  54.013  0.00  0.00     0.284 C 
ATOM     13  N   UNL d   1      53.003  31.812  54.099  0.00  0.00    -0.208 NA
ATOM     14  O   UNL d   1      54.373  32.006  53.671  0.00  0.00    -0.265 OA
BRANCH  13  15
ATOM     15  C   UNL d   1      53.030  31.023  53.841  0.00  0.00     0.085 A 
ATOM     16  C   UNL d   1      53.186  30.411  54.373  0.00  0.00     0.019 A 
ATOM     17  C   UNL d   1      53.210  29.651  54.113  0.00  0.00     0.002 A 
ATOM     18  C   UNL d   1      53.366  29.043  54.642  0.00  0.00     0.000 C 
ATOM     19  C   UNL d   1      53.081  29.474  53.324  0.00  0.00     0.000 A 
ATOM     20  C   UNL d   1      52.920  30.103  52.778  0.00  0.00     0.002 A 
ATOM     21  C   UNL d   1      53.110  28.674  53.070  0.00  0.00     0.000 C 
ATOM     22  C   UNL d   1      52.898  30.875  53.051  0.00  0.00     0.019 A 
ENDBRANCH  13  15
ENDBRANCH   1  12
TORSDOF 2
ENDMDL
