MODEL 1
REMARK VINA RESULT:      -5.4      0.000      0.000
REMARK  8 active torsions:
REMARK  status: ('A' for Active; 'I' for Inactive)
REMARK    1  A    between atoms: N_2  and  S_1 
REMARK    2  A    between atoms: C_5  and  S_1 
REMARK    3  A    between atoms: C_11  and  C_3 
REMARK       I    between atoms: C_4  and  N_9 
REMARK    4  A    between atoms: C_6  and  C_4 
REMARK       I    between atoms: N_16  and  C_6 
REMARK    5  A    between atoms: N_9  and  C_11 
REMARK    6  A    between atoms: N_10  and  C_25 
REMARK    7  A    between atoms: C_24  and  N_16 
REMARK    8  A    between atoms: C_25  and  C_24 
ROOT
ATOM      1  N   UNL d   1     -46.432  12.107  23.065  0.00  0.00    -0.209 N 
ATOM      2  C   UNL d   1     -45.632  12.088  22.869  0.00  0.00     0.197 A 
ATOM      3  O   UNL d   1     -45.160  11.458  23.076  0.00  0.00    -0.287 OA
ATOM      4  C   UNL d   1     -46.770  11.468  23.484  0.00  0.00     0.096 A 
ATOM      5  C   UNL d   1     -46.288  10.819  23.698  0.00  0.00     0.047 A 
ATOM      6  C   UNL d   1     -45.490  10.819  23.494  0.00  0.00     0.126 A 
ENDROOT
BRANCH   2   7
ATOM      7  C   UNL d   1     -45.302  12.734  22.449  0.00  0.00     0.146 C 
BRANCH   7   8
ATOM      8  N   UNL d   1     -44.573  12.653  22.076  0.00  0.00    -0.199 NA
ATOM      9  C   UNL d   1     -44.180  13.306  21.778  0.00  0.00     0.337 C 
ATOM     10  O   UNL d   1     -44.527  14.051  21.857  0.00  0.00    -0.260 OA
BRANCH   9  11
ATOM     11  C   UNL d   1     -43.455  13.225  21.408  0.00  0.00     0.337 C 
ATOM     12  O   UNL d   1     -43.304  12.562  20.941  0.00  0.00    -0.260 OA
ATOM     13  N   UNL d   1     -42.880  13.801  21.500  0.00  0.00    -0.201 NA
BRANCH  13  14
ATOM     14  C   UNL d   1     -42.159  13.720  21.133  0.00  0.00     0.121 C 
BRANCH  14  15
ATOM     15  C   UNL d   1     -41.692  14.383  20.979  0.00  0.00     0.101 C 
BRANCH  15  16
ATOM     16  N   UNL d   1     -40.898  14.280  20.765  0.00  0.00    -0.298 N 
ATOM     17  C   UNL d   1     -40.691  14.253  19.973  0.00  0.00     0.107 A 
ATOM     18  C   UNL d   1     -39.895  14.150  19.745  0.00  0.00     0.142 A 
ATOM     19  O   UNL d   1     -39.318  14.076  20.326  0.00  0.00    -0.300 OA
ATOM     20  C   UNL d   1     -39.550  14.107  21.137  0.00  0.00     0.142 A 
ATOM     21  C   UNL d   1     -40.316  14.206  21.346  0.00  0.00     0.107 A 
ENDBRANCH  15  16
ENDBRANCH  14  15
ENDBRANCH  13  14
ENDBRANCH   9  11
ENDBRANCH   7   8
ENDBRANCH   2   7
BRANCH   1  22
ATOM     22  S   UNL d   1     -46.903  12.746  22.853  0.00  0.00     0.273 S 
ATOM     23  O   UNL d   1     -47.156  12.337  22.180  0.00  0.00    -0.200 OA
ATOM     24  O   UNL d   1     -46.651  13.153  23.524  0.00  0.00    -0.200 OA
BRANCH  22  25
ATOM     25  C   UNL d   1     -47.379  13.394  22.641  0.00  0.00     0.104 A 
ATOM     26  C   UNL d   1     -47.861  13.348  21.988  0.00  0.00     0.015 A 
ATOM     27  C   UNL d   1     -48.339  13.994  21.772  0.00  0.00     0.030 A 
ATOM     28  C   UNL d   1     -48.319  14.680  22.227  0.00  0.00     0.140 A 
ATOM     29  C   UNL d   1     -47.825  14.734  22.902  0.00  0.00     0.030 A 
ATOM     30  F   UNL d   1     -48.791  15.323  22.017  0.00  0.00    -0.204 F 
ATOM     31  C   UNL d   1     -47.359  14.088  23.102  0.00  0.00     0.015 A 
ENDBRANCH  22  25
ENDBRANCH   1  22
TORSDOF 8
ENDMDL
MODEL 2
REMARK VINA RESULT:      -3.8      1.109      1.502
REMARK  8 active torsions:
REMARK  status: ('A' for Active; 'I' for Inactive)
REMARK    1  A    between atoms: N_2  and  S_1 
REMARK    2  A    between atoms: C_5  and  S_1 
REMARK    3  A    between atoms: C_11  and  C_3 
REMARK       I    between atoms: C_4  and  N_9 
REMARK    4  A    between atoms: C_6  and  C_4 
REMARK       I    between atoms: N_16  and  C_6 
REMARK    5  A    between atoms: N_9  and  C_11 
REMARK    6  A    between atoms: N_10  and  C_25 
REMARK    7  A    between atoms: C_24  and  N_16 
REMARK    8  A    between atoms: C_25  and  C_24 
ROOT
ATOM      1  N   UNL d   1     -47.845  12.359  23.119  0.00  0.00    -0.209 N 
ATOM      2  C   UNL d   1     -47.030  12.281  23.037  0.00  0.00     0.197 A 
ATOM      3  O   UNL d   1     -46.644  11.605  23.275  0.00  0.00    -0.287 OA
ATOM      4  C   UNL d   1     -48.290  11.736  23.452  0.00  0.00     0.096 A 
ATOM      5  C   UNL d   1     -47.896  11.040  23.698  0.00  0.00     0.047 A 
ATOM      6  C   UNL d   1     -47.080  10.979  23.608  0.00  0.00     0.126 A 
ENDROOT
BRANCH   2   7
ATOM      7  C   UNL d   1     -46.593  12.912  22.701  0.00  0.00     0.146 C 
BRANCH   7   8
ATOM      8  N   UNL d   1     -45.960  12.754  22.200  0.00  0.00    -0.199 NA
ATOM      9  C   UNL d   1     -45.318  13.260  22.163  0.00  0.00     0.337 C 
ATOM     10  O   UNL d   1     -45.314  13.935  22.638  0.00  0.00    -0.260 OA
BRANCH   9  11
ATOM     11  C   UNL d   1     -44.689  13.102  21.664  0.00  0.00     0.337 C 
ATOM     12  O   UNL d   1     -44.820  12.719  20.945  0.00  0.00    -0.260 OA
ATOM     13  N   UNL d   1     -43.930  13.324  21.877  0.00  0.00    -0.201 NA
BRANCH  13  14
ATOM     14  C   UNL d   1     -43.305  13.167  21.382  0.00  0.00     0.121 C 
BRANCH  14  15
ATOM     15  C   UNL d   1     -42.529  13.292  21.634  0.00  0.00     0.101 C 
BRANCH  15  16
ATOM     16  N   UNL d   1     -41.982  13.633  21.114  0.00  0.00    -0.298 N 
ATOM     17  C   UNL d   1     -41.444  14.183  21.393  0.00  0.00     0.107 A 
ATOM     18  C   UNL d   1     -40.888  14.534  20.879  0.00  0.00     0.142 A 
ATOM     19  O   UNL d   1     -40.885  14.320  20.085  0.00  0.00    -0.300 OA
ATOM     20  C   UNL d   1     -41.447  13.751  19.815  0.00  0.00     0.142 A 
ATOM     21  C   UNL d   1     -41.977  13.420  20.315  0.00  0.00     0.107 A 
ENDBRANCH  15  16
ENDBRANCH  14  15
ENDBRANCH  13  14
ENDBRANCH   9  11
ENDBRANCH   7   8
ENDBRANCH   2   7
BRANCH   1  22
ATOM     22  S   UNL d   1     -48.229  13.045  22.876  0.00  0.00     0.273 S 
ATOM     23  O   UNL d   1     -48.227  13.323  23.656  0.00  0.00    -0.200 OA
ATOM     24  O   UNL d   1     -48.232  12.767  22.100  0.00  0.00    -0.200 OA
BRANCH  22  25
ATOM     25  C   UNL d   1     -48.618  13.737  22.628  0.00  0.00     0.104 A 
ATOM     26  C   UNL d   1     -49.189  13.697  22.051  0.00  0.00     0.015 A 
ATOM     27  C   UNL d   1     -49.581  14.387  21.799  0.00  0.00     0.030 A 
ATOM     28  C   UNL d   1     -49.383  15.109  22.141  0.00  0.00     0.140 A 
ATOM     29  C   UNL d   1     -48.796  15.158  22.737  0.00  0.00     0.030 A 
ATOM     30  F   UNL d   1     -49.769  15.797  21.895  0.00  0.00    -0.204 F 
ATOM     31  C   UNL d   1     -48.419  14.468  22.974  0.00  0.00     0.015 A 
ENDBRANCH  22  25
ENDBRANCH   1  22
TORSDOF 8
ENDMDL
MODEL 3
REMARK VINA RESULT:      -3.7      1.495      2.441
REMARK  8 active torsions:
REMARK  status: ('A' for Active; 'I' for Inactive)
REMARK    1  A    between atoms: N_2  and  S_1 
REMARK    2  A    between atoms: C_5  and  S_1 
REMARK    3  A    between atoms: C_11  and  C_3 
REMARK       I    between atoms: C_4  and  N_9 
REMARK    4  A    between atoms: C_6  and  C_4 
REMARK       I    between atoms: N_16  and  C_6 
REMARK    5  A    between atoms: N_9  and  C_11 
REMARK    6  A    between atoms: N_10  and  C_25 
REMARK    7  A    between atoms: C_24  and  N_16 
REMARK    8  A    between atoms: C_25  and  C_24 
ROOT
ATOM      1  N   UNL d   1     -47.211  14.045  22.654  0.00  0.00    -0.209 N 
ATOM      2  C   UNL d   1     -46.413  14.127  22.468  0.00  0.00     0.197 A 
ATOM      3  O   UNL d   1     -46.077  14.860  22.361  0.00  0.00    -0.287 OA
ATOM      4  C   UNL d   1     -47.689  14.725  22.737  0.00  0.00     0.096 A 
ATOM      5  C   UNL d   1     -47.346  15.480  22.627  0.00  0.00     0.047 A 
ATOM      6  C   UNL d   1     -46.547  15.542  22.441  0.00  0.00     0.126 A 
ENDROOT
BRANCH   2   7
ATOM      7  C   UNL d   1     -45.943  13.438  22.387  0.00  0.00     0.146 C 
BRANCH   7   8
ATOM      8  N   UNL d   1     -45.289  13.443  21.888  0.00  0.00    -0.199 NA
ATOM      9  C   UNL d   1     -44.673  12.916  21.999  0.00  0.00     0.337 C 
ATOM     10  O   UNL d   1     -44.717  12.376  22.623  0.00  0.00    -0.260 OA
BRANCH   9  11
ATOM     11  C   UNL d   1     -44.022  12.920  21.503  0.00  0.00     0.337 C 
ATOM     12  O   UNL d   1     -44.006  12.424  20.843  0.00  0.00    -0.260 OA
ATOM     13  N   UNL d   1     -43.390  13.416  21.659  0.00  0.00    -0.201 NA
BRANCH  13  14
ATOM     14  C   UNL d   1     -42.744  13.420  21.165  0.00  0.00     0.121 C 
BRANCH  14  15
ATOM     15  C   UNL d   1     -42.000  13.637  21.450  0.00  0.00     0.101 C 
BRANCH  15  16
ATOM     16  N   UNL d   1     -41.525  14.147  21.003  0.00  0.00    -0.298 N 
ATOM     17  C   UNL d   1     -41.642  14.956  21.049  0.00  0.00     0.107 A 
ATOM     18  C   UNL d   1     -41.169  15.480  20.602  0.00  0.00     0.142 A 
ATOM     19  O   UNL d   1     -40.583  15.174  20.114  0.00  0.00    -0.300 OA
ATOM     20  C   UNL d   1     -40.477  14.337  20.079  0.00  0.00     0.142 A 
ATOM     21  C   UNL d   1     -40.935  13.843  20.511  0.00  0.00     0.107 A 
ENDBRANCH  15  16
ENDBRANCH  14  15
ENDBRANCH  13  14
ENDBRANCH   9  11
ENDBRANCH   7   8
ENDBRANCH   2   7
BRANCH   1  22
ATOM     22  S   UNL d   1     -47.545  13.301  22.761  0.00  0.00     0.273 S 
ATOM     23  O   UNL d   1     -47.300  13.304  23.551  0.00  0.00    -0.200 OA
ATOM     24  O   UNL d   1     -47.789  13.300  21.973  0.00  0.00    -0.200 OA
BRANCH  22  25
ATOM     25  C   UNL d   1     -47.884  12.549  22.866  0.00  0.00     0.104 A 
ATOM     26  C   UNL d   1     -47.799  12.161  23.575  0.00  0.00     0.015 A 
ATOM     27  C   UNL d   1     -48.137  11.408  23.684  0.00  0.00     0.030 A 
ATOM     28  C   UNL d   1     -48.557  11.061  23.067  0.00  0.00     0.140 A 
ATOM     29  C   UNL d   1     -48.648  11.456  22.333  0.00  0.00     0.030 A 
ATOM     30  F   UNL d   1     -48.893  10.314  23.171  0.00  0.00    -0.204 F 
ATOM     31  C   UNL d   1     -48.309  12.199  22.241  0.00  0.00     0.015 A 
ENDBRANCH  22  25
ENDBRANCH   1  22
TORSDOF 8
ENDMDL
MODEL 4
REMARK VINA RESULT:      -3.1      1.872      3.139
REMARK  8 active torsions:
REMARK  status: ('A' for Active; 'I' for Inactive)
REMARK    1  A    between atoms: N_2  and  S_1 
REMARK    2  A    between atoms: C_5  and  S_1 
REMARK    3  A    between atoms: C_11  and  C_3 
REMARK       I    between atoms: C_4  and  N_9 
REMARK    4  A    between atoms: C_6  and  C_4 
REMARK       I    between atoms: N_16  and  C_6 
REMARK    5  A    between atoms: N_9  and  C_11 
REMARK    6  A    between atoms: N_10  and  C_25 
REMARK    7  A    between atoms: C_24  and  N_16 
REMARK    8  A    between atoms: C_25  and  C_24 
ROOT
ATOM      1  N   UNL d   1     -48.410  14.334  22.553  0.00  0.00    -0.209 N 
ATOM      2  C   UNL d   1     -47.595  14.242  22.623  0.00  0.00     0.197 A 
ATOM      3  O   UNL d   1     -47.086  14.867  22.506  0.00  0.00    -0.287 OA
ATOM      4  C   UNL d   1     -48.727  15.082  22.357  0.00  0.00     0.096 A 
ATOM      5  C   UNL d   1     -48.207  15.726  22.236  0.00  0.00     0.047 A 
ATOM      6  C   UNL d   1     -47.395  15.615  22.311  0.00  0.00     0.126 A 
ENDROOT
BRANCH   2   7
ATOM      7  C   UNL d   1     -47.287  13.488  22.820  0.00  0.00     0.146 C 
BRANCH   7   8
ATOM      8  N   UNL d   1     -46.488  13.327  22.706  0.00  0.00    -0.199 NA
ATOM      9  C   UNL d   1     -46.175  12.596  22.901  0.00  0.00     0.337 C 
ATOM     10  O   UNL d   1     -46.676  12.020  23.217  0.00  0.00    -0.260 OA
BRANCH   9  11
ATOM     11  C   UNL d   1     -45.381  12.436  22.788  0.00  0.00     0.337 C 
ATOM     12  O   UNL d   1     -45.001  11.882  23.267  0.00  0.00    -0.260 OA
ATOM     13  N   UNL d   1     -44.964  12.825  22.200  0.00  0.00    -0.201 NA
BRANCH  13  14
ATOM     14  C   UNL d   1     -44.175  12.666  22.087  0.00  0.00     0.121 C 
BRANCH  14  15
ATOM     15  C   UNL d   1     -43.837  12.734  21.337  0.00  0.00     0.101 C 
BRANCH  15  16
ATOM     16  N   UNL d   1     -43.072  13.044  21.261  0.00  0.00    -0.298 N 
ATOM     17  C   UNL d   1     -42.461  12.731  21.707  0.00  0.00     0.107 A 
ATOM     18  C   UNL d   1     -41.687  13.035  21.640  0.00  0.00     0.142 A 
ATOM     19  O   UNL d   1     -41.543  13.655  21.118  0.00  0.00    -0.300 OA
ATOM     20  C   UNL d   1     -42.186  13.964  20.666  0.00  0.00     0.142 A 
ATOM     21  C   UNL d   1     -42.925  13.666  20.738  0.00  0.00     0.107 A 
ENDBRANCH  15  16
ENDBRANCH  14  15
ENDBRANCH  13  14
ENDBRANCH   9  11
ENDBRANCH   7   8
ENDBRANCH   2   7
BRANCH   1  22
ATOM     22  S   UNL d   1     -48.918  13.699  22.673  0.00  0.00     0.273 S 
ATOM     23  O   UNL d   1     -48.953  13.879  23.480  0.00  0.00    -0.200 OA
ATOM     24  O   UNL d   1     -48.882  13.521  21.869  0.00  0.00    -0.200 OA
BRANCH  22  25
ATOM     25  C   UNL d   1     -49.432  13.056  22.791  0.00  0.00     0.104 A 
ATOM     26  C   UNL d   1     -49.727  12.649  22.153  0.00  0.00     0.015 A 
ATOM     27  C   UNL d   1     -50.241  12.005  22.266  0.00  0.00     0.030 A 
ATOM     28  C   UNL d   1     -50.448  11.785  23.032  0.00  0.00     0.140 A 
ATOM     29  C   UNL d   1     -50.147  12.199  23.695  0.00  0.00     0.030 A 
ATOM     30  F   UNL d   1     -50.958  11.146  23.149  0.00  0.00    -0.204 F 
ATOM     31  C   UNL d   1     -49.640  12.833  23.566  0.00  0.00     0.015 A 
ENDBRANCH  22  25
ENDBRANCH   1  22
TORSDOF 8
ENDMDL
MODEL 5
REMARK VINA RESULT:      -2.9      1.347      2.298
REMARK  8 active torsions:
REMARK  status: ('A' for Active; 'I' for Inactive)
REMARK    1  A    between atoms: N_2  and  S_1 
REMARK    2  A    between atoms: C_5  and  S_1 
REMARK    3  A    between atoms: C_11  and  C_3 
REMARK       I    between atoms: C_4  and  N_9 
REMARK    4  A    between atoms: C_6  and  C_4 
REMARK       I    between atoms: N_16  and  C_6 
REMARK    5  A    between atoms: N_9  and  C_11 
REMARK    6  A    between atoms: N_10  and  C_25 
REMARK    7  A    between atoms: C_24  and  N_16 
REMARK    8  A    between atoms: C_25  and  C_24 
ROOT
ATOM      1  N   UNL d   1     -46.526  13.783  22.719  0.00  0.00    -0.209 N 
ATOM      2  C   UNL d   1     -45.778  13.922  22.404  0.00  0.00     0.197 A 
ATOM      3  O   UNL d   1     -45.530  14.676  22.220  0.00  0.00    -0.287 OA
ATOM      4  C   UNL d   1     -47.043  14.424  22.856  0.00  0.00     0.096 A 
ATOM      5  C   UNL d   1     -46.791  15.199  22.668  0.00  0.00     0.047 A 
ATOM      6  C   UNL d   1     -46.040  15.319  22.354  0.00  0.00     0.126 A 
ENDROOT
BRANCH   2   7
ATOM      7  C   UNL d   1     -45.267  13.272  22.270  0.00  0.00     0.146 C 
BRANCH   7   8
ATOM      8  N   UNL d   1     -44.591  13.368  21.811  0.00  0.00    -0.199 NA
ATOM      9  C   UNL d   1     -43.991  12.811  21.826  0.00  0.00     0.337 C 
ATOM     10  O   UNL d   1     -44.074  12.148  22.312  0.00  0.00    -0.260 OA
BRANCH   9  11
ATOM     11  C   UNL d   1     -43.319  12.906  21.369  0.00  0.00     0.337 C 
ATOM     12  O   UNL d   1     -43.277  12.556  20.623  0.00  0.00    -0.260 OA
ATOM     13  N   UNL d   1     -42.690  13.348  21.651  0.00  0.00    -0.201 NA
BRANCH  13  14
ATOM     14  C   UNL d   1     -42.022  13.442  21.197  0.00  0.00     0.121 C 
BRANCH  14  15
ATOM     15  C   UNL d   1     -41.568  14.129  21.257  0.00  0.00     0.101 C 
BRANCH  15  16
ATOM     16  N   UNL d   1     -40.880  14.204  20.802  0.00  0.00    -0.298 N 
ATOM     17  C   UNL d   1     -40.921  14.542  20.058  0.00  0.00     0.107 A 
ATOM     18  C   UNL d   1     -40.234  14.623  19.589  0.00  0.00     0.142 A 
ATOM     19  O   UNL d   1     -39.514  14.358  19.885  0.00  0.00    -0.300 OA
ATOM     20  C   UNL d   1     -39.492  14.013  20.655  0.00  0.00     0.142 A 
ATOM     21  C   UNL d   1     -40.155  13.939  21.096  0.00  0.00     0.107 A 
ENDBRANCH  15  16
ENDBRANCH  14  15
ENDBRANCH  13  14
ENDBRANCH   9  11
ENDBRANCH   7   8
ENDBRANCH   2   7
BRANCH   1  22
ATOM     22  S   UNL d   1     -46.771  13.020  22.902  0.00  0.00     0.273 S 
ATOM     23  O   UNL d   1     -47.198  12.987  22.194  0.00  0.00    -0.200 OA
ATOM     24  O   UNL d   1     -46.345  13.054  23.607  0.00  0.00    -0.200 OA
BRANCH  22  25
ATOM     25  C   UNL d   1     -47.017  12.248  23.090  0.00  0.00     0.104 A 
ATOM     26  C   UNL d   1     -47.756  11.992  22.868  0.00  0.00     0.015 A 
ATOM     27  C   UNL d   1     -48.007  11.221  23.054  0.00  0.00     0.030 A 
ATOM     28  C   UNL d   1     -47.499  10.720  23.465  0.00  0.00     0.140 A 
ATOM     29  C   UNL d   1     -46.736  10.977  23.697  0.00  0.00     0.030 A 
ATOM     30  F   UNL d   1     -47.744   9.954  23.652  0.00  0.00    -0.204 F 
ATOM     31  C   UNL d   1     -46.503  11.742  23.506  0.00  0.00     0.015 A 
ENDBRANCH  22  25
ENDBRANCH   1  22
TORSDOF 8
ENDMDL
