MODEL 1
REMARK VINA RESULT:      55.5      0.000      0.000
REMARK  5 active torsions:
REMARK  status: ('A' for Active; 'I' for Inactive)
REMARK    1  A    between atoms: N_2  and  C_1 
REMARK    2  A    between atoms: N_3  and  C_1 
REMARK       I    between atoms: C_6  and  N_3 
REMARK    3  A    between atoms: C_12  and  C_6 
REMARK    4  A    between atoms: O_11  and  C_12 
REMARK    5  A    between atoms: C_13  and  O_11 
ROOT
ATOM      1  C   UNL d   1     -49.805  27.351  33.878  0.00  0.00     0.209 C 
ATOM      2  S   UNL d   1     -49.492  27.912  33.372  0.00  0.00    -0.038 SA
ENDROOT
BRANCH   1   3
ATOM      3  N   UNL d   1     -50.550  27.027  33.711  0.00  0.00    -0.282 N 
ATOM      4  C   UNL d   1     -50.723  26.233  33.599  0.00  0.00     0.066 A 
ATOM      5  C   UNL d   1     -51.527  26.161  33.447  0.00  0.00     0.018 A 
ATOM      6  C   UNL d   1     -50.241  25.561  33.617  0.00  0.00     0.018 A 
ATOM      7  C   UNL d   1     -51.854  25.416  33.312  0.00  0.00     0.002 A 
ATOM      8  C   UNL d   1     -51.853  26.910  33.465  0.00  0.00     0.021 A 
ATOM      9  C   UNL d   1     -51.376  24.731  33.329  0.00  0.00     0.000 A 
ATOM     10  C   UNL d   1     -50.571  24.803  33.481  0.00  0.00     0.002 A 
ATOM     11  C   UNL d   1     -51.251  27.449  33.628  0.00  0.00     0.082 A 
ENDBRANCH   1   3
BRANCH   1  12
ATOM     12  N   UNL d   1     -49.390  27.111  34.541  0.00  0.00    -0.178 NA
ATOM     13  C   UNL d   1     -48.872  27.636  34.917  0.00  0.00     0.306 C 
ATOM     14  O   UNL d   1     -48.455  27.391  35.585  0.00  0.00    -0.263 OA
BRANCH  13  15
ATOM     15  C   UNL d   1     -48.775  28.392  34.627  0.00  0.00     0.185 C 
BRANCH  15  16
ATOM     16  O   UNL d   1     -48.021  28.722  34.584  0.00  0.00    -0.300 OA
BRANCH  16  17
ATOM     17  C   UNL d   1     -47.842  29.396  35.035  0.00  0.00     0.100 A 
ATOM     18  C   UNL d   1     -47.590  30.078  34.661  0.00  0.00     0.025 A 
ATOM     19  C   UNL d   1     -47.412  30.751  35.105  0.00  0.00     0.002 A 
ATOM     20  C   UNL d   1     -47.489  30.733  35.929  0.00  0.00     0.000 A 
ATOM     21  C   UNL d   1     -47.743  30.044  36.302  0.00  0.00     0.002 A 
ATOM     22  C   UNL d   1     -47.921  29.372  35.858  0.00  0.00     0.025 A 
ENDBRANCH  16  17
ENDBRANCH  15  16
ENDBRANCH  13  15
ENDBRANCH   1  12
TORSDOF 5
ENDMDL
