MODEL 1
REMARK VINA RESULT:      38.0      0.000      0.000
REMARK  4 active torsions:
REMARK  status: ('A' for Active; 'I' for Inactive)
REMARK    1  A    between atoms: C_10  and  C_2 
REMARK    2  A    between atoms: C_13  and  C_6 
REMARK    3  A    between atoms: O_17  and  C_10 
REMARK    4  A    between atoms: C_23  and  O_17 
ROOT
ATOM      1  C   UNL d   1     -52.048  24.989  33.403  0.00  0.00     0.081 A 
ATOM      2  C   UNL d   1     -51.052  26.016  33.499  0.00  0.00     0.106 A 
ATOM      3  C   UNL d   1     -51.646  26.595  33.532  0.00  0.00     0.208 A 
ATOM      4  C   UNL d   1     -52.642  25.569  33.436  0.00  0.00     0.108 A 
ATOM      5  C   UNL d   1     -52.253  24.190  33.339  0.00  0.00     0.281 A 
ATOM      6  C   UNL d   1     -51.252  25.210  33.434  0.00  0.00     0.015 A 
ATOM      7  O   UNL d   1     -52.442  26.363  33.500  0.00  0.00    -0.288 OA
ATOM      8  N   UNL d   1     -53.050  23.968  33.307  0.00  0.00    -0.208 NA
ATOM      9  C   UNL d   1     -53.441  25.351  33.405  0.00  0.00     0.044 A 
ATOM     10  C   UNL d   1     -53.653  24.545  33.340  0.00  0.00     0.087 A 
ATOM     11  O   UNL d   1     -51.664  23.618  33.306  0.00  0.00    -0.265 OA
ATOM     12  N   UNL d   1     -51.445  27.383  33.596  0.00  0.00    -0.121 N 
ATOM     13  C   UNL d   1     -54.437  24.324  33.308  0.00  0.00     0.021 C 
ENDROOT
BRANCH   6  14
ATOM     14  C   UNL d   1     -50.665  24.636  33.402  0.00  0.00     0.004 A 
ATOM     15  C   UNL d   1     -50.878  23.841  33.360  0.00  0.00     0.021 A 
ATOM     16  C   UNL d   1     -50.291  23.266  33.328  0.00  0.00     0.099 A 
ATOM     17  N   UNL d   1     -49.500  23.487  33.336  0.00  0.00    -0.242 NA
ATOM     18  C   UNL d   1     -49.292  24.287  33.378  0.00  0.00     0.099 A 
ATOM     19  C   UNL d   1     -49.873  24.856  33.411  0.00  0.00     0.021 A 
ENDBRANCH   6  14
BRANCH   2  20
ATOM     20  C   UNL d   1     -50.262  26.242  33.531  0.00  0.00     0.304 C 
ATOM     21  O   UNL d   1     -49.677  25.666  33.574  0.00  0.00    -0.259 OA
BRANCH  20  22
ATOM     22  O   UNL d   1     -50.059  27.032  33.520  0.00  0.00    -0.271 OA
BRANCH  22  23
ATOM     23  C   UNL d   1     -49.302  27.272  33.308  0.00  0.00     0.126 C 
ATOM     24  C   UNL d   1     -48.833  27.675  33.854  0.00  0.00     0.029 C 
ENDBRANCH  22  23
ENDBRANCH  20  22
ENDBRANCH   2  20
TORSDOF 4
ENDMDL
