MODEL 1
REMARK VINA RESULT:      92.8      0.000      0.000
REMARK  3 active torsions:
REMARK  status: ('A' for Active; 'I' for Inactive)
REMARK    1  A    between atoms: N_10  and  C_3 
REMARK    2  A    between atoms: C_15  and  N_4 
REMARK    3  A    between atoms: C_20  and  C_15 
ROOT
ATOM      1  C   UNL d   1     -54.959-100.428 -40.778  0.00  0.00     0.191 A 
ATOM      2  C   UNL d   1     -54.960-101.102 -41.261  0.00  0.00     0.173 A 
ATOM      3  C   UNL d   1     -55.105-101.490 -39.991  0.00  0.00     0.738 A 
ATOM      4  N   UNL d   1     -54.796-100.269 -42.407  0.00  0.00    -0.224 N 
ATOM      5  N   UNL d   1     -55.048-100.668 -39.996  0.00  0.00    -0.041 NA
ATOM      6  N   UNL d   1     -54.876 -99.680 -41.107  0.00  0.00    -0.240 N 
ATOM      7  C   UNL d   1     -54.795 -99.599 -41.923  0.00  0.00     0.343 A 
ATOM      8  C   UNL d   1     -54.878-101.018 -42.075  0.00  0.00     0.288 A 
ATOM      9  N   UNL d   1     -55.051-101.760 -40.771  0.00  0.00    -0.130 N 
ATOM     10  O   UNL d   1     -54.712 -98.849 -42.256  0.00  0.00    -0.245 OA
ATOM     11  O   UNL d   1     -54.879-101.688 -42.559  0.00  0.00    -0.265 OA
ATOM     12  C   UNL d   1     -54.875 -99.010 -40.623  0.00  0.00     0.105 C 
ATOM     13  C   UNL d   1     -55.082-102.545 -41.016  0.00  0.00     0.118 C 
ENDROOT
BRANCH   4  14
ATOM     14  C   UNL d   1     -54.713-100.185 -43.227  0.00  0.00     0.087 C 
BRANCH  14  15
ATOM     15  C   UNL d   1     -55.342 -99.900 -43.678  0.00  0.00     0.019 A 
ATOM     16  C   UNL d   1     -55.191 -99.469 -44.375  0.00  0.00     0.014 A 
ATOM     17  C   UNL d   1     -55.820 -99.183 -44.826  0.00  0.00     0.068 A 
ATOM     18 CL   UNL d   1     -55.670 -98.757 -45.515  0.00  0.00    -0.082 Cl
ATOM     19  C   UNL d   1     -56.590 -99.322 -44.590  0.00  0.00     0.068 A 
ATOM     20  C   UNL d   1     -56.743 -99.756 -43.888  0.00  0.00     0.012 A 
ATOM     21 CL   UNL d   1     -57.218 -99.036 -45.040  0.00  0.00    -0.082 Cl
ATOM     22  C   UNL d   1     -56.108-100.038 -43.442  0.00  0.00     0.002 A 
ENDBRANCH  14  15
ENDBRANCH   4  14
BRANCH   3  23
ATOM     23  N   UNL d   1     -55.200-101.964 -39.322  0.00  0.00    -0.059 N 
ATOM     24  N   UNL d   1     -54.734-101.939 -38.644  0.00  0.00    -0.151 NA
ATOM     25  C   UNL d   1     -55.024-102.508 -38.112  0.00  0.00     0.103 A 
ATOM     26  C   UNL d   1     -54.718-102.670 -37.360  0.00  0.00     0.022 C 
ATOM     27  C   UNL d   1     -55.670-102.879 -38.472  0.00  0.00     0.041 A 
ATOM     28  C   UNL d   1     -55.774-102.541 -39.217  0.00  0.00     0.102 A 
ATOM     29  C   UNL d   1     -56.359-102.749 -39.763  0.00  0.00     0.021 C 
ENDBRANCH   3  23
TORSDOF 3
ENDMDL
