MODEL 1
REMARK VINA RESULT:      47.7      0.000      0.000
REMARK  4 active torsions:
REMARK  status: ('A' for Active; 'I' for Inactive)
REMARK    1  A    between atoms: C_7  and  C_1 
REMARK    2  A    between atoms: N_5  and  C_2 
REMARK    3  A    between atoms: C_12  and  N_5 
REMARK    4  A    between atoms: O_21  and  C_14 
ROOT
ATOM      1  C   UNL d   1     -55.523 -99.649 -44.919  0.00  0.00     0.101 A 
ATOM      2  C   UNL d   1     -55.980 -99.462 -44.243  0.00  0.00     0.187 A 
ATOM      3  C   UNL d   1     -55.105-100.360 -44.938  0.00  0.00     0.010 A 
ATOM      4  O   UNL d   1     -56.005 -99.993 -43.609  0.00  0.00    -0.289 OA
ATOM      5  C   UNL d   1     -55.585-100.703 -43.634  0.00  0.00     0.104 A 
ATOM      6  C   UNL d   1     -55.128-100.889 -44.310  0.00  0.00     0.023 A 
ATOM      7  C   UNL d   1     -55.611-101.233 -42.999  0.00  0.00     0.049 A 
ATOM      8  C   UNL d   1     -54.711-101.600 -44.329  0.00  0.00     0.004 A 
ATOM      9  C   UNL d   1     -55.190-101.946 -43.024  0.00  0.00     0.096 A 
ATOM     10  C   UNL d   1     -54.733-102.132 -43.700  0.00  0.00     0.024 A 
ENDROOT
BRANCH   2  11
ATOM     11  N   UNL d   1     -56.398 -98.755 -44.216  0.00  0.00    -0.222 NA
BRANCH  11  12
ATOM     12  C   UNL d   1     -57.232 -98.769 -44.145  0.00  0.00     0.084 A 
ATOM     13  C   UNL d   1     -57.703 -98.755 -44.822  0.00  0.00     0.019 A 
ATOM     14  C   UNL d   1     -58.528 -98.769 -44.751  0.00  0.00     0.002 A 
ATOM     15  C   UNL d   1     -58.863 -98.795 -44.006  0.00  0.00     0.000 A 
ATOM     16  C   UNL d   1     -58.406 -98.809 -43.332  0.00  0.00     0.002 A 
ATOM     17  C   UNL d   1     -59.684 -98.809 -43.919  0.00  0.00     0.000 C 
ATOM     18  C   UNL d   1     -57.581 -98.795 -43.402  0.00  0.00     0.019 A 
ENDBRANCH  11  12
ENDBRANCH   2  11
BRANCH   1  19
ATOM     19  C   UNL d   1     -55.489 -99.126 -45.561  0.00  0.00     0.300 C 
ATOM     20  O   UNL d   1     -56.174 -98.904 -45.952  0.00  0.00    -0.264 OA
ATOM     21  N   UNL d   1     -54.755 -98.833 -45.800  0.00  0.00    -0.102 N 
ENDBRANCH   1  19
BRANCH   9  22
ATOM     22  O   UNL d   1     -55.213-102.470 -42.401  0.00  0.00    -0.328 OA
ATOM     23  C   UNL d   1     -54.845-102.269 -41.690  0.00  0.00     0.181 C 
ENDBRANCH   9  22
TORSDOF 4
ENDMDL
