MODEL 1
REMARK VINA RESULT:      -7.5      0.000      0.000
REMARK  6 active torsions:
REMARK  status: ('A' for Active; 'I' for Inactive)
REMARK    1  A    between atoms: C_7  and  C_3 
REMARK    2  A    between atoms: C_6  and  O_14 
REMARK    3  A    between atoms: S_8  and  C_7 
REMARK    4  A    between atoms: C_17  and  S_8 
REMARK    5  A    between atoms: O_14  and  C_18 
REMARK    6  A    between atoms: C_18  and  C_17 
ROOT
ATOM      1  S   UNL d   1      51.308  33.721  53.075  0.00  0.00    -0.081 SA
ENDROOT
BRANCH   1   2
ATOM      2  C   UNL d   1      50.762  33.964  52.509  0.00  0.00     0.074 C 
BRANCH   2   3
ATOM      3  C   UNL d   1      50.145  34.464  52.724  0.00  0.00     0.169 A 
ATOM      4  N   UNL d   1      49.721  34.974  53.234  0.00  0.00    -0.225 NA
ATOM      5  C   UNL d   1      49.034  35.233  52.830  0.00  0.00     0.101 A 
ATOM      6  C   UNL d   1      49.042  34.880  52.076  0.00  0.00     0.101 A 
ATOM      7  C   UNL d   1      48.406  35.736  53.035  0.00  0.00     0.021 A 
ATOM      8  N   UNL d   1      49.724  34.404  52.002  0.00  0.00    -0.225 NA
ATOM      9  C   UNL d   1      48.422  35.036  51.541  0.00  0.00     0.021 A 
ATOM     10  C   UNL d   1      47.811  35.532  51.757  0.00  0.00     0.002 A 
ATOM     11  C   UNL d   1      47.803  35.882  52.504  0.00  0.00     0.002 A 
ENDBRANCH   2   3
ENDBRANCH   1   2
BRANCH   1  12
ATOM     12  C   UNL d   1      51.908  33.196  52.868  0.00  0.00     0.062 C 
BRANCH  12  13
ATOM     13  C   UNL d   1      52.545  33.079  53.375  0.00  0.00     0.130 C 
BRANCH  13  14
ATOM     14  O   UNL d   1      52.931  32.350  53.380  0.00  0.00    -0.305 OA
BRANCH  14  15
ATOM     15  C   UNL d   1      53.531  32.685  53.837  0.00  0.00     0.100 A 
ATOM     16  C   UNL d   1      53.444  32.745  54.646  0.00  0.00     0.025 A 
ATOM     17  C   UNL d   1      54.041  33.079  55.107  0.00  0.00     0.002 A 
ATOM     18  C   UNL d   1      54.727  33.352  54.749  0.00  0.00     0.000 A 
ATOM     19  C   UNL d   1      54.814  33.290  53.928  0.00  0.00     0.002 A 
ATOM     20  C   UNL d   1      55.327  33.687  55.206  0.00  0.00     0.000 C 
ATOM     21  C   UNL d   1      54.211  32.955  53.475  0.00  0.00     0.025 A 
ENDBRANCH  14  15
ENDBRANCH  13  14
ENDBRANCH  12  13
ENDBRANCH   1  12
TORSDOF 6
ENDMDL
MODEL 2
REMARK VINA RESULT:      -6.4      1.678      5.802
REMARK  6 active torsions:
REMARK  status: ('A' for Active; 'I' for Inactive)
REMARK    1  A    between atoms: C_7  and  C_3 
REMARK    2  A    between atoms: C_6  and  O_14 
REMARK    3  A    between atoms: S_8  and  C_7 
REMARK    4  A    between atoms: C_17  and  S_8 
REMARK    5  A    between atoms: O_14  and  C_18 
REMARK    6  A    between atoms: C_18  and  C_17 
ROOT
ATOM      1  S   UNL d   1      50.338  34.448  53.191  0.00  0.00    -0.081 SA
ENDROOT
BRANCH   1   2
ATOM      2  C   UNL d   1      50.852  33.869  52.913  0.00  0.00     0.074 C 
BRANCH   2   3
ATOM      3  C   UNL d   1      51.572  33.744  53.291  0.00  0.00     0.169 A 
ATOM      4  N   UNL d   1      52.200  33.930  53.813  0.00  0.00    -0.225 NA
ATOM      5  C   UNL d   1      52.764  33.311  53.769  0.00  0.00     0.101 A 
ATOM      6  C   UNL d   1      52.478  32.753  53.221  0.00  0.00     0.101 A 
ATOM      7  C   UNL d   1      53.492  33.175  54.144  0.00  0.00     0.021 A 
ATOM      8  N   UNL d   1      51.743  33.012  52.921  0.00  0.00    -0.225 NA
ATOM      9  C   UNL d   1      52.926  32.068  53.059  0.00  0.00     0.021 A 
ATOM     10  C   UNL d   1      53.639  31.948  53.435  0.00  0.00     0.002 A 
ATOM     11  C   UNL d   1      53.922  32.501  53.978  0.00  0.00     0.002 A 
ENDBRANCH   2   3
ENDBRANCH   1   2
BRANCH   1  12
ATOM     12  C   UNL d   1      49.724  34.716  52.712  0.00  0.00     0.062 C 
BRANCH  12  13
ATOM     13  C   UNL d   1      49.100  35.140  53.043  0.00  0.00     0.130 C 
BRANCH  13  14
ATOM     14  O   UNL d   1      49.138  35.963  53.067  0.00  0.00    -0.305 OA
BRANCH  14  15
ATOM     15  C   UNL d   1      48.319  35.985  53.163  0.00  0.00     0.100 A 
ATOM     16  C   UNL d   1      47.829  35.973  52.511  0.00  0.00     0.025 A 
ATOM     17  C   UNL d   1      47.009  35.995  52.604  0.00  0.00     0.002 A 
ATOM     18  C   UNL d   1      46.685  36.029  53.357  0.00  0.00     0.000 A 
ATOM     19  C   UNL d   1      47.184  36.041  54.017  0.00  0.00     0.002 A 
ATOM     20  C   UNL d   1      45.866  36.050  53.455  0.00  0.00     0.000 C 
ATOM     21  C   UNL d   1      48.002  36.019  53.916  0.00  0.00     0.025 A 
ENDBRANCH  14  15
ENDBRANCH  13  14
ENDBRANCH  12  13
ENDBRANCH   1  12
TORSDOF 6
ENDMDL
