MODEL 1
REMARK VINA RESULT:      -8.3      0.000      0.000
REMARK  2 active torsions:
REMARK  status: ('A' for Active; 'I' for Inactive)
REMARK       I    between atoms: N_2  and  C_1 
REMARK       I    between atoms: N_4  and  C_1 
REMARK    1  A    between atoms: C_3  and  N_2 
REMARK    2  A    between atoms: C_7  and  N_4 
ROOT
ATOM      1  C   UNL d   1      52.822  33.207  53.595  0.00  0.00     0.370 C 
ATOM      2  N   UNL d   1      52.240  32.899  53.091  0.00  0.00    -0.172 NA
ATOM      3  N   UNL d   1      53.466  32.715  53.808  0.00  0.00    -0.191 NA
ATOM      4  O   UNL d   1      52.788  33.952  53.881  0.00  0.00    -0.242 OA
ENDROOT
BRANCH   2   5
ATOM      5  C   UNL d   1      51.605  33.381  52.879  0.00  0.00     0.167 A 
ATOM      6  N   UNL d   1      50.903  33.413  53.349  0.00  0.00    -0.225 NA
ATOM      7  C   UNL d   1      50.279  33.896  53.128  0.00  0.00     0.101 A 
ATOM      8  C   UNL d   1      50.344  34.352  52.440  0.00  0.00     0.021 A 
ATOM      9  C   UNL d   1      51.032  34.318  51.983  0.00  0.00     0.005 A 
ATOM     10  C   UNL d   1      51.647  33.841  52.203  0.00  0.00     0.039 A 
ENDBRANCH   2   5
BRANCH   3  11
ATOM     11  C   UNL d   1      54.049  33.008  54.306  0.00  0.00     0.086 A 
ATOM     12  C   UNL d   1      53.951  32.974  55.110  0.00  0.00     0.019 A 
ATOM     13  C   UNL d   1      54.545  33.272  55.609  0.00  0.00     0.002 A 
ATOM     14  C   UNL d   1      55.242  33.605  55.278  0.00  0.00     0.000 A 
ATOM     15  C   UNL d   1      55.330  33.633  54.476  0.00  0.00     0.002 A 
ATOM     16  C   UNL d   1      54.750  33.342  53.976  0.00  0.00     0.019 A 
ENDBRANCH   3  11
TORSDOF 2
ENDMDL
MODEL 2
REMARK VINA RESULT:      -8.2      2.154      3.005
REMARK  2 active torsions:
REMARK  status: ('A' for Active; 'I' for Inactive)
REMARK       I    between atoms: N_2  and  C_1 
REMARK       I    between atoms: N_4  and  C_1 
REMARK    1  A    between atoms: C_3  and  N_2 
REMARK    2  A    between atoms: C_7  and  N_4 
ROOT
ATOM      1  C   UNL d   1      53.492  32.441  53.575  0.00  0.00     0.370 C 
ATOM      2  N   UNL d   1      53.875  33.172  53.486  0.00  0.00    -0.172 NA
ATOM      3  N   UNL d   1      53.868  31.756  53.274  0.00  0.00    -0.191 NA
ATOM      4  O   UNL d   1      52.783  32.372  53.936  0.00  0.00    -0.242 OA
ENDROOT
BRANCH   2   5
ATOM      5  C   UNL d   1      53.508  33.849  53.782  0.00  0.00     0.167 A 
ATOM      6  N   UNL d   1      53.615  34.091  54.584  0.00  0.00    -0.225 NA
ATOM      7  C   UNL d   1      53.244  34.766  54.865  0.00  0.00     0.101 A 
ATOM      8  C   UNL d   1      52.764  35.207  54.354  0.00  0.00     0.021 A 
ATOM      9  C   UNL d   1      52.662  34.967  53.570  0.00  0.00     0.005 A 
ATOM     10  C   UNL d   1      53.028  34.301  53.295  0.00  0.00     0.039 A 
ENDBRANCH   2   5
BRANCH   3  11
ATOM     11  C   UNL d   1      53.500  31.026  53.356  0.00  0.00     0.086 A 
ATOM     12  C   UNL d   1      52.914  30.807  52.840  0.00  0.00     0.019 A 
ATOM     13  C   UNL d   1      52.546  30.067  52.929  0.00  0.00     0.002 A 
ATOM     14  C   UNL d   1      52.783  29.552  53.549  0.00  0.00     0.000 A 
ATOM     15  C   UNL d   1      53.367  29.780  54.057  0.00  0.00     0.002 A 
ATOM     16  C   UNL d   1      53.737  30.508  53.978  0.00  0.00     0.019 A 
ENDBRANCH   3  11
TORSDOF 2
ENDMDL
MODEL 3
REMARK VINA RESULT:      -8.2      2.108      3.165
REMARK  2 active torsions:
REMARK  status: ('A' for Active; 'I' for Inactive)
REMARK       I    between atoms: N_2  and  C_1 
REMARK       I    between atoms: N_4  and  C_1 
REMARK    1  A    between atoms: C_3  and  N_2 
REMARK    2  A    between atoms: C_7  and  N_4 
ROOT
ATOM      1  C   UNL d   1      53.517  32.473  53.548  0.00  0.00     0.370 C 
ATOM      2  N   UNL d   1      53.916  31.800  53.270  0.00  0.00    -0.172 NA
ATOM      3  N   UNL d   1      53.909  33.212  53.513  0.00  0.00    -0.191 NA
ATOM      4  O   UNL d   1      52.776  32.436  53.844  0.00  0.00    -0.242 OA
ENDROOT
BRANCH   2   5
ATOM      5  C   UNL d   1      53.533  31.071  53.303  0.00  0.00     0.167 A 
ATOM      6  N   UNL d   1      52.965  30.848  52.719  0.00  0.00    -0.225 NA
ATOM      7  C   UNL d   1      52.591  30.120  52.763  0.00  0.00     0.101 A 
ATOM      8  C   UNL d   1      52.776  29.606  53.385  0.00  0.00     0.021 A 
ATOM      9  C   UNL d   1      53.332  29.828  53.954  0.00  0.00     0.005 A 
ATOM     10  C   UNL d   1      53.700  30.547  53.910  0.00  0.00     0.039 A 
ENDBRANCH   2   5
BRANCH   3  11
ATOM     11  C   UNL d   1      53.524  33.885  53.785  0.00  0.00     0.086 A 
ATOM     12  C   UNL d   1      53.030  34.297  53.291  0.00  0.00     0.019 A 
ATOM     13  C   UNL d   1      52.644  34.978  53.572  0.00  0.00     0.002 A 
ATOM     14  C   UNL d   1      52.768  35.234  54.363  0.00  0.00     0.000 A 
ATOM     15  C   UNL d   1      53.263  34.816  54.845  0.00  0.00     0.002 A 
ATOM     16  C   UNL d   1      53.648  34.144  54.578  0.00  0.00     0.019 A 
ENDBRANCH   3  11
TORSDOF 2
ENDMDL
MODEL 4
REMARK VINA RESULT:      -8.1      0.418      3.912
REMARK  2 active torsions:
REMARK  status: ('A' for Active; 'I' for Inactive)
REMARK       I    between atoms: N_2  and  C_1 
REMARK       I    between atoms: N_4  and  C_1 
REMARK    1  A    between atoms: C_3  and  N_2 
REMARK    2  A    between atoms: C_7  and  N_4 
ROOT
ATOM      1  C   UNL d   1      52.810  33.216  53.601  0.00  0.00     0.370 C 
ATOM      2  N   UNL d   1      53.422  32.707  53.835  0.00  0.00    -0.172 NA
ATOM      3  N   UNL d   1      52.209  32.914  53.103  0.00  0.00    -0.191 NA
ATOM      4  O   UNL d   1      52.778  33.979  53.836  0.00  0.00    -0.242 OA
ENDROOT
BRANCH   2   5
ATOM      5  C   UNL d   1      54.016  33.002  54.326  0.00  0.00     0.167 A 
ATOM      6  N   UNL d   1      53.924  33.016  55.166  0.00  0.00    -0.225 NA
ATOM      7  C   UNL d   1      54.521  33.311  55.642  0.00  0.00     0.101 A 
ATOM      8  C   UNL d   1      55.216  33.596  55.292  0.00  0.00     0.021 A 
ATOM      9  C   UNL d   1      55.302  33.581  54.471  0.00  0.00     0.005 A 
ATOM     10  C   UNL d   1      54.711  33.289  54.002  0.00  0.00     0.039 A 
ENDBRANCH   2   5
BRANCH   3  11
ATOM     11  C   UNL d   1      51.597  33.407  52.864  0.00  0.00     0.086 A 
ATOM     12  C   UNL d   1      51.673  33.851  52.190  0.00  0.00     0.019 A 
ATOM     13  C   UNL d   1      51.050  34.348  51.954  0.00  0.00     0.002 A 
ATOM     14  C   UNL d   1      50.348  34.387  52.414  0.00  0.00     0.000 A 
ATOM     15  C   UNL d   1      50.283  33.941  53.084  0.00  0.00     0.002 A 
ATOM     16  C   UNL d   1      50.891  33.448  53.326  0.00  0.00     0.019 A 
ENDBRANCH   3  11
TORSDOF 2
ENDMDL
