MODEL 1
REMARK VINA RESULT:      67.0      0.000      0.000
REMARK  7 active torsions:
REMARK  status: ('A' for Active; 'I' for Inactive)
REMARK    1  A    between atoms: C_10  and  C_3 
REMARK    2  A    between atoms: N_12  and  C_4 
REMARK    3  A    between atoms: O_23  and  C_11 
REMARK    4  A    between atoms: C_25  and  N_12 
REMARK    5  A    between atoms: O_26  and  C_13 
REMARK    6  A    between atoms: C_18  and  C_28 
REMARK    7  A    between atoms: C_28  and  C_25 
ROOT
ATOM      1  C   UNL d   1      14.117  17.944  -5.512  0.00  0.00     0.168 A 
ATOM      2  N   UNL d   1      13.758  17.187  -5.500  0.00  0.00    -0.184 N 
ATOM      3  C   UNL d   1      13.798  18.530  -5.951  0.00  0.00     0.057 A 
ATOM      4  C   UNL d   1      14.087  16.614  -5.059  0.00  0.00     0.218 A 
ATOM      5  N   UNL d   1      12.771  17.656  -6.377  0.00  0.00    -0.160 NA
ATOM      6  N   UNL d   1      14.782  18.077  -5.083  0.00  0.00    -0.227 NA
ATOM      7  C   UNL d   1      14.759  16.740  -4.622  0.00  0.00     0.071 A 
ATOM      8  C   UNL d   1      13.119  18.389  -6.389  0.00  0.00     0.124 A 
ATOM      9  C   UNL d   1      15.113  17.485  -4.634  0.00  0.00     0.087 A 
ATOM     10  C   UNL d   1      15.814  17.626  -4.180  0.00  0.00     0.021 C 
ENDROOT
BRANCH   4  11
ATOM     11  N   UNL d   1      13.727  15.848  -5.045  0.00  0.00    -0.380 NA
BRANCH  11  12
ATOM     12  C   UNL d   1      13.193  15.221  -4.861  0.00  0.00     0.163 C 
BRANCH  12  13
ATOM     13  C   UNL d   1      13.333  14.462  -5.192  0.00  0.00     0.035 C 
BRANCH  13  14
ATOM     14  C   UNL d   1      13.328  13.790  -4.682  0.00  0.00     0.005 A 
ATOM     15  C   UNL d   1      13.635  13.871  -3.889  0.00  0.00     0.026 A 
ATOM     16  C   UNL d   1      13.633  13.194  -3.366  0.00  0.00     0.116 A 
ATOM     17  C   UNL d   1      13.324  12.448  -3.645  0.00  0.00     0.116 A 
ATOM     18  C   UNL d   1      13.025  12.382  -4.424  0.00  0.00     0.026 A 
ATOM     19  C   UNL d   1      13.029  13.061  -4.945  0.00  0.00     0.002 A 
BRANCH  16  20
ATOM     20  O   UNL d   1      13.931  13.264  -2.590  0.00  0.00    -0.326 OA
ATOM     21  C   UNL d   1      14.345  13.958  -2.355  0.00  0.00     0.181 C 
ENDBRANCH  16  20
BRANCH  17  22
ATOM     22  O   UNL d   1      13.322  11.783  -3.130  0.00  0.00    -0.326 OA
ATOM     23  C   UNL d   1      13.475  11.878  -2.303  0.00  0.00     0.181 C 
ENDBRANCH  17  22
ENDBRANCH  13  14
ENDBRANCH  12  13
ENDBRANCH  11  12
ENDBRANCH   4  11
BRANCH   3  24
ATOM     24  C   UNL d   1      14.146  19.264  -5.963  0.00  0.00     0.005 A 
ATOM     25  C   UNL d   1      13.754  19.897  -5.663  0.00  0.00     0.001 A 
ATOM     26  C   UNL d   1      14.103  20.631  -5.675  0.00  0.00     0.011 A 
ATOM     27  C   UNL d   1      14.837  20.720  -5.986  0.00  0.00     0.058 A 
ATOM     28  C   UNL d   1      15.223  20.075  -6.286  0.00  0.00     0.011 A 
ATOM     29 CL   UNL d   1      15.202  21.488  -5.999  0.00  0.00    -0.082 Cl
ATOM     30  C   UNL d   1      14.881  19.353  -6.274  0.00  0.00     0.001 A 
ENDBRANCH   3  24
TORSDOF 7
ENDMDL
MODEL 2
REMARK VINA RESULT:      69.0      2.964      6.082
REMARK  7 active torsions:
REMARK  status: ('A' for Active; 'I' for Inactive)
REMARK    1  A    between atoms: C_10  and  C_3 
REMARK    2  A    between atoms: N_12  and  C_4 
REMARK    3  A    between atoms: O_23  and  C_11 
REMARK    4  A    between atoms: C_25  and  N_12 
REMARK    5  A    between atoms: O_26  and  C_13 
REMARK    6  A    between atoms: C_18  and  C_28 
REMARK    7  A    between atoms: C_28  and  C_25 
ROOT
ATOM      1  C   UNL d   1      14.167  14.656  -3.120  0.00  0.00     0.168 A 
ATOM      2  N   UNL d   1      14.056  15.203  -3.745  0.00  0.00    -0.184 N 
ATOM      3  C   UNL d   1      14.563  14.876  -2.462  0.00  0.00     0.057 A 
ATOM      4  C   UNL d   1      13.660  14.969  -4.393  0.00  0.00     0.218 A 
ATOM      5  N   UNL d   1      14.752  16.168  -3.006  0.00  0.00    -0.160 NA
ATOM      6  N   UNL d   1      13.875  13.911  -3.185  0.00  0.00    -0.227 NA
ATOM      7  C   UNL d   1      13.361  14.217  -4.467  0.00  0.00     0.071 A 
ATOM      8  C   UNL d   1      14.860  15.638  -2.400  0.00  0.00     0.124 A 
ATOM      9  C   UNL d   1      13.471  13.679  -3.852  0.00  0.00     0.087 A 
ATOM     10  C   UNL d   1      13.163  12.893  -3.920  0.00  0.00     0.021 C 
ENDROOT
BRANCH   4  11
ATOM     11  N   UNL d   1      13.546  15.519  -5.026  0.00  0.00    -0.380 NA
BRANCH  11  12
ATOM     12  C   UNL d   1      13.277  16.190  -5.460  0.00  0.00     0.163 C 
BRANCH  12  13
ATOM     13  C   UNL d   1      13.819  16.589  -5.963  0.00  0.00     0.035 C 
BRANCH  13  14
ATOM     14  C   UNL d   1      13.790  17.431  -6.005  0.00  0.00     0.005 A 
ATOM     15  C   UNL d   1      14.442  17.883  -5.686  0.00  0.00     0.026 A 
ATOM     16  C   UNL d   1      14.420  18.737  -5.724  0.00  0.00     0.116 A 
ATOM     17  C   UNL d   1      13.746  19.125  -6.080  0.00  0.00     0.116 A 
ATOM     18  C   UNL d   1      13.114  18.671  -6.388  0.00  0.00     0.026 A 
ATOM     19  C   UNL d   1      13.140  17.816  -6.349  0.00  0.00     0.002 A 
BRANCH  16  20
ATOM     20  O   UNL d   1      15.051  19.186  -5.415  0.00  0.00    -0.326 OA
ATOM     21  C   UNL d   1      14.901  19.813  -4.873  0.00  0.00     0.181 C 
ENDBRANCH  16  20
BRANCH  17  22
ATOM     22  O   UNL d   1      13.725  19.965  -6.117  0.00  0.00    -0.326 OA
ATOM     23  C   UNL d   1      13.031  20.366  -6.389  0.00  0.00     0.181 C 
ENDBRANCH  17  22
ENDBRANCH  13  14
ENDBRANCH  12  13
ENDBRANCH  11  12
ENDBRANCH   4  11
BRANCH   3  24
ATOM     24  C   UNL d   1      14.671  14.346  -1.857  0.00  0.00     0.005 A 
ATOM     25  C   UNL d   1      14.826  13.576  -2.022  0.00  0.00     0.001 A 
ATOM     26  C   UNL d   1      14.934  13.046  -1.417  0.00  0.00     0.011 A 
ATOM     27  C   UNL d   1      14.885  13.293  -0.655  0.00  0.00     0.058 A 
ATOM     28  C   UNL d   1      14.728  14.072  -0.499  0.00  0.00     0.011 A 
ATOM     29 CL   UNL d   1      14.998  12.738  -0.021  0.00  0.00    -0.082 Cl
ATOM     30  C   UNL d   1      14.622  14.593  -1.095  0.00  0.00     0.001 A 
ENDBRANCH   3  24
TORSDOF 7
ENDMDL
MODEL 3
REMARK VINA RESULT:      69.6      3.101      6.231
REMARK  7 active torsions:
REMARK  status: ('A' for Active; 'I' for Inactive)
REMARK    1  A    between atoms: C_10  and  C_3 
REMARK    2  A    between atoms: N_12  and  C_4 
REMARK    3  A    between atoms: O_23  and  C_11 
REMARK    4  A    between atoms: C_25  and  N_12 
REMARK    5  A    between atoms: O_26  and  C_13 
REMARK    6  A    between atoms: C_18  and  C_28 
REMARK    7  A    between atoms: C_28  and  C_25 
ROOT
ATOM      1  C   UNL d   1      13.795  13.544  -3.231  0.00  0.00     0.168 A 
ATOM      2  N   UNL d   1      13.551  13.797  -3.992  0.00  0.00    -0.184 N 
ATOM      3  C   UNL d   1      13.740  12.773  -3.030  0.00  0.00     0.057 A 
ATOM      4  C   UNL d   1      13.612  14.567  -4.178  0.00  0.00     0.218 A 
ATOM      5  N   UNL d   1      13.208  12.476  -4.307  0.00  0.00    -0.160 NA
ATOM      6  N   UNL d   1      14.083  14.078  -2.707  0.00  0.00    -0.227 NA
ATOM      7  C   UNL d   1      13.903  15.114  -3.653  0.00  0.00     0.071 A 
ATOM      8  C   UNL d   1      13.444  12.231  -3.570  0.00  0.00     0.124 A 
ATOM      9  C   UNL d   1      14.143  14.865  -2.904  0.00  0.00     0.087 A 
ATOM     10  C   UNL d   1      14.448  15.429  -2.350  0.00  0.00     0.021 C 
ENDROOT
BRANCH   4  11
ATOM     11  N   UNL d   1      13.367  14.826  -4.945  0.00  0.00    -0.380 NA
BRANCH  11  12
ATOM     12  C   UNL d   1      12.919  15.196  -5.556  0.00  0.00     0.163 C 
BRANCH  12  13
ATOM     13  C   UNL d   1      13.319  15.466  -6.244  0.00  0.00     0.035 C 
BRANCH  13  14
ATOM     14  C   UNL d   1      13.602  16.260  -6.263  0.00  0.00     0.005 A 
ATOM     15  C   UNL d   1      13.036  16.899  -6.316  0.00  0.00     0.026 A 
ATOM     16  C   UNL d   1      13.315  17.707  -6.336  0.00  0.00     0.116 A 
ATOM     17  C   UNL d   1      14.155  17.864  -6.302  0.00  0.00     0.116 A 
ATOM     18  C   UNL d   1      14.699  17.229  -6.251  0.00  0.00     0.026 A 
ATOM     19  C   UNL d   1      14.416  16.421  -6.231  0.00  0.00     0.002 A 
BRANCH  16  20
ATOM     20  O   UNL d   1      12.770  18.337  -6.387  0.00  0.00    -0.326 OA
ATOM     21  C   UNL d   1      13.031  19.132  -6.293  0.00  0.00     0.181 C 
ENDBRANCH  16  20
BRANCH  17  22
ATOM     22  O   UNL d   1      14.428  18.659  -6.322  0.00  0.00    -0.326 OA
ATOM     23  C   UNL d   1      14.702  19.037  -5.615  0.00  0.00     0.181 C 
ENDBRANCH  17  22
ENDBRANCH  13  14
ENDBRANCH  12  13
ENDBRANCH  11  12
ENDBRANCH   4  11
BRANCH   3  24
ATOM     24  C   UNL d   1      13.976  12.528  -2.293  0.00  0.00     0.005 A 
ATOM     25  C   UNL d   1      13.431  12.419  -1.714  0.00  0.00     0.001 A 
ATOM     26  C   UNL d   1      13.667  12.174  -0.977  0.00  0.00     0.011 A 
ATOM     27  C   UNL d   1      14.445  12.042  -0.829  0.00  0.00     0.058 A 
ATOM     28  C   UNL d   1      14.986  12.155  -1.420  0.00  0.00     0.011 A 
ATOM     29 CL   UNL d   1      14.692  11.785  -0.058  0.00  0.00    -0.082 Cl
ATOM     30  C   UNL d   1      14.754  12.396  -2.146  0.00  0.00     0.001 A 
ENDBRANCH   3  24
TORSDOF 7
ENDMDL
