MODEL 1
REMARK VINA RESULT:      49.7      0.000      0.000
REMARK  4 active torsions:
REMARK  status: ('A' for Active; 'I' for Inactive)
REMARK       I    between atoms: N_3  and  C_1 
REMARK       I    between atoms: N_7  and  C_1 
REMARK    1  A    between atoms: C_2  and  N_3 
REMARK    2  A    between atoms: C_4  and  C_5 
REMARK    3  A    between atoms: O_13  and  C_4 
REMARK    4  A    between atoms: C_15  and  N_7 
ROOT
ATOM      1  C   UNL d   1     -55.896-100.074 -44.331  0.00  0.00     0.097 A 
ATOM      2  C   UNL d   1     -57.159 -99.419 -44.432  0.00  0.00     0.065 A 
ATOM      3  C   UNL d   1     -56.710-100.071 -44.204  0.00  0.00     0.025 A 
ATOM      4  C   UNL d   1     -55.530 -99.424 -44.687  0.00  0.00     0.075 A 
ATOM      5  C   UNL d   1     -56.790 -98.762 -44.791  0.00  0.00     0.006 A 
ATOM      6  C   UNL d   1     -55.979 -98.771 -44.915  0.00  0.00     0.013 A 
ATOM      7 CL   UNL d   1     -54.712 -99.428 -44.814  0.00  0.00    -0.081 Cl
ENDROOT
BRANCH   1   8
ATOM      8  N   UNL d   1     -55.446-100.727 -44.103  0.00  0.00    -0.190 NA
ATOM      9  C   UNL d   1     -55.413-100.945 -43.309  0.00  0.00     0.369 C 
ATOM     10  N   UNL d   1     -54.961-101.600 -43.084  0.00  0.00    -0.191 NA
ATOM     11  O   UNL d   1     -55.829-100.511 -42.743  0.00  0.00    -0.242 OA
BRANCH  10  12
ATOM     12  C   UNL d   1     -54.927-101.820 -42.287  0.00  0.00     0.086 A 
ATOM     13  C   UNL d   1     -55.075-102.608 -42.075  0.00  0.00     0.019 A 
ATOM     14  C   UNL d   1     -55.038-102.817 -41.278  0.00  0.00     0.002 A 
ATOM     15  C   UNL d   1     -54.857-102.254 -40.701  0.00  0.00     0.000 A 
ATOM     16  C   UNL d   1     -54.712-101.482 -40.922  0.00  0.00     0.002 A 
ATOM     17  C   UNL d   1     -54.745-101.257 -41.711  0.00  0.00     0.019 A 
ENDBRANCH  10  12
ENDBRANCH   1   8
BRANCH   2  18
ATOM     18  C   UNL d   1     -57.981 -99.412 -44.306  0.00  0.00     0.296 C 
ATOM     19  O   UNL d   1     -58.484 -99.767 -44.857  0.00  0.00    -0.259 OA
BRANCH  18  20
ATOM     20  O   UNL d   1     -58.294 -99.053 -43.633  0.00  0.00    -0.296 OA
ATOM     21  C   UNL d   1     -59.107 -98.924 -43.573  0.00  0.00     0.185 C 
ENDBRANCH  18  20
ENDBRANCH   2  18
TORSDOF 4
ENDMDL
