MODEL 1
REMARK VINA RESULT:      79.1      0.000      0.000
REMARK  5 active torsions:
REMARK  status: ('A' for Active; 'I' for Inactive)
REMARK    1  A    between atoms: N_6  and  C_1 
REMARK    2  A    between atoms: C_10  and  C_2 
REMARK       I    between atoms: C_9  and  N_6 
REMARK    3  A    between atoms: C_14  and  C_9 
REMARK    4  A    between atoms: C_13  and  C_15 
REMARK    5  A    between atoms: C_19  and  C_13 
ROOT
ATOM      1  N   UNL d   1      14.230  15.928  -4.760  0.00  0.00    -0.201 NA
ATOM      2  C   UNL d   1      13.511  15.524  -4.740  0.00  0.00     0.280 C 
ATOM      3  O   UNL d   1      12.814  15.902  -4.955  0.00  0.00    -0.265 OA
ENDROOT
BRANCH   1   4
ATOM      4  C   UNL d   1      14.252  16.721  -4.997  0.00  0.00     0.118 A 
ATOM      5  C   UNL d   1      14.850  17.265  -4.829  0.00  0.00     0.083 A 
ATOM      6  C   UNL d   1      14.641  17.979  -5.173  0.00  0.00     0.008 A 
ATOM      7  C   UNL d   1      15.027  18.711  -5.185  0.00  0.00    -0.004 A 
ATOM      8  C   UNL d   1      13.924  17.887  -5.551  0.00  0.00     0.028 A 
ATOM      9  C   UNL d   1      14.680  19.348  -5.583  0.00  0.00     0.099 A 
ATOM     10  C   UNL d   1      15.407  19.441  -5.200  0.00  0.00     0.029 C 
ATOM     11  C   UNL d   1      14.339  19.986  -5.977  0.00  0.00     0.029 C 
ATOM     12  N   UNL d   1      13.952  19.254  -5.966  0.00  0.00    -0.294 NA
ATOM     13  C   UNL d   1      13.573  18.524  -5.951  0.00  0.00     0.104 A 
ATOM     14  C   UNL d   1      13.078  19.022  -6.389  0.00  0.00     0.029 C 
ATOM     15  C   UNL d   1      13.046  17.898  -6.052  0.00  0.00     0.029 C 
ATOM     16  S   UNL d   1      13.675  17.105  -5.446  0.00  0.00    -0.070 SA
BRANCH   5  17
ATOM     17  C   UNL d   1      15.526  17.105  -4.395  0.00  0.00     0.299 C 
ATOM     18  O   UNL d   1      15.508  17.200  -3.573  0.00  0.00    -0.264 OA
ATOM     19  N   UNL d   1      16.218  16.852  -4.769  0.00  0.00    -0.102 N 
ENDBRANCH   5  17
ENDBRANCH   1   4
BRANCH   2  20
ATOM     20  C   UNL d   1      13.489  14.743  -4.507  0.00  0.00     0.058 A 
ATOM     21  C   UNL d   1      14.170  14.279  -4.548  0.00  0.00     0.005 A 
ATOM     22  C   UNL d   1      14.147  13.486  -4.311  0.00  0.00     0.003 A 
ATOM     23  C   UNL d   1      13.443  13.158  -4.033  0.00  0.00     0.039 A 
ATOM     24  C   UNL d   1      12.774  13.620  -3.994  0.00  0.00     0.003 A 
ATOM     25  C   UNL d   1      12.796  14.413  -4.231  0.00  0.00     0.005 A 
BRANCH  23  26
ATOM     26  C   UNL d   1      13.424  12.369  -3.797  0.00  0.00     0.196 C 
ATOM     27  O   UNL d   1      13.267  11.782  -4.345  0.00  0.00    -0.287 OA
BRANCH  26  28
ATOM     28  C   UNL d   1      13.564  12.173  -3.012  0.00  0.00     0.039 A 
ATOM     29  C   UNL d   1      12.944  12.015  -2.503  0.00  0.00     0.003 A 
ATOM     30  C   UNL d   1      13.084  11.819  -1.718  0.00  0.00     0.000 A 
ATOM     31  C   UNL d   1      13.862  11.782  -1.439  0.00  0.00     0.000 A 
ATOM     32  C   UNL d   1      14.492  11.941  -1.949  0.00  0.00     0.000 A 
ATOM     33  C   UNL d   1      14.342  12.136  -2.733  0.00  0.00     0.003 A 
ENDBRANCH  26  28
ENDBRANCH  23  26
ENDBRANCH   2  20
TORSDOF 5
ENDMDL
