MODEL 1
REMARK VINA RESULT:      -5.3      0.000      0.000
REMARK  4 active torsions:
REMARK  status: ('A' for Active; 'I' for Inactive)
REMARK       I    between atoms: N_2  and  C_3 
REMARK    1  A    between atoms: C_3  and  C_8 
REMARK    2  A    between atoms: S_7  and  C_5 
REMARK    3  A    between atoms: C_10  and  C_6 
REMARK    4  A    between atoms: C_8  and  S_7 
ROOT
ATOM      1  N   UNL d   1      56.502  -0.739  32.484  0.00  0.00    -0.148 NA
ATOM      2  N   UNL d   1      56.931  -0.938  31.807  0.00  0.00    -0.141 NA
ATOM      3  C   UNL d   1      57.199  -0.351  31.297  0.00  0.00     0.133 A 
ATOM      4  C   UNL d   1      56.344   0.056  32.647  0.00  0.00     0.103 A 
ATOM      5  C   UNL d   1      56.608   0.645  32.143  0.00  0.00     0.023 A 
ATOM      6  C   UNL d   1      57.034   0.451  31.470  0.00  0.00     0.029 A 
ENDROOT
BRANCH   3   7
ATOM      7  S   UNL d   1      57.623  -0.553  30.628  0.00  0.00    -0.061 SA
BRANCH   7   8
ATOM      8  C   UNL d   1      58.302  -0.134  30.429  0.00  0.00     0.098 C 
BRANCH   8   9
ATOM      9  C   UNL d   1      58.696  -0.300  29.726  0.00  0.00     0.271 C 
ATOM     10  N   UNL d   1      59.467  -0.027  29.615  0.00  0.00    -0.272 N 
ATOM     11  C   UNL d   1      59.860  -0.189  28.919  0.00  0.00     0.083 A 
ATOM     12  C   UNL d   1      59.833   0.411  30.211  0.00  0.00     0.083 A 
ATOM     13  C   UNL d   1      60.622   0.078  28.801  0.00  0.00     0.019 A 
ATOM     14  C   UNL d   1      61.005   0.520  29.394  0.00  0.00     0.003 A 
ATOM     15  C   UNL d   1      60.601   0.682  30.097  0.00  0.00     0.019 A 
ATOM     16  O   UNL d   1      58.334  -0.733  29.135  0.00  0.00    -0.266 OA
ENDBRANCH   8   9
ENDBRANCH   7   8
ENDBRANCH   3   7
BRANCH   4  17
ATOM     17  C   UNL d   1      55.915   0.256  33.323  0.00  0.00     0.019 A 
ATOM     18  C   UNL d   1      56.312   0.480  34.018  0.00  0.00     0.002 A 
ATOM     19  C   UNL d   1      55.882   0.681  34.697  0.00  0.00     0.000 A 
ATOM     20  C   UNL d   1      55.052   0.659  34.686  0.00  0.00     0.000 A 
ATOM     21  C   UNL d   1      54.660   0.439  34.003  0.00  0.00     0.000 A 
ATOM     22  C   UNL d   1      55.081   0.236  33.318  0.00  0.00     0.002 A 
ENDBRANCH   4  17
TORSDOF 4
ENDMDL
MODEL 2
REMARK VINA RESULT:      -3.7      9.406     10.379
REMARK  4 active torsions:
REMARK  status: ('A' for Active; 'I' for Inactive)
REMARK       I    between atoms: N_2  and  C_3 
REMARK    1  A    between atoms: C_3  and  C_8 
REMARK    2  A    between atoms: S_7  and  C_5 
REMARK    3  A    between atoms: C_10  and  C_6 
REMARK    4  A    between atoms: C_8  and  S_7 
ROOT
ATOM      1  N   UNL d   1      58.995  -9.800  31.389  0.00  0.00    -0.148 NA
ATOM      2  N   UNL d   1      59.430  -9.818  32.090  0.00  0.00    -0.141 NA
ATOM      3  C   UNL d   1      59.048  -9.800  32.818  0.00  0.00     0.133 A 
ATOM      4  C   UNL d   1      58.169  -9.765  31.423  0.00  0.00     0.103 A 
ATOM      5  C   UNL d   1      57.783  -9.746  32.145  0.00  0.00     0.023 A 
ATOM      6  C   UNL d   1      58.213  -9.764  32.843  0.00  0.00     0.029 A 
ENDROOT
BRANCH   3   7
ATOM      7  S   UNL d   1      59.484  -9.818  33.509  0.00  0.00    -0.061 SA
BRANCH   7   8
ATOM      8  C   UNL d   1      59.399  -9.217  34.065  0.00  0.00     0.098 C 
BRANCH   8   9
ATOM      9  C   UNL d   1      60.033  -9.012  34.548  0.00  0.00     0.271 C 
ATOM     10  N   UNL d   1      59.942  -8.413  35.109  0.00  0.00    -0.272 N 
ATOM     11  C   UNL d   1      60.567  -8.207  35.589  0.00  0.00     0.083 A 
ATOM     12  C   UNL d   1      59.215  -8.028  35.178  0.00  0.00     0.083 A 
ATOM     13  C   UNL d   1      60.486  -7.616  36.146  0.00  0.00     0.019 A 
ATOM     14  C   UNL d   1      59.759  -7.219  36.228  0.00  0.00     0.003 A 
ATOM     15  C   UNL d   1      59.128  -7.432  35.738  0.00  0.00     0.019 A 
ATOM     16  O   UNL d   1      60.753  -9.393  34.480  0.00  0.00    -0.266 OA
ENDBRANCH   8   9
ENDBRANCH   7   8
ENDBRANCH   3   7
BRANCH   4  17
ATOM     17  C   UNL d   1      57.733  -9.747  30.723  0.00  0.00     0.019 A 
ATOM     18  C   UNL d   1      56.906  -9.818  30.745  0.00  0.00     0.002 A 
ATOM     19  C   UNL d   1      56.467  -9.800  30.042  0.00  0.00     0.000 A 
ATOM     20  C   UNL d   1      56.853  -9.712  29.312  0.00  0.00     0.000 A 
ATOM     21  C   UNL d   1      57.667  -9.642  29.290  0.00  0.00     0.000 A 
ATOM     22  C   UNL d   1      58.116  -9.658  29.987  0.00  0.00     0.002 A 
ENDBRANCH   4  17
TORSDOF 4
ENDMDL
MODEL 3
REMARK VINA RESULT:      -2.9      9.857     10.178
REMARK  4 active torsions:
REMARK  status: ('A' for Active; 'I' for Inactive)
REMARK       I    between atoms: N_2  and  C_3 
REMARK    1  A    between atoms: C_3  and  C_8 
REMARK    2  A    between atoms: S_7  and  C_5 
REMARK    3  A    between atoms: C_10  and  C_6 
REMARK    4  A    between atoms: C_8  and  S_7 
ROOT
ATOM      1  N   UNL d   1      59.215  -9.509  33.498  0.00  0.00    -0.148 NA
ATOM      2  N   UNL d   1      59.176  -9.658  32.687  0.00  0.00    -0.141 NA
ATOM      3  C   UNL d   1      59.861  -9.670  32.233  0.00  0.00     0.133 A 
ATOM      4  C   UNL d   1      59.949  -9.372  33.852  0.00  0.00     0.103 A 
ATOM      5  C   UNL d   1      60.635  -9.383  33.406  0.00  0.00     0.023 A 
ATOM      6  C   UNL d   1      60.600  -9.530  32.600  0.00  0.00     0.029 A 
ENDROOT
BRANCH   3   7
ATOM      7  S   UNL d   1      59.817  -9.818  31.431  0.00  0.00    -0.061 SA
BRANCH   7   8
ATOM      8  C   UNL d   1      59.111  -9.698  31.027  0.00  0.00     0.098 C 
BRANCH   8   9
ATOM      9  C   UNL d   1      59.112  -9.630  30.207  0.00  0.00     0.271 C 
ATOM     10  N   UNL d   1      58.399  -9.670  29.793  0.00  0.00    -0.272 N 
ATOM     11  C   UNL d   1      58.397  -9.603  28.980  0.00  0.00     0.083 A 
ATOM     12  C   UNL d   1      57.694  -9.778  30.207  0.00  0.00     0.083 A 
ATOM     13  C   UNL d   1      57.697  -9.642  28.563  0.00  0.00     0.019 A 
ATOM     14  C   UNL d   1      56.977  -9.751  28.967  0.00  0.00     0.003 A 
ATOM     15  C   UNL d   1      56.986  -9.818  29.791  0.00  0.00     0.019 A 
ATOM     16  O   UNL d   1      59.811  -9.523  29.796  0.00  0.00    -0.266 OA
ENDBRANCH   8   9
ENDBRANCH   7   8
ENDBRANCH   3   7
BRANCH   4  17
ATOM     17  C   UNL d   1      59.989  -9.223  34.663  0.00  0.00     0.019 A 
ATOM     18  C   UNL d   1      59.710  -9.787  35.205  0.00  0.00     0.002 A 
ATOM     19  C   UNL d   1      59.751  -9.638  36.020  0.00  0.00     0.000 A 
ATOM     20  C   UNL d   1      60.070  -8.923  36.297  0.00  0.00     0.000 A 
ATOM     21  C   UNL d   1      60.345  -8.368  35.764  0.00  0.00     0.000 A 
ATOM     22  C   UNL d   1      60.309  -8.507  34.947  0.00  0.00     0.002 A 
ENDBRANCH   4  17
TORSDOF 4
ENDMDL
