MODEL 1
REMARK VINA RESULT:      -9.3      0.000      0.000
REMARK  2 active torsions:
REMARK  status: ('A' for Active; 'I' for Inactive)
REMARK    1  A    between atoms: C_4  and  C_1 
REMARK       I    between atoms: N_8  and  C_4 
REMARK    2  A    between atoms: O_12  and  C_11 
ROOT
ATOM      1  C   UNL d   1      53.155  31.870  53.372  0.00  0.00     0.120 A 
ATOM      2  C   UNL d   1      52.551  32.431  53.343  0.00  0.00     0.305 A 
ATOM      3  O   UNL d   1      52.648  33.166  53.724  0.00  0.00    -0.271 OA
ATOM      4  C   UNL d   1      53.863  32.033  53.780  0.00  0.00     0.012 A 
ATOM      5  C   UNL d   1      53.340  33.330  54.125  0.00  0.00     0.125 A 
ATOM      6  C   UNL d   1      53.951  32.764  54.155  0.00  0.00     0.025 A 
ATOM      7  O   UNL d   1      51.855  32.269  52.941  0.00  0.00    -0.259 OA
ATOM      8  C   UNL d   1      53.447  34.057  54.507  0.00  0.00     0.117 A 
ATOM      9  C   UNL d   1      54.651  32.930  54.561  0.00  0.00     0.002 A 
ATOM     10  C   UNL d   1      54.741  33.658  54.935  0.00  0.00     0.002 A 
ATOM     11  C   UNL d   1      54.142  34.219  54.908  0.00  0.00     0.026 A 
ENDROOT
BRANCH   1  12
ATOM     12  C   UNL d   1      53.059  31.148  52.997  0.00  0.00     0.270 C 
ATOM     13  N   UNL d   1      53.054  30.453  53.430  0.00  0.00    -0.269 N 
ATOM     14  C   UNL d   1      53.146  30.485  54.245  0.00  0.00     0.102 C 
ATOM     15  C   UNL d   1      52.958  29.730  53.056  0.00  0.00     0.102 C 
ATOM     16  O   UNL d   1      52.967  31.116  52.182  0.00  0.00    -0.266 OA
ENDBRANCH   1  12
BRANCH   8  17
ATOM     17  O   UNL d   1      52.848  34.618  54.480  0.00  0.00    -0.326 OA
ATOM     18  C   UNL d   1      53.010  35.400  54.658  0.00  0.00     0.181 C 
ENDBRANCH   8  17
TORSDOF 2
ENDMDL
MODEL 2
REMARK VINA RESULT:      -9.1      1.808      2.803
REMARK  2 active torsions:
REMARK  status: ('A' for Active; 'I' for Inactive)
REMARK    1  A    between atoms: C_4  and  C_1 
REMARK       I    between atoms: N_8  and  C_4 
REMARK    2  A    between atoms: O_12  and  C_11 
ROOT
ATOM      1  C   UNL d   1      52.081  33.936  52.965  0.00  0.00     0.120 A 
ATOM      2  C   UNL d   1      52.452  34.491  53.448  0.00  0.00     0.305 A 
ATOM      3  O   UNL d   1      53.100  34.263  53.920  0.00  0.00    -0.271 OA
ATOM      4  C   UNL d   1      52.351  33.147  52.944  0.00  0.00     0.012 A 
ATOM      5  C   UNL d   1      53.368  33.492  53.904  0.00  0.00     0.125 A 
ATOM      6  C   UNL d   1      52.993  32.931  53.415  0.00  0.00     0.025 A 
ATOM      7  O   UNL d   1      52.187  35.266  53.467  0.00  0.00    -0.259 OA
ATOM      8  C   UNL d   1      54.011  33.256  54.368  0.00  0.00     0.117 A 
ATOM      9  C   UNL d   1      53.264  32.150  53.398  0.00  0.00     0.002 A 
ATOM     10  C   UNL d   1      53.905  31.931  53.866  0.00  0.00     0.002 A 
ATOM     11  C   UNL d   1      54.276  32.481  54.349  0.00  0.00     0.026 A 
ENDROOT
BRANCH   1  12
ATOM     12  C   UNL d   1      51.444  34.160  52.501  0.00  0.00     0.270 C 
ATOM     13  N   UNL d   1      50.678  34.001  52.742  0.00  0.00    -0.269 N 
ATOM     14  C   UNL d   1      50.553  33.613  53.455  0.00  0.00     0.102 C 
ATOM     15  C   UNL d   1      50.041  34.224  52.279  0.00  0.00     0.102 C 
ATOM     16  O   UNL d   1      51.570  34.547  51.788  0.00  0.00    -0.266 OA
ENDBRANCH   1  12
BRANCH   8  17
ATOM     17  O   UNL d   1      54.382  33.806  54.851  0.00  0.00    -0.326 OA
ATOM     18  C   UNL d   1      55.073  33.607  55.244  0.00  0.00     0.181 C 
ENDBRANCH   8  17
TORSDOF 2
ENDMDL
MODEL 3
REMARK VINA RESULT:      -8.7      1.523      3.596
REMARK  2 active torsions:
REMARK  status: ('A' for Active; 'I' for Inactive)
REMARK    1  A    between atoms: C_4  and  C_1 
REMARK       I    between atoms: N_8  and  C_4 
REMARK    2  A    between atoms: O_12  and  C_11 
ROOT
ATOM      1  C   UNL d   1      53.587  32.726  54.012  0.00  0.00     0.120 A 
ATOM      2  C   UNL d   1      53.777  32.271  54.673  0.00  0.00     0.305 A 
ATOM      3  O   UNL d   1      53.675  31.444  54.650  0.00  0.00    -0.271 OA
ATOM      4  C   UNL d   1      53.293  32.365  53.320  0.00  0.00     0.012 A 
ATOM      5  C   UNL d   1      53.387  31.085  53.975  0.00  0.00     0.125 A 
ATOM      6  C   UNL d   1      53.196  31.545  53.307  0.00  0.00     0.025 A 
ATOM      7  O   UNL d   1      54.065  32.627  55.352  0.00  0.00    -0.259 OA
ATOM      8  C   UNL d   1      53.283  30.265  53.942  0.00  0.00     0.117 A 
ATOM      9  C   UNL d   1      52.905  31.183  52.624  0.00  0.00     0.002 A 
ATOM     10  C   UNL d   1      52.806  30.365  52.608  0.00  0.00     0.002 A 
ATOM     11  C   UNL d   1      52.994  29.909  53.264  0.00  0.00     0.026 A 
ENDROOT
BRANCH   1  12
ATOM     12  C   UNL d   1      53.687  33.539  54.035  0.00  0.00     0.270 C 
ATOM     13  N   UNL d   1      53.038  34.038  54.025  0.00  0.00    -0.269 N 
ATOM     14  C   UNL d   1      52.284  33.717  53.991  0.00  0.00     0.102 C 
ATOM     15  C   UNL d   1      53.138  34.851  54.047  0.00  0.00     0.102 C 
ATOM     16  O   UNL d   1      54.442  33.860  54.068  0.00  0.00    -0.266 OA
ENDBRANCH   1  12
BRANCH   8  17
ATOM     17  O   UNL d   1      53.470  29.809  54.598  0.00  0.00    -0.326 OA
ATOM     18  C   UNL d   1      53.348  28.999  54.583  0.00  0.00     0.181 C 
ENDBRANCH   8  17
TORSDOF 2
ENDMDL
MODEL 4
REMARK VINA RESULT:      -7.4      1.889      3.264
REMARK  2 active torsions:
REMARK  status: ('A' for Active; 'I' for Inactive)
REMARK    1  A    between atoms: C_4  and  C_1 
REMARK       I    between atoms: N_8  and  C_4 
REMARK    2  A    between atoms: O_12  and  C_11 
ROOT
ATOM      1  C   UNL d   1      53.350  34.015  54.443  0.00  0.00     0.120 A 
ATOM      2  C   UNL d   1      52.975  34.709  54.204  0.00  0.00     0.305 A 
ATOM      3  O   UNL d   1      52.298  34.669  53.719  0.00  0.00    -0.271 OA
ATOM      4  C   UNL d   1      53.057  33.272  54.204  0.00  0.00     0.012 A 
ATOM      5  C   UNL d   1      52.007  33.943  53.482  0.00  0.00     0.125 A 
ATOM      6  C   UNL d   1      52.386  33.242  53.724  0.00  0.00     0.025 A 
ATOM      7  O   UNL d   1      53.264  35.438  54.439  0.00  0.00    -0.259 OA
ATOM      8  C   UNL d   1      51.335  33.892  53.001  0.00  0.00     0.117 A 
ATOM      9  C   UNL d   1      52.092  32.508  53.485  0.00  0.00     0.002 A 
ATOM     10  C   UNL d   1      51.422  32.474  53.006  0.00  0.00     0.002 A 
ATOM     11  C   UNL d   1      51.046  33.163  52.766  0.00  0.00     0.026 A 
ENDROOT
BRANCH   1  12
ATOM     12  C   UNL d   1      54.016  34.055  54.920  0.00  0.00     0.270 C 
ATOM     13  N   UNL d   1      54.719  33.710  54.681  0.00  0.00    -0.269 N 
ATOM     14  C   UNL d   1      54.753  33.322  53.958  0.00  0.00     0.102 C 
ATOM     15  C   UNL d   1      55.385  33.750  55.156  0.00  0.00     0.102 C 
ATOM     16  O   UNL d   1      53.983  34.443  55.642  0.00  0.00    -0.266 OA
ENDBRANCH   1  12
BRANCH   8  17
ATOM     17  O   UNL d   1      50.959  34.581  52.761  0.00  0.00    -0.326 OA
ATOM     18  C   UNL d   1      50.209  34.546  52.433  0.00  0.00     0.181 C 
ENDBRANCH   8  17
TORSDOF 2
ENDMDL
