MODEL 1
REMARK VINA RESULT:      -3.7      0.000      0.000
REMARK  7 active torsions:
REMARK  status: ('A' for Active; 'I' for Inactive)
REMARK    1  A    between atoms: C_3  and  S_1 
REMARK    2  A    between atoms: N_8  and  S_1 
REMARK    3  A    between atoms: C_4  and  N_2 
REMARK    4  A    between atoms: N_5  and  C_19 
REMARK    5  A    between atoms: C_14  and  N_8 
REMARK    6  A    between atoms: O_21  and  C_11 
REMARK    7  A    between atoms: C_19  and  C_14 
ROOT
ATOM      1  N   UNL d   1     -41.609-123.150 -49.165  0.00  0.00    -0.300 N 
ATOM      2  N   UNL d   1     -41.292-123.093 -50.788  0.00  0.00    -0.299 N 
ATOM      3  C   UNL d   1     -41.321-123.817 -49.553  0.00  0.00     0.100 A 
ATOM      4  C   UNL d   1     -41.740-122.447 -49.590  0.00  0.00     0.100 A 
ATOM      5  C   UNL d   1     -41.164-123.789 -50.362  0.00  0.00     0.100 A 
ATOM      6  C   UNL d   1     -41.583-122.419 -50.395  0.00  0.00     0.100 A 
ENDROOT
BRANCH   2   7
ATOM      7  C   UNL d   1     -41.135-123.064 -51.597  0.00  0.00     0.102 C 
BRANCH   7   8
ATOM      8  C   UNL d   1     -41.751-122.981 -52.143  0.00  0.00     0.131 C 
BRANCH   8   9
ATOM      9  N   UNL d   1     -41.748-123.406 -52.840  0.00  0.00    -0.155 NA
BRANCH   9  10
ATOM     10  S   UNL d   1     -41.857-123.022 -53.559  0.00  0.00     0.285 S 
ATOM     11  O   UNL d   1     -41.525-122.335 -53.239  0.00  0.00    -0.198 OA
ATOM     12  O   UNL d   1     -42.189-123.708 -53.880  0.00  0.00    -0.198 OA
BRANCH  10  13
ATOM     13  C   UNL d   1     -41.962-122.628 -54.274  0.00  0.00     0.105 A 
ATOM     14  C   UNL d   1     -41.320-122.515 -54.780  0.00  0.00     0.013 A 
ATOM     15  C   UNL d   1     -41.415-122.123 -55.499  0.00  0.00     0.001 A 
ATOM     16  C   UNL d   1     -42.167-121.841 -55.707  0.00  0.00     0.000 A 
ATOM     17  C   UNL d   1     -42.806-121.956 -55.199  0.00  0.00     0.001 A 
ATOM     18  C   UNL d   1     -42.261-121.451 -56.422  0.00  0.00     0.000 C 
ATOM     19  C   UNL d   1     -42.696-122.351 -54.483  0.00  0.00     0.013 A 
ENDBRANCH  10  13
ENDBRANCH   9  10
ENDBRANCH   8   9
ENDBRANCH   7   8
ENDBRANCH   2   7
BRANCH   1  20
ATOM     20  C   UNL d   1     -41.767-123.178 -48.356  0.00  0.00     0.086 A 
ATOM     21  C   UNL d   1     -42.516-123.398 -48.081  0.00  0.00     0.110 A 
ATOM     22  C   UNL d   1     -42.675-123.426 -47.267  0.00  0.00     0.026 A 
ATOM     23  C   UNL d   1     -42.082-123.235 -46.737  0.00  0.00     0.002 A 
ATOM     24  C   UNL d   1     -41.328-123.014 -47.002  0.00  0.00     0.002 A 
ATOM     25  C   UNL d   1     -41.172-122.986 -47.804  0.00  0.00     0.019 A 
BRANCH  21  26
ATOM     26  O   UNL d   1     -43.116-123.592 -48.634  0.00  0.00    -0.327 OA
ATOM     27  C   UNL d   1     -43.897-123.675 -48.368  0.00  0.00     0.181 C 
ENDBRANCH  21  26
ENDBRANCH   1  20
TORSDOF 7
ENDMDL
MODEL 2
REMARK VINA RESULT:      -2.4      1.193      6.072
REMARK  7 active torsions:
REMARK  status: ('A' for Active; 'I' for Inactive)
REMARK    1  A    between atoms: C_3  and  S_1 
REMARK    2  A    between atoms: N_8  and  S_1 
REMARK    3  A    between atoms: C_4  and  N_2 
REMARK    4  A    between atoms: N_5  and  C_19 
REMARK    5  A    between atoms: C_14  and  N_8 
REMARK    6  A    between atoms: O_21  and  C_11 
REMARK    7  A    between atoms: C_19  and  C_14 
ROOT
ATOM      1  N   UNL d   1     -41.597-122.663 -54.089  0.00  0.00    -0.300 N 
ATOM      2  N   UNL d   1     -41.322-123.337 -52.604  0.00  0.00    -0.299 N 
ATOM      3  C   UNL d   1     -41.528-123.480 -54.014  0.00  0.00     0.100 A 
ATOM      4  C   UNL d   1     -41.527-122.177 -53.417  0.00  0.00     0.100 A 
ATOM      5  C   UNL d   1     -41.391-123.816 -53.273  0.00  0.00     0.100 A 
ATOM      6  C   UNL d   1     -41.391-122.512 -52.680  0.00  0.00     0.100 A 
ENDROOT
BRANCH   2   7
ATOM      7  C   UNL d   1     -41.185-123.674 -51.863  0.00  0.00     0.102 C 
BRANCH   7   8
ATOM      8  C   UNL d   1     -41.423-123.283 -51.173  0.00  0.00     0.131 C 
BRANCH   8   9
ATOM      9  N   UNL d   1     -42.072-123.542 -50.751  0.00  0.00    -0.155 NA
BRANCH   9  10
ATOM     10  S   UNL d   1     -42.106-123.432 -49.936  0.00  0.00     0.285 S 
ATOM     11  O   UNL d   1     -41.326-123.698 -49.870  0.00  0.00    -0.198 OA
ATOM     12  O   UNL d   1     -42.887-123.166 -50.002  0.00  0.00    -0.198 OA
BRANCH  10  13
ATOM     13  C   UNL d   1     -42.131-123.325 -49.121  0.00  0.00     0.105 A 
ATOM     14  C   UNL d   1     -42.820-123.047 -48.762  0.00  0.00     0.013 A 
ATOM     15  C   UNL d   1     -42.854-122.937 -47.946  0.00  0.00     0.001 A 
ATOM     16  C   UNL d   1     -42.185-123.110 -47.488  0.00  0.00     0.000 A 
ATOM     17  C   UNL d   1     -41.498-123.388 -47.850  0.00  0.00     0.001 A 
ATOM     18  C   UNL d   1     -42.220-123.000 -46.676  0.00  0.00     0.000 C 
ATOM     19  C   UNL d   1     -41.478-123.494 -48.668  0.00  0.00     0.013 A 
ENDBRANCH  10  13
ENDBRANCH   9  10
ENDBRANCH   8   9
ENDBRANCH   7   8
ENDBRANCH   2   7
BRANCH   1  20
ATOM     20  C   UNL d   1     -41.733-122.326 -54.829  0.00  0.00     0.086 A 
ATOM     21  C   UNL d   1     -42.475-122.009 -55.017  0.00  0.00     0.110 A 
ATOM     22  C   UNL d   1     -42.612-121.671 -55.762  0.00  0.00     0.026 A 
ATOM     23  C   UNL d   1     -42.007-121.653 -56.311  0.00  0.00     0.002 A 
ATOM     24  C   UNL d   1     -41.260-121.968 -56.133  0.00  0.00     0.002 A 
ATOM     25  C   UNL d   1     -41.125-122.302 -55.399  0.00  0.00     0.019 A 
BRANCH  21  26
ATOM     26  O   UNL d   1     -43.088-122.033 -54.446  0.00  0.00    -0.327 OA
ATOM     27  C   UNL d   1     -43.839-121.746 -54.649  0.00  0.00     0.181 C 
ENDBRANCH  21  26
ENDBRANCH   1  20
TORSDOF 7
ENDMDL
