MODEL 1
REMARK VINA RESULT:      61.9      0.000      0.000
REMARK  6 active torsions:
REMARK  status: ('A' for Active; 'I' for Inactive)
REMARK       I    between atoms: C_2  and  N_1 
REMARK    1  A    between atoms: C_3  and  C_2 
REMARK    2  A    between atoms: C_12  and  C_4 
REMARK       I    between atoms: C_5  and  N_8 
REMARK    3  A    between atoms: C_6  and  C_5 
REMARK       I    between atoms: N_9  and  C_6 
REMARK    4  A    between atoms: N_8  and  C_12 
REMARK    5  A    between atoms: C_19  and  N_9 
REMARK    6  A    between atoms: C_21  and  C_19 
ROOT
ATOM      1  C   UNL d   1      60.593  48.545  51.626  0.00  0.00     0.337 C 
ATOM      2  N   UNL d   1      60.604  49.328  51.376  0.00  0.00    -0.199 NA
ATOM      3  O   UNL d   1      59.873  48.127  51.662  0.00  0.00    -0.260 OA
ENDROOT
BRANCH   2   4
ATOM      4  C   UNL d   1      59.900  49.699  51.160  0.00  0.00     0.146 C 
BRANCH   4   5
ATOM      5  C   UNL d   1      59.655  49.689  50.362  0.00  0.00     0.190 A 
ATOM      6  N   UNL d   1      58.870  49.685  50.110  0.00  0.00    -0.250 N 
ATOM      7  C   UNL d   1      58.150  49.690  50.526  0.00  0.00     0.272 C 
ATOM      8  C   UNL d   1      58.885  49.674  49.282  0.00  0.00     0.112 A 
ATOM      9  O   UNL d   1      58.152  49.701  51.354  0.00  0.00    -0.266 OA
ATOM     10  C   UNL d   1      59.670  49.672  49.034  0.00  0.00     0.144 A 
ATOM     11  O   UNL d   1      60.146  49.681  49.717  0.00  0.00    -0.285 OA
BRANCH   7  12
ATOM     12  C   UNL d   1      57.434  49.684  50.118  0.00  0.00     0.086 A 
ATOM     13  S   UNL d   1      57.265  49.679  49.304  0.00  0.00    -0.082 SA
ATOM     14  C   UNL d   1      56.431  49.674  49.220  0.00  0.00     0.036 A 
ATOM     15  C   UNL d   1      56.103  49.677  49.978  0.00  0.00     0.008 A 
ATOM     16  C   UNL d   1      56.713  49.683  50.534  0.00  0.00     0.012 A 
ENDBRANCH   7  12
ENDBRANCH   4   5
ENDBRANCH   2   4
BRANCH   1  17
ATOM     17  C   UNL d   1      61.286  48.179  51.839  0.00  0.00     0.337 C 
ATOM     18  N   UNL d   1      61.475  47.437  51.554  0.00  0.00    -0.202 NA
ATOM     19  O   UNL d   1      61.816  48.565  52.356  0.00  0.00    -0.260 OA
BRANCH  18  20
ATOM     20  C   UNL d   1      60.950  47.049  51.039  0.00  0.00     0.102 C 
BRANCH  20  21
ATOM     21  C   UNL d   1      61.251  46.483  50.501  0.00  0.00     0.019 A 
ATOM     22  C   UNL d   1      61.763  46.700  49.897  0.00  0.00     0.004 A 
ATOM     23  C   UNL d   1      62.052  46.131  49.375  0.00  0.00     0.030 A 
ATOM     24  C   UNL d   1      61.836  45.346  49.447  0.00  0.00     0.140 A 
ATOM     25  C   UNL d   1      61.325  45.120  50.049  0.00  0.00     0.030 A 
ATOM     26  F   UNL d   1      62.132  44.778  48.916  0.00  0.00    -0.204 F 
ATOM     27  C   UNL d   1      61.031  45.681  50.575  0.00  0.00     0.004 A 
ENDBRANCH  20  21
ENDBRANCH  18  20
ENDBRANCH   1  17
TORSDOF 6
ENDMDL
