MODEL 1
REMARK VINA RESULT:      -4.3      0.000      0.000
REMARK  6 active torsions:
REMARK  status: ('A' for Active; 'I' for Inactive)
REMARK    1  A    between atoms: N_9  and  C_1 
REMARK    2  A    between atoms: C_4  and  S_13 
REMARK    3  A    between atoms: C_14  and  C_8 
REMARK       I    between atoms: C_12  and  N_9 
REMARK    4  A    between atoms: C_17  and  C_10 
REMARK    5  A    between atoms: C_16  and  C_12 
REMARK    6  A    between atoms: S_13  and  C_16 
ROOT
ATOM      1  S   UNL d   1      57.458   0.165  31.577  0.00  0.00    -0.043 SA
ENDROOT
BRANCH   1   2
ATOM      2  C   UNL d   1      56.859  -0.077  32.099  0.00  0.00     0.195 A 
ATOM      3  N   UNL d   1      56.555   0.357  32.727  0.00  0.00    -0.220 NA
ATOM      4  C   UNL d   1      55.979  -0.094  33.086  0.00  0.00     0.103 A 
ATOM      5  C   UNL d   1      55.923  -0.806  32.687  0.00  0.00     0.120 A 
ATOM      6  N   UNL d   1      56.466  -0.791  32.080  0.00  0.00    -0.218 NA
BRANCH   4   7
ATOM      7  C   UNL d   1      55.551   0.165  33.740  0.00  0.00     0.019 A 
ATOM      8  C   UNL d   1      55.938   0.312  34.457  0.00  0.00     0.002 A 
ATOM      9  C   UNL d   1      55.495   0.571  35.105  0.00  0.00     0.000 A 
ATOM     10  C   UNL d   1      54.682   0.680  35.034  0.00  0.00     0.000 A 
ATOM     11  C   UNL d   1      54.306   0.535  34.329  0.00  0.00     0.000 A 
ATOM     12  C   UNL d   1      54.748   0.273  33.671  0.00  0.00     0.002 A 
ENDBRANCH   4   7
ENDBRANCH   1   2
BRANCH   1  13
ATOM     13  C   UNL d   1      57.402  -0.027  30.775  0.00  0.00     0.101 C 
BRANCH  13  14
ATOM     14  C   UNL d   1      58.081  -0.063  30.306  0.00  0.00     0.288 C 
ATOM     15  N   UNL d   1      58.319  -0.775  29.961  0.00  0.00    -0.181 NA
ATOM     16  O   UNL d   1      58.530   0.628  30.181  0.00  0.00    -0.265 OA
BRANCH  15  17
ATOM     17  C   UNL d   1      59.002  -0.807  29.490  0.00  0.00     0.219 A 
ATOM     18  S   UNL d   1      59.311  -1.537  29.262  0.00  0.00    -0.026 SA
ATOM     19  C   UNL d   1      59.986  -1.396  28.801  0.00  0.00     0.135 A 
ATOM     20  N   UNL d   1      60.090  -0.579  28.747  0.00  0.00    -0.139 NA
ATOM     21  N   UNL d   1      59.484  -0.213  29.172  0.00  0.00    -0.121 NA
BRANCH  19  22
ATOM     22  C   UNL d   1      60.469  -1.965  28.456  0.00  0.00     0.028 C 
ATOM     23  C   UNL d   1      60.760  -2.586  28.919  0.00  0.00     0.002 C 
ENDBRANCH  19  22
ENDBRANCH  15  17
ENDBRANCH  13  14
ENDBRANCH   1  13
TORSDOF 6
ENDMDL
MODEL 2
REMARK VINA RESULT:      -3.7      1.086      5.984
REMARK  6 active torsions:
REMARK  status: ('A' for Active; 'I' for Inactive)
REMARK    1  A    between atoms: N_9  and  C_1 
REMARK    2  A    between atoms: C_4  and  S_13 
REMARK    3  A    between atoms: C_14  and  C_8 
REMARK       I    between atoms: C_12  and  N_9 
REMARK    4  A    between atoms: C_17  and  C_10 
REMARK    5  A    between atoms: C_16  and  C_12 
REMARK    6  A    between atoms: S_13  and  C_16 
ROOT
ATOM      1  S   UNL d   1      57.785  -0.728  30.217  0.00  0.00    -0.043 SA
ENDROOT
BRANCH   1   2
ATOM      2  C   UNL d   1      58.430  -1.001  29.769  0.00  0.00     0.195 A 
ATOM      3  N   UNL d   1      58.656  -1.785  29.669  0.00  0.00    -0.220 NA
ATOM      4  C   UNL d   1      59.315  -1.794  29.189  0.00  0.00     0.103 A 
ATOM      5  C   UNL d   1      59.500  -1.022  28.991  0.00  0.00     0.120 A 
ATOM      6  N   UNL d   1      58.953  -0.538  29.350  0.00  0.00    -0.218 NA
BRANCH   4   7
ATOM      7  C   UNL d   1      59.697  -2.489  28.967  0.00  0.00     0.019 A 
ATOM      8  C   UNL d   1      60.517  -2.493  28.856  0.00  0.00     0.002 A 
ATOM      9  C   UNL d   1      60.887  -3.198  28.634  0.00  0.00     0.000 A 
ATOM     10  C   UNL d   1      60.442  -3.883  28.525  0.00  0.00     0.000 A 
ATOM     11  C   UNL d   1      59.637  -3.874  28.634  0.00  0.00     0.000 A 
ATOM     12  C   UNL d   1      59.258  -3.165  28.859  0.00  0.00     0.002 A 
ENDBRANCH   4   7
ENDBRANCH   1   2
BRANCH   1  13
ATOM     13  C   UNL d   1      57.877  -0.063  30.700  0.00  0.00     0.101 C 
BRANCH  13  14
ATOM     14  C   UNL d   1      57.259   0.185  31.189  0.00  0.00     0.288 C 
ATOM     15  N   UNL d   1      57.224  -0.052  31.979  0.00  0.00    -0.181 NA
ATOM     16  O   UNL d   1      56.666   0.682  30.879  0.00  0.00    -0.265 OA
BRANCH  15  17
ATOM     17  C   UNL d   1      56.602   0.200  32.468  0.00  0.00     0.219 A 
ATOM     18  S   UNL d   1      56.656   0.105  33.285  0.00  0.00    -0.026 SA
ATOM     19  C   UNL d   1      55.960   0.405  33.624  0.00  0.00     0.135 A 
ATOM     20  N   UNL d   1      55.480   0.682  33.012  0.00  0.00    -0.139 NA
ATOM     21  N   UNL d   1      55.874   0.557  32.298  0.00  0.00    -0.121 NA
BRANCH  19  22
ATOM     22  C   UNL d   1      55.775   0.424  34.425  0.00  0.00     0.028 C 
ATOM     23  C   UNL d   1      55.018   0.656  34.662  0.00  0.00     0.002 C 
ENDBRANCH  19  22
ENDBRANCH  15  17
ENDBRANCH  13  14
ENDBRANCH   1  13
TORSDOF 6
ENDMDL
MODEL 3
REMARK VINA RESULT:      -3.6      1.213      1.708
REMARK  6 active torsions:
REMARK  status: ('A' for Active; 'I' for Inactive)
REMARK    1  A    between atoms: N_9  and  C_1 
REMARK    2  A    between atoms: C_4  and  S_13 
REMARK    3  A    between atoms: C_14  and  C_8 
REMARK       I    between atoms: C_12  and  N_9 
REMARK    4  A    between atoms: C_17  and  C_10 
REMARK    5  A    between atoms: C_16  and  C_12 
REMARK    6  A    between atoms: S_13  and  C_16 
ROOT
ATOM      1  S   UNL d   1      58.390   0.188  30.740  0.00  0.00    -0.043 SA
ENDROOT
BRANCH   1   2
ATOM      2  C   UNL d   1      57.651   0.224  31.117  0.00  0.00     0.195 A 
ATOM      3  N   UNL d   1      57.426  -0.192  31.790  0.00  0.00    -0.220 NA
ATOM      4  C   UNL d   1      56.657   0.013  31.964  0.00  0.00     0.103 A 
ATOM      5  C   UNL d   1      56.400   0.551  31.404  0.00  0.00     0.120 A 
ATOM      6  N   UNL d   1      57.016   0.678  30.886  0.00  0.00    -0.218 NA
BRANCH   4   7
ATOM      7  C   UNL d   1      56.245  -0.298  32.606  0.00  0.00     0.019 A 
ATOM      8  C   UNL d   1      56.126  -1.115  32.666  0.00  0.00     0.002 A 
ATOM      9  C   UNL d   1      55.712  -1.412  33.317  0.00  0.00     0.000 A 
ATOM     10  C   UNL d   1      55.424  -0.899  33.894  0.00  0.00     0.000 A 
ATOM     11  C   UNL d   1      55.543  -0.098  33.831  0.00  0.00     0.000 A 
ATOM     12  C   UNL d   1      55.961   0.208  33.176  0.00  0.00     0.002 A 
ENDBRANCH   4   7
ENDBRANCH   1   2
BRANCH   1  13
ATOM     13  C   UNL d   1      58.426   0.052  29.926  0.00  0.00     0.101 C 
BRANCH  13  14
ATOM     14  C   UNL d   1      58.936  -0.522  29.621  0.00  0.00     0.288 C 
ATOM     15  N   UNL d   1      58.639  -1.222  29.299  0.00  0.00    -0.181 NA
ATOM     16  O   UNL d   1      59.759  -0.391  29.639  0.00  0.00    -0.265 OA
BRANCH  15  17
ATOM     17  C   UNL d   1      59.154  -1.797  28.993  0.00  0.00     0.219 A 
ATOM     18  S   UNL d   1      58.911  -2.584  28.946  0.00  0.00    -0.026 SA
ATOM     19  C   UNL d   1      59.535  -3.025  28.622  0.00  0.00     0.135 A 
ATOM     20  N   UNL d   1      60.159  -2.506  28.472  0.00  0.00    -0.139 NA
ATOM     21  N   UNL d   1      59.927  -1.748  28.700  0.00  0.00    -0.121 NA
BRANCH  19  22
ATOM     22  C   UNL d   1      59.536  -3.834  28.474  0.00  0.00     0.028 C 
ATOM     23  C   UNL d   1      58.819  -4.244  28.455  0.00  0.00     0.002 C 
ENDBRANCH  19  22
ENDBRANCH  15  17
ENDBRANCH  13  14
ENDBRANCH   1  13
TORSDOF 6
ENDMDL
MODEL 4
REMARK VINA RESULT:      -2.0      9.360      9.797
REMARK  6 active torsions:
REMARK  status: ('A' for Active; 'I' for Inactive)
REMARK    1  A    between atoms: N_9  and  C_1 
REMARK    2  A    between atoms: C_4  and  S_13 
REMARK    3  A    between atoms: C_14  and  C_8 
REMARK       I    between atoms: C_12  and  N_9 
REMARK    4  A    between atoms: C_17  and  C_10 
REMARK    5  A    between atoms: C_16  and  C_12 
REMARK    6  A    between atoms: S_13  and  C_16 
ROOT
ATOM      1  S   UNL d   1      60.094  -9.204  31.923  0.00  0.00    -0.043 SA
ENDROOT
BRANCH   1   2
ATOM      2  C   UNL d   1      60.283  -9.305  32.726  0.00  0.00     0.195 A 
ATOM      3  N   UNL d   1      59.809  -9.103  33.367  0.00  0.00    -0.220 NA
ATOM      4  C   UNL d   1      60.214  -9.299  34.047  0.00  0.00     0.103 A 
ATOM      5  C   UNL d   1      60.935  -9.621  33.834  0.00  0.00     0.120 A 
ATOM      6  N   UNL d   1      60.973  -9.622  33.020  0.00  0.00    -0.218 NA
BRANCH   4   7
ATOM      7  C   UNL d   1      59.908  -9.176  34.801  0.00  0.00     0.019 A 
ATOM      8  C   UNL d   1      59.950  -8.425  35.147  0.00  0.00     0.002 A 
ATOM      9  C   UNL d   1      59.638  -8.315  35.905  0.00  0.00     0.000 A 
ATOM     10  C   UNL d   1      59.292  -8.947  36.305  0.00  0.00     0.000 A 
ATOM     11  C   UNL d   1      59.254  -9.682  35.962  0.00  0.00     0.000 A 
ATOM     12  C   UNL d   1      59.567  -9.798  35.197  0.00  0.00     0.002 A 
ENDBRANCH   4   7
ENDBRANCH   1   2
BRANCH   1  13
ATOM     13  C   UNL d   1      60.243  -9.818  31.390  0.00  0.00     0.101 C 
BRANCH  13  14
ATOM     14  C   UNL d   1      59.899  -9.810  30.639  0.00  0.00     0.288 C 
ATOM     15  N   UNL d   1      59.077  -9.802  30.550  0.00  0.00    -0.181 NA
ATOM     16  O   UNL d   1      60.387  -9.810  29.964  0.00  0.00    -0.265 OA
BRANCH  15  17
ATOM     17  C   UNL d   1      58.735  -9.794  29.794  0.00  0.00     0.219 A 
ATOM     18  S   UNL d   1      57.914  -9.801  29.714  0.00  0.00    -0.026 SA
ATOM     19  C   UNL d   1      57.736  -9.791  28.903  0.00  0.00     0.135 A 
ATOM     20  N   UNL d   1      58.450  -9.777  28.488  0.00  0.00    -0.139 NA
ATOM     21  N   UNL d   1      59.067  -9.779  29.036  0.00  0.00    -0.121 NA
BRANCH  19  22
ATOM     22  C   UNL d   1      56.986  -9.793  28.568  0.00  0.00     0.028 C 
ATOM     23  C   UNL d   1      56.567  -9.083  28.504  0.00  0.00     0.002 C 
ENDBRANCH  19  22
ENDBRANCH  15  17
ENDBRANCH  13  14
ENDBRANCH   1  13
TORSDOF 6
ENDMDL
MODEL 5
REMARK VINA RESULT:      -2.0      1.666      5.936
REMARK  6 active torsions:
REMARK  status: ('A' for Active; 'I' for Inactive)
REMARK    1  A    between atoms: N_9  and  C_1 
REMARK    2  A    between atoms: C_4  and  S_13 
REMARK    3  A    between atoms: C_14  and  C_8 
REMARK       I    between atoms: C_12  and  N_9 
REMARK    4  A    between atoms: C_17  and  C_10 
REMARK    5  A    between atoms: C_16  and  C_12 
REMARK    6  A    between atoms: S_13  and  C_16 
ROOT
ATOM      1  S   UNL d   1      57.194  -0.378  31.388  0.00  0.00    -0.043 SA
ENDROOT
BRANCH   1   2
ATOM      2  C   UNL d   1      57.678  -0.406  30.713  0.00  0.00     0.195 A 
ATOM      3  N   UNL d   1      58.414  -0.049  30.626  0.00  0.00    -0.220 NA
ATOM      4  C   UNL d   1      58.687  -0.222  29.877  0.00  0.00     0.103 A 
ATOM      5  C   UNL d   1      58.127  -0.682  29.498  0.00  0.00     0.120 A 
ATOM      6  N   UNL d   1      57.508  -0.793  30.017  0.00  0.00    -0.218 NA
BRANCH   4   7
ATOM      7  C   UNL d   1      59.412   0.046  29.593  0.00  0.00     0.019 A 
ATOM      8  C   UNL d   1      60.070   0.071  30.095  0.00  0.00     0.002 A 
ATOM      9  C   UNL d   1      60.791   0.342  29.796  0.00  0.00     0.000 A 
ATOM     10  C   UNL d   1      60.850   0.581  29.010  0.00  0.00     0.000 A 
ATOM     11  C   UNL d   1      60.202   0.555  28.521  0.00  0.00     0.000 A 
ATOM     12  C   UNL d   1      59.471   0.283  28.817  0.00  0.00     0.002 A 
ENDBRANCH   4   7
ENDBRANCH   1   2
BRANCH   1  13
ATOM     13  C   UNL d   1      56.902   0.350  31.649  0.00  0.00     0.101 C 
BRANCH  13  14
ATOM     14  C   UNL d   1      56.323   0.379  32.238  0.00  0.00     0.288 C 
ATOM     15  N   UNL d   1      56.519   0.586  33.013  0.00  0.00    -0.181 NA
ATOM     16  O   UNL d   1      55.532   0.199  32.045  0.00  0.00    -0.265 OA
BRANCH  15  17
ATOM     17  C   UNL d   1      55.935   0.614  33.602  0.00  0.00     0.219 A 
ATOM     18  S   UNL d   1      56.150   0.578  34.398  0.00  0.00    -0.026 SA
ATOM     19  C   UNL d   1      55.456   0.618  34.852  0.00  0.00     0.135 A 
ATOM     20  N   UNL d   1      54.817   0.679  34.333  0.00  0.00    -0.139 NA
ATOM     21  N   UNL d   1      55.109   0.677  33.562  0.00  0.00    -0.121 NA
BRANCH  19  22
ATOM     22  C   UNL d   1      55.408   0.601  35.673  0.00  0.00     0.028 C 
ATOM     23  C   UNL d   1      54.671   0.677  36.038  0.00  0.00     0.002 C 
ENDBRANCH  19  22
ENDBRANCH  15  17
ENDBRANCH  13  14
ENDBRANCH   1  13
TORSDOF 6
ENDMDL
