MODEL 1
REMARK VINA RESULT:      -1.4      0.000      0.000
REMARK  6 active torsions:
REMARK  status: ('A' for Active; 'I' for Inactive)
REMARK    1  A    between atoms: C_8  and  C_6 
REMARK    2  A    between atoms: C_10  and  C_8 
REMARK       I    between atoms: N_13  and  C_10 
REMARK    3  A    between atoms: C_11  and  C_14 
REMARK    4  A    between atoms: O_20  and  C_11 
REMARK    5  A    between atoms: C_19  and  N_13 
REMARK    6  A    between atoms: C_23  and  O_20 
ROOT
ATOM      1  C   UNL d   1      32.819  18.741 -24.273  0.00  0.00     0.280 C 
ATOM      2  N   UNL d   1      33.240  19.425 -24.078  0.00  0.00    -0.208 NA
ATOM      3  O   UNL d   1      32.931  18.390 -25.011  0.00  0.00    -0.265 OA
ENDROOT
BRANCH   1   4
ATOM      4  C   UNL d   1      32.290  18.413 -23.734  0.00  0.00     0.074 C 
BRANCH   4   5
ATOM      5  C   UNL d   1      31.730  17.858 -23.990  0.00  0.00     0.095 A 
ATOM      6  C   UNL d   1      31.613  17.108 -23.672  0.00  0.00     0.288 A 
ATOM      7  N   UNL d   1      31.006  16.747 -24.089  0.00  0.00    -0.169 N 
ATOM      8  O   UNL d   1      32.033  16.778 -23.043  0.00  0.00    -0.265 OA
ATOM      9  C   UNL d   1      30.744  17.275 -24.671  0.00  0.00     0.200 A 
ATOM     10  N   UNL d   1      30.557  16.058 -24.151  0.00  0.00    -0.138 NA
ATOM     11  N   UNL d   1      30.133  16.913 -25.092  0.00  0.00    -0.197 NA
ATOM     12  S   UNL d   1      31.193  17.965 -24.609  0.00  0.00    -0.043 SA
ATOM     13  C   UNL d   1      30.015  16.157 -24.771  0.00  0.00     0.222 A 
ENDBRANCH   4   5
ENDBRANCH   1   4
BRANCH   2  14
ATOM     14  C   UNL d   1      33.125  19.773 -23.340  0.00  0.00     0.085 A 
ATOM     15  C   UNL d   1      32.914  20.572 -23.296  0.00  0.00     0.019 A 
ATOM     16  C   UNL d   1      32.797  20.929 -22.569  0.00  0.00     0.007 A 
ATOM     17  C   UNL d   1      32.891  20.487 -21.871  0.00  0.00     0.064 A 
ATOM     18  C   UNL d   1      33.102  19.687 -21.917  0.00  0.00     0.007 A 
ATOM     19  C   UNL d   1      33.219  19.332 -22.650  0.00  0.00     0.019 A 
BRANCH  17  20
ATOM     20  C   UNL d   1      32.775  20.837 -21.137  0.00  0.00     0.300 C 
ATOM     21  O   UNL d   1      32.829  20.378 -20.449  0.00  0.00    -0.259 OA
BRANCH  20  22
ATOM     22  O   UNL d   1      32.606  21.640 -21.083  0.00  0.00    -0.271 OA
BRANCH  22  23
ATOM     23  C   UNL d   1      32.381  21.964 -20.355  0.00  0.00     0.126 C 
ATOM     24  C   UNL d   1      32.495  22.769 -20.210  0.00  0.00     0.029 C 
ENDBRANCH  22  23
ENDBRANCH  20  22
ENDBRANCH  17  20
ENDBRANCH   2  14
TORSDOF 6
ENDMDL
MODEL 2
REMARK VINA RESULT:      -1.1      1.692      4.727
REMARK  6 active torsions:
REMARK  status: ('A' for Active; 'I' for Inactive)
REMARK    1  A    between atoms: C_8  and  C_6 
REMARK    2  A    between atoms: C_10  and  C_8 
REMARK       I    between atoms: N_13  and  C_10 
REMARK    3  A    between atoms: C_11  and  C_14 
REMARK    4  A    between atoms: O_20  and  C_11 
REMARK    5  A    between atoms: C_19  and  N_13 
REMARK    6  A    between atoms: C_23  and  O_20 
ROOT
ATOM      1  C   UNL d   1      32.647  18.524 -24.587  0.00  0.00     0.280 C 
ATOM      2  N   UNL d   1      32.284  17.966 -25.077  0.00  0.00    -0.208 NA
ATOM      3  O   UNL d   1      33.241  19.009 -24.892  0.00  0.00    -0.265 OA
ENDROOT
BRANCH   1   4
ATOM      4  C   UNL d   1      32.416  18.597 -23.800  0.00  0.00     0.074 C 
BRANCH   4   5
ATOM      5  C   UNL d   1      32.619  19.275 -23.370  0.00  0.00     0.095 A 
ATOM      6  C   UNL d   1      32.660  19.333 -22.550  0.00  0.00     0.288 A 
ATOM      7  N   UNL d   1      32.880  20.100 -22.360  0.00  0.00    -0.169 N 
ATOM      8  O   UNL d   1      32.505  18.726 -22.013  0.00  0.00    -0.265 OA
ATOM      9  C   UNL d   1      32.978  20.522 -23.066  0.00  0.00     0.200 A 
ATOM     10  N   UNL d   1      33.042  20.612 -21.734  0.00  0.00    -0.138 NA
ATOM     11  N   UNL d   1      33.200  21.295 -22.877  0.00  0.00    -0.197 NA
ATOM     12  S   UNL d   1      32.816  20.010 -23.693  0.00  0.00    -0.043 SA
ATOM     13  C   UNL d   1      33.241  21.353 -22.051  0.00  0.00     0.222 A 
ENDBRANCH   4   5
ENDBRANCH   1   4
BRANCH   2  14
ATOM     14  C   UNL d   1      31.691  17.483 -24.769  0.00  0.00     0.085 A 
ATOM     15  C   UNL d   1      30.901  17.640 -24.959  0.00  0.00     0.019 A 
ATOM     16  C   UNL d   1      30.303  17.168 -24.659  0.00  0.00     0.007 A 
ATOM     17  C   UNL d   1      30.490  16.529 -24.162  0.00  0.00     0.064 A 
ATOM     18  C   UNL d   1      31.283  16.374 -23.973  0.00  0.00     0.007 A 
ATOM     19  C   UNL d   1      31.880  16.850 -24.276  0.00  0.00     0.019 A 
BRANCH  17  20
ATOM     20  C   UNL d   1      29.897  16.050 -23.857  0.00  0.00     0.300 C 
ATOM     21  O   UNL d   1      29.551  15.468 -24.335  0.00  0.00    -0.259 OA
BRANCH  20  22
ATOM     22  O   UNL d   1      29.646  16.146 -23.079  0.00  0.00    -0.271 OA
BRANCH  22  23
ATOM     23  C   UNL d   1      29.137  15.588 -22.740  0.00  0.00     0.126 C 
ATOM     24  C   UNL d   1      29.158  15.453 -21.926  0.00  0.00     0.029 C 
ENDBRANCH  22  23
ENDBRANCH  20  22
ENDBRANCH  17  20
ENDBRANCH   2  14
TORSDOF 6
ENDMDL
MODEL 3
REMARK VINA RESULT:      -0.8      2.018      4.867
REMARK  6 active torsions:
REMARK  status: ('A' for Active; 'I' for Inactive)
REMARK    1  A    between atoms: C_8  and  C_6 
REMARK    2  A    between atoms: C_10  and  C_8 
REMARK       I    between atoms: N_13  and  C_10 
REMARK    3  A    between atoms: C_11  and  C_14 
REMARK    4  A    between atoms: O_20  and  C_11 
REMARK    5  A    between atoms: C_19  and  N_13 
REMARK    6  A    between atoms: C_23  and  O_20 
ROOT
ATOM      1  C   UNL d   1      33.042  20.427 -24.136  0.00  0.00     0.280 C 
ATOM      2  N   UNL d   1      32.879  19.970 -24.805  0.00  0.00    -0.208 NA
ATOM      3  O   UNL d   1      33.239  21.223 -24.224  0.00  0.00    -0.265 OA
ENDROOT
BRANCH   1   4
ATOM      4  C   UNL d   1      33.007  20.090 -23.385  0.00  0.00     0.074 C 
BRANCH   4   5
ATOM      5  C   UNL d   1      33.063  20.570 -22.713  0.00  0.00     0.095 A 
ATOM      6  C   UNL d   1      33.130  20.307 -21.935  0.00  0.00     0.288 A 
ATOM      7  N   UNL d   1      33.169  20.966 -21.447  0.00  0.00    -0.169 N 
ATOM      8  O   UNL d   1      33.153  19.520 -21.691  0.00  0.00    -0.265 OA
ATOM      9  C   UNL d   1      33.127  21.642 -21.923  0.00  0.00     0.200 A 
ATOM     10  N   UNL d   1      33.236  21.211 -20.663  0.00  0.00    -0.138 NA
ATOM     11  N   UNL d   1      33.167  22.305 -21.433  0.00  0.00    -0.197 NA
ATOM     12  S   UNL d   1      33.061  21.397 -22.708  0.00  0.00    -0.043 SA
ATOM     13  C   UNL d   1      33.234  22.040 -20.650  0.00  0.00     0.222 A 
ENDBRANCH   4   5
ENDBRANCH   1   4
BRANCH   2  14
ATOM     14  C   UNL d   1      32.683  19.175 -24.713  0.00  0.00     0.085 A 
ATOM     15  C   UNL d   1      33.241  18.595 -24.902  0.00  0.00     0.019 A 
ATOM     16  C   UNL d   1      33.058  17.801 -24.814  0.00  0.00     0.007 A 
ATOM     17  C   UNL d   1      32.307  17.579 -24.535  0.00  0.00     0.064 A 
ATOM     18  C   UNL d   1      31.749  18.162 -24.346  0.00  0.00     0.007 A 
ATOM     19  C   UNL d   1      31.938  18.957 -24.436  0.00  0.00     0.019 A 
BRANCH  17  20
ATOM     20  C   UNL d   1      32.115  16.786 -24.444  0.00  0.00     0.300 C 
ATOM     21  O   UNL d   1      32.613  16.202 -24.758  0.00  0.00    -0.259 OA
BRANCH  20  22
ATOM     22  O   UNL d   1      31.430  16.568 -24.043  0.00  0.00    -0.271 OA
BRANCH  22  23
ATOM     23  C   UNL d   1      31.160  15.787 -24.086  0.00  0.00     0.126 C 
ATOM     24  C   UNL d   1      30.660  15.491 -23.497  0.00  0.00     0.029 C 
ENDBRANCH  22  23
ENDBRANCH  20  22
ENDBRANCH  17  20
ENDBRANCH   2  14
TORSDOF 6
ENDMDL
MODEL 4
REMARK VINA RESULT:       0.6      1.324      1.956
REMARK  6 active torsions:
REMARK  status: ('A' for Active; 'I' for Inactive)
REMARK    1  A    between atoms: C_8  and  C_6 
REMARK    2  A    between atoms: C_10  and  C_8 
REMARK       I    between atoms: N_13  and  C_10 
REMARK    3  A    between atoms: C_11  and  C_14 
REMARK    4  A    between atoms: O_20  and  C_11 
REMARK    5  A    between atoms: C_19  and  N_13 
REMARK    6  A    between atoms: C_23  and  O_20 
ROOT
ATOM      1  C   UNL d   1      32.133  16.946 -24.333  0.00  0.00     0.280 C 
ATOM      2  N   UNL d   1      32.872  17.258 -24.133  0.00  0.00    -0.208 NA
ATOM      3  O   UNL d   1      32.088  16.206 -24.695  0.00  0.00    -0.265 OA
ENDROOT
BRANCH   1   4
ATOM      4  C   UNL d   1      31.446  17.371 -24.171  0.00  0.00     0.074 C 
BRANCH   4   5
ATOM      5  C   UNL d   1      30.711  16.988 -24.180  0.00  0.00     0.095 A 
ATOM      6  C   UNL d   1      29.979  17.350 -24.284  0.00  0.00     0.288 A 
ATOM      7  N   UNL d   1      29.402  16.768 -24.255  0.00  0.00    -0.169 N 
ATOM      8  O   UNL d   1      29.850  18.157 -24.397  0.00  0.00    -0.265 OA
ATOM      9  C   UNL d   1      29.776  16.039 -24.132  0.00  0.00     0.200 A 
ATOM     10  N   UNL d   1      28.590  16.631 -24.302  0.00  0.00    -0.138 NA
ATOM     11  N   UNL d   1      29.196  15.452 -24.103  0.00  0.00    -0.197 NA
ATOM     12  S   UNL d   1      30.589  16.176 -24.086  0.00  0.00    -0.043 SA
ATOM     13  C   UNL d   1      28.459  15.818 -24.208  0.00  0.00     0.222 A 
ENDBRANCH   4   5
ENDBRANCH   1   4
BRANCH   2  14
ATOM     14  C   UNL d   1      32.913  17.998 -23.771  0.00  0.00     0.085 A 
ATOM     15  C   UNL d   1      32.915  18.045 -22.945  0.00  0.00     0.019 A 
ATOM     16  C   UNL d   1      32.956  18.774 -22.573  0.00  0.00     0.007 A 
ATOM     17  C   UNL d   1      32.994  19.468 -23.027  0.00  0.00     0.064 A 
ATOM     18  C   UNL d   1      32.991  19.418 -23.855  0.00  0.00     0.007 A 
ATOM     19  C   UNL d   1      32.951  18.685 -24.224  0.00  0.00     0.019 A 
BRANCH  17  20
ATOM     20  C   UNL d   1      33.035  20.203 -22.663  0.00  0.00     0.300 C 
ATOM     21  O   UNL d   1      33.240  20.872 -23.108  0.00  0.00    -0.259 OA
BRANCH  20  22
ATOM     22  O   UNL d   1      32.873  20.277 -21.860  0.00  0.00    -0.271 OA
BRANCH  22  23
ATOM     23  C   UNL d   1      32.885  21.026 -21.506  0.00  0.00     0.126 C 
ATOM     24  C   UNL d   1      32.481  21.152 -20.797  0.00  0.00     0.029 C 
ENDBRANCH  22  23
ENDBRANCH  20  22
ENDBRANCH  17  20
ENDBRANCH   2  14
TORSDOF 6
ENDMDL
MODEL 5
REMARK VINA RESULT:       0.7      2.257      5.150
REMARK  6 active torsions:
REMARK  status: ('A' for Active; 'I' for Inactive)
REMARK    1  A    between atoms: C_8  and  C_6 
REMARK    2  A    between atoms: C_10  and  C_8 
REMARK       I    between atoms: N_13  and  C_10 
REMARK    3  A    between atoms: C_11  and  C_14 
REMARK    4  A    between atoms: O_20  and  C_11 
REMARK    5  A    between atoms: C_19  and  N_13 
REMARK    6  A    between atoms: C_23  and  O_20 
ROOT
ATOM      1  C   UNL d   1      32.424  16.729 -24.071  0.00  0.00     0.280 C 
ATOM      2  N   UNL d   1      32.109  15.971 -23.966  0.00  0.00    -0.208 NA
ATOM      3  O   UNL d   1      33.241  16.827 -24.125  0.00  0.00    -0.265 OA
ENDROOT
BRANCH   1   4
ATOM      4  C   UNL d   1      31.924  17.382 -24.120  0.00  0.00     0.074 C 
BRANCH   4   5
ATOM      5  C   UNL d   1      32.242  18.139 -24.224  0.00  0.00     0.095 A 
ATOM      6  C   UNL d   1      32.225  18.750 -23.673  0.00  0.00     0.288 A 
ATOM      7  N   UNL d   1      32.601  19.400 -24.003  0.00  0.00    -0.169 N 
ATOM      8  O   UNL d   1      31.889  18.714 -22.920  0.00  0.00    -0.265 OA
ATOM      9  C   UNL d   1      32.854  19.193 -24.764  0.00  0.00     0.200 A 
ATOM     10  N   UNL d   1      32.825  20.182 -23.865  0.00  0.00    -0.138 NA
ATOM     11  N   UNL d   1      33.233  19.847 -25.097  0.00  0.00    -0.197 NA
ATOM     12  S   UNL d   1      32.630  18.411 -24.901  0.00  0.00    -0.043 SA
ATOM     13  C   UNL d   1      33.216  20.462 -24.541  0.00  0.00     0.222 A 
ENDBRANCH   4   5
ENDBRANCH   1   4
BRANCH   2  14
ATOM     14  C   UNL d   1      31.292  15.877 -23.912  0.00  0.00     0.085 A 
ATOM     15  C   UNL d   1      30.936  15.842 -23.167  0.00  0.00     0.019 A 
ATOM     16  C   UNL d   1      30.125  15.749 -23.100  0.00  0.00     0.007 A 
ATOM     17  C   UNL d   1      29.658  15.689 -23.785  0.00  0.00     0.064 A 
ATOM     18  C   UNL d   1      30.018  15.725 -24.531  0.00  0.00     0.007 A 
ATOM     19  C   UNL d   1      30.832  15.818 -24.593  0.00  0.00     0.019 A 
BRANCH  17  20
ATOM     20  C   UNL d   1      28.845  15.595 -23.728  0.00  0.00     0.300 C 
ATOM     21  O   UNL d   1      28.477  15.629 -22.985  0.00  0.00    -0.259 OA
BRANCH  20  22
ATOM     22  O   UNL d   1      28.393  15.469 -24.404  0.00  0.00    -0.271 OA
BRANCH  22  23
ATOM     23  C   UNL d   1      27.632  15.789 -24.455  0.00  0.00     0.126 C 
ATOM     24  C   UNL d   1      27.077  15.453 -24.966  0.00  0.00     0.029 C 
ENDBRANCH  22  23
ENDBRANCH  20  22
ENDBRANCH  17  20
ENDBRANCH   2  14
TORSDOF 6
ENDMDL
MODEL 6
REMARK VINA RESULT:       0.9      2.318      5.027
REMARK  6 active torsions:
REMARK  status: ('A' for Active; 'I' for Inactive)
REMARK    1  A    between atoms: C_8  and  C_6 
REMARK    2  A    between atoms: C_10  and  C_8 
REMARK       I    between atoms: N_13  and  C_10 
REMARK    3  A    between atoms: C_11  and  C_14 
REMARK    4  A    between atoms: O_20  and  C_11 
REMARK    5  A    between atoms: C_19  and  N_13 
REMARK    6  A    between atoms: C_23  and  O_20 
ROOT
ATOM      1  C   UNL d   1      33.040  21.340 -23.130  0.00  0.00     0.280 C 
ATOM      2  N   UNL d   1      33.236  20.784 -23.710  0.00  0.00    -0.208 NA
ATOM      3  O   UNL d   1      33.227  22.135 -23.248  0.00  0.00    -0.265 OA
ENDROOT
BRANCH   1   4
ATOM      4  C   UNL d   1      32.660  21.102 -22.440  0.00  0.00     0.074 C 
BRANCH   4   5
ATOM      5  C   UNL d   1      32.592  21.627 -21.803  0.00  0.00     0.095 A 
ATOM      6  C   UNL d   1      32.277  21.451 -21.063  0.00  0.00     0.288 A 
ATOM      7  N   UNL d   1      32.317  22.129 -20.602  0.00  0.00    -0.169 N 
ATOM      8  O   UNL d   1      31.974  20.721 -20.827  0.00  0.00    -0.265 OA
ATOM      9  C   UNL d   1      32.659  22.730 -21.058  0.00  0.00     0.200 A 
ATOM     10  N   UNL d   1      32.147  22.440 -19.857  0.00  0.00    -0.138 NA
ATOM     11  N   UNL d   1      32.700  23.413 -20.595  0.00  0.00    -0.197 NA
ATOM     12  S   UNL d   1      32.829  22.419 -21.803  0.00  0.00    -0.043 SA
ATOM     13  C   UNL d   1      32.383  23.235 -19.850  0.00  0.00     0.222 A 
ENDBRANCH   4   5
ENDBRANCH   1   4
BRANCH   2  14
ATOM     14  C   UNL d   1      33.047  19.991 -23.589  0.00  0.00     0.085 A 
ATOM     15  C   UNL d   1      33.241  19.633 -22.869  0.00  0.00     0.019 A 
ATOM     16  C   UNL d   1      33.059  18.846 -22.736  0.00  0.00     0.007 A 
ATOM     17  C   UNL d   1      32.677  18.404 -23.328  0.00  0.00     0.064 A 
ATOM     18  C   UNL d   1      32.484  18.765 -24.049  0.00  0.00     0.007 A 
ATOM     19  C   UNL d   1      32.669  19.555 -24.178  0.00  0.00     0.019 A 
BRANCH  17  20
ATOM     20  C   UNL d   1      32.491  17.615 -23.203  0.00  0.00     0.300 C 
ATOM     21  O   UNL d   1      33.020  17.126 -22.792  0.00  0.00    -0.259 OA
BRANCH  20  22
ATOM     22  O   UNL d   1      31.782  17.306 -23.485  0.00  0.00    -0.271 OA
BRANCH  22  23
ATOM     23  C   UNL d   1      31.503  16.584 -23.192  0.00  0.00     0.126 C 
ATOM     24  C   UNL d   1      31.099  16.065 -23.693  0.00  0.00     0.029 C 
ENDBRANCH  22  23
ENDBRANCH  20  22
ENDBRANCH  17  20
ENDBRANCH   2  14
TORSDOF 6
ENDMDL
