MODEL 1
REMARK VINA RESULT:      37.5      0.000      0.000
REMARK  1 active torsions:
REMARK  status: ('A' for Active; 'I' for Inactive)
REMARK    1  A    between atoms: N_13  and  C_2 
ROOT
ATOM      1  C   UNL d   1      46.368 -18.185  43.318  0.00  0.00     0.024 A 
ATOM      2  C   UNL d   1      46.306 -17.474  43.735  0.00  0.00     0.138 A 
ATOM      3  C   UNL d   1      46.333 -16.755  43.329  0.00  0.00     0.282 A 
ATOM      4  C   UNL d   1      46.457 -18.176  42.500  0.00  0.00     0.021 A 
ATOM      5  N   UNL d   1      46.422 -16.754  42.510  0.00  0.00    -0.271 N 
ATOM      6  C   UNL d   1      46.485 -17.462  42.091  0.00  0.00     0.067 A 
ATOM      7  C   UNL d   1      46.341 -18.900  43.723  0.00  0.00     0.005 A 
ATOM      8  C   UNL d   1      46.519 -18.897  42.088  0.00  0.00     0.040 A 
ATOM      9  C   UNL d   1      46.492 -19.615  42.496  0.00  0.00     0.196 A 
ATOM     10  C   UNL d   1      46.403 -19.614  43.314  0.00  0.00     0.039 A 
ATOM     11  O   UNL d   1      46.271 -16.041  43.738  0.00  0.00    -0.265 OA
ATOM     12  O   UNL d   1      46.554 -20.329  42.087  0.00  0.00    -0.287 OA
ATOM     13  C   UNL d   1      46.448 -16.030  42.107  0.00  0.00     0.102 C 
ATOM     14  C   UNL d   1      46.573 -17.452  41.279  0.00  0.00     0.018 A 
ATOM     15  C   UNL d   1      46.609 -18.886  41.267  0.00  0.00     0.003 A 
ATOM     16  C   UNL d   1      46.252 -18.902  44.545  0.00  0.00     0.000 A 
ATOM     17  C   UNL d   1      46.375 -20.330  43.727  0.00  0.00     0.003 A 
ATOM     18  C   UNL d   1      46.637 -18.171  40.853  0.00  0.00     0.002 A 
ATOM     19  C   UNL d   1      46.224 -19.615  44.955  0.00  0.00     0.000 A 
ATOM     20  C   UNL d   1      46.286 -20.329  44.546  0.00  0.00     0.000 A 
ENDROOT
BRANCH   2  21
ATOM     21  N   UNL d   1      46.217 -17.478  44.551  0.00  0.00    -0.238 NA
ATOM     22  C   UNL d   1      45.896 -16.822  44.935  0.00  0.00     0.120 C 
ENDBRANCH   2  21
TORSDOF 1
ENDMDL
MODEL 2
REMARK VINA RESULT:      37.9      1.219      3.059
REMARK  1 active torsions:
REMARK  status: ('A' for Active; 'I' for Inactive)
REMARK    1  A    between atoms: N_13  and  C_2 
ROOT
ATOM      1  C   UNL d   1      46.261 -18.125  42.483  0.00  0.00     0.024 A 
ATOM      2  C   UNL d   1      46.271 -18.058  41.660  0.00  0.00     0.138 A 
ATOM      3  C   UNL d   1      46.400 -18.727  41.192  0.00  0.00     0.282 A 
ATOM      4  C   UNL d   1      46.379 -18.858  42.837  0.00  0.00     0.021 A 
ATOM      5  N   UNL d   1      46.518 -19.457  41.554  0.00  0.00    -0.271 N 
ATOM      6  C   UNL d   1      46.508 -19.528  42.376  0.00  0.00     0.067 A 
ATOM      7  C   UNL d   1      46.133 -17.459  42.946  0.00  0.00     0.005 A 
ATOM      8  C   UNL d   1      46.368 -18.918  43.668  0.00  0.00     0.040 A 
ATOM      9  C   UNL d   1      46.239 -18.248  44.132  0.00  0.00     0.196 A 
ATOM     10  C   UNL d   1      46.122 -17.518  43.769  0.00  0.00     0.039 A 
ATOM     11  O   UNL d   1      46.412 -18.668  40.369  0.00  0.00    -0.265 OA
ATOM     12  O   UNL d   1      46.227 -18.307  44.955  0.00  0.00    -0.287 OA
ATOM     13  C   UNL d   1      46.646 -20.126  41.082  0.00  0.00     0.102 C 
ATOM     14  C   UNL d   1      46.626 -20.258  42.726  0.00  0.00     0.018 A 
ATOM     15  C   UNL d   1      46.486 -19.655  44.021  0.00  0.00     0.003 A 
ATOM     16  C   UNL d   1      46.015 -16.725  42.584  0.00  0.00     0.000 A 
ATOM     17  C   UNL d   1      45.992 -16.844  44.230  0.00  0.00     0.003 A 
ATOM     18  C   UNL d   1      46.616 -20.330  43.561  0.00  0.00     0.002 A 
ATOM     19  C   UNL d   1      45.886 -16.054  43.044  0.00  0.00     0.000 A 
ATOM     20  C   UNL d   1      45.875 -16.113  43.867  0.00  0.00     0.000 A 
ENDROOT
BRANCH   2  21
ATOM     21  N   UNL d   1      46.154 -17.328  41.301  0.00  0.00    -0.238 NA
ATOM     22  C   UNL d   1      46.608 -17.110  40.648  0.00  0.00     0.120 C 
ENDBRANCH   2  21
TORSDOF 1
ENDMDL
MODEL 3
REMARK VINA RESULT:      40.2      0.939      2.674
REMARK  1 active torsions:
REMARK  status: ('A' for Active; 'I' for Inactive)
REMARK    1  A    between atoms: N_13  and  C_2 
ROOT
ATOM      1  C   UNL d   1      46.267 -18.191  43.320  0.00  0.00     0.024 A 
ATOM      2  C   UNL d   1      46.267 -18.901  43.741  0.00  0.00     0.138 A 
ATOM      3  C   UNL d   1      46.394 -19.616  43.345  0.00  0.00     0.282 A 
ATOM      4  C   UNL d   1      46.393 -18.195  42.506  0.00  0.00     0.021 A 
ATOM      5  N   UNL d   1      46.519 -19.611  42.531  0.00  0.00    -0.271 N 
ATOM      6  C   UNL d   1      46.520 -18.903  42.107  0.00  0.00     0.067 A 
ATOM      7  C   UNL d   1      46.141 -17.481  43.714  0.00  0.00     0.005 A 
ATOM      8  C   UNL d   1      46.392 -17.474  42.089  0.00  0.00     0.040 A 
ATOM      9  C   UNL d   1      46.265 -16.761  42.487  0.00  0.00     0.196 A 
ATOM     10  C   UNL d   1      46.140 -16.768  43.300  0.00  0.00     0.039 A 
ATOM     11  O   UNL d   1      46.396 -20.330  43.758  0.00  0.00    -0.265 OA
ATOM     12  O   UNL d   1      46.263 -16.048  42.073  0.00  0.00    -0.287 OA
ATOM     13  C   UNL d   1      46.646 -20.330  42.137  0.00  0.00     0.102 C 
ATOM     14  C   UNL d   1      46.645 -18.909  41.299  0.00  0.00     0.018 A 
ATOM     15  C   UNL d   1      46.518 -17.479  41.273  0.00  0.00     0.003 A 
ATOM     16  C   UNL d   1      46.015 -17.484  44.531  0.00  0.00     0.000 A 
ATOM     17  C   UNL d   1      46.012 -16.057  43.704  0.00  0.00     0.003 A 
ATOM     18  C   UNL d   1      46.646 -18.190  40.869  0.00  0.00     0.002 A 
ATOM     19  C   UNL d   1      45.888 -16.776  44.932  0.00  0.00     0.000 A 
ATOM     20  C   UNL d   1      45.887 -16.062  44.518  0.00  0.00     0.000 A 
ENDROOT
BRANCH   2  21
ATOM     21  N   UNL d   1      46.142 -18.903  44.552  0.00  0.00    -0.238 NA
ATOM     22  C   UNL d   1      46.034 -19.616  44.953  0.00  0.00     0.120 C 
ENDBRANCH   2  21
TORSDOF 1
ENDMDL
