MODEL 1
REMARK VINA RESULT:      -3.0      0.000      0.000
REMARK  5 active torsions:
REMARK  status: ('A' for Active; 'I' for Inactive)
REMARK    1  A    between atoms: N_9  and  C_2 
REMARK    2  A    between atoms: N_12  and  C_6 
REMARK    3  A    between atoms: C_13  and  N_11 
REMARK    4  A    between atoms: C_18  and  N_12 
REMARK    5  A    between atoms: O_28  and  C_23 
ROOT
ATOM      1  N   UNL d   1     -40.505  14.908  19.340  0.00  0.00    -0.041 NA
ATOM      2  C   UNL d   1     -40.440  14.541  20.023  0.00  0.00     0.738 A 
ATOM      3  C   UNL d   1     -39.876  15.228  19.009  0.00  0.00     0.187 A 
ATOM      4  N   UNL d   1     -39.742  14.492  20.379  0.00  0.00    -0.041 NA
ATOM      5  C   UNL d   1     -39.176  15.180  19.361  0.00  0.00     0.094 A 
ATOM      6  C   UNL d   1     -39.106  14.810  20.052  0.00  0.00     0.185 A 
ATOM      7  N   UNL d   1     -39.305  15.922  17.983  0.00  0.00    -0.162 NA
ATOM      8  N   UNL d   1     -39.946  15.598  18.319  0.00  0.00    -0.208 N 
ATOM      9  C   UNL d   1     -38.607  15.873  18.338  0.00  0.00     0.127 A 
ATOM     10  C   UNL d   1     -40.641  15.647  17.965  0.00  0.00     0.123 C 
ENDROOT
BRANCH   2  11
ATOM     11  N   UNL d   1     -41.105  14.202  20.377  0.00  0.00    -0.134 N 
ATOM     12  C   UNL d   1     -41.550  14.633  20.922  0.00  0.00     0.117 A 
ATOM     13  C   UNL d   1     -42.215  14.286  21.272  0.00  0.00     0.100 A 
ATOM     14  N   UNL d   1     -42.433  13.511  21.078  0.00  0.00    -0.301 N 
ATOM     15  C   UNL d   1     -41.987  13.083  20.534  0.00  0.00     0.100 A 
ATOM     16  C   UNL d   1     -41.323  13.427  20.183  0.00  0.00     0.117 A 
BRANCH  14  17
ATOM     17  C   UNL d   1     -43.099  13.168  21.431  0.00  0.00     0.064 A 
ATOM     18  C   UNL d   1     -43.026  12.426  21.798  0.00  0.00     0.020 A 
ATOM     19  C   UNL d   1     -43.692  12.083  22.151  0.00  0.00     0.031 A 
ATOM     20  C   UNL d   1     -44.426  12.482  22.135  0.00  0.00     0.140 A 
ATOM     21  C   UNL d   1     -44.475  13.226  21.760  0.00  0.00     0.031 A 
ATOM     22  F   UNL d   1     -45.090  12.142  22.486  0.00  0.00    -0.204 F 
ATOM     23  C   UNL d   1     -43.812  13.564  21.411  0.00  0.00     0.020 A 
ENDBRANCH  14  17
ENDBRANCH   2  11
BRANCH   6  24
ATOM     24  N   UNL d   1     -38.383  14.755  20.426  0.00  0.00    -0.226 NA
BRANCH  24  25
ATOM     25  C   UNL d   1     -38.314  14.943  21.219  0.00  0.00     0.085 A 
ATOM     26  C   UNL d   1     -38.253  14.349  21.794  0.00  0.00     0.043 A 
ATOM     27  C   UNL d   1     -38.184  14.537  22.589  0.00  0.00     0.096 A 
ATOM     28  C   UNL d   1     -38.176  15.332  22.820  0.00  0.00     0.024 A 
ATOM     29  C   UNL d   1     -38.236  15.922  22.259  0.00  0.00     0.004 A 
ATOM     30  C   UNL d   1     -38.306  15.728  21.456  0.00  0.00     0.019 A 
BRANCH  27  31
ATOM     31  O   UNL d   1     -38.124  13.945  23.156  0.00  0.00    -0.328 OA
ATOM     32  C   UNL d   1     -38.674  13.470  23.546  0.00  0.00     0.181 C 
ENDBRANCH  27  31
ENDBRANCH  24  25
ENDBRANCH   6  24
TORSDOF 5
ENDMDL
MODEL 2
REMARK VINA RESULT:      -2.8      5.955      9.168
REMARK  5 active torsions:
REMARK  status: ('A' for Active; 'I' for Inactive)
REMARK    1  A    between atoms: N_9  and  C_2 
REMARK    2  A    between atoms: N_12  and  C_6 
REMARK    3  A    between atoms: C_13  and  N_11 
REMARK    4  A    between atoms: C_18  and  N_12 
REMARK    5  A    between atoms: O_28  and  C_23 
ROOT
ATOM      1  N   UNL d   1     -48.619  11.649  23.403  0.00  0.00    -0.041 NA
ATOM      2  C   UNL d   1     -48.074  12.205  23.428  0.00  0.00     0.738 A 
ATOM      3  C   UNL d   1     -49.371  11.839  23.473  0.00  0.00     0.187 A 
ATOM      4  N   UNL d   1     -48.282  12.956  23.525  0.00  0.00    -0.041 NA
ATOM      5  C   UNL d   1     -49.583  12.589  23.570  0.00  0.00     0.094 A 
ATOM      6  C   UNL d   1     -49.036  13.153  23.597  0.00  0.00     0.185 A 
ATOM      7  N   UNL d   1     -50.684  11.470  23.519  0.00  0.00    -0.162 NA
ATOM      8  N   UNL d   1     -49.918  11.275  23.447  0.00  0.00    -0.208 N 
ATOM      9  C   UNL d   1     -50.892  12.220  23.616  0.00  0.00     0.127 A 
ATOM     10  C   UNL d   1     -49.711  10.528  23.350  0.00  0.00     0.123 C 
ENDROOT
BRANCH   2  11
ATOM     11  N   UNL d   1     -47.275  12.007  23.354  0.00  0.00    -0.134 N 
ATOM     12  C   UNL d   1     -46.990  11.305  23.680  0.00  0.00     0.117 A 
ATOM     13  C   UNL d   1     -46.189  11.114  23.601  0.00  0.00     0.100 A 
ATOM     14  N   UNL d   1     -45.675  11.623  23.198  0.00  0.00    -0.301 N 
ATOM     15  C   UNL d   1     -45.963  12.323  22.873  0.00  0.00     0.100 A 
ATOM     16  C   UNL d   1     -46.762  12.516  22.950  0.00  0.00     0.117 A 
BRANCH  14  17
ATOM     17  C   UNL d   1     -44.874  11.428  23.121  0.00  0.00     0.064 A 
ATOM     18  C   UNL d   1     -44.578  10.766  23.528  0.00  0.00     0.020 A 
ATOM     19  C   UNL d   1     -43.777  10.571  23.451  0.00  0.00     0.031 A 
ATOM     20  C   UNL d   1     -43.277  11.037  22.970  0.00  0.00     0.140 A 
ATOM     21  C   UNL d   1     -43.597  11.696  22.571  0.00  0.00     0.031 A 
ATOM     22  F   UNL d   1     -42.479  10.843  22.893  0.00  0.00    -0.204 F 
ATOM     23  C   UNL d   1     -44.393  11.887  22.649  0.00  0.00     0.020 A 
ENDBRANCH  14  17
ENDBRANCH   2  11
BRANCH   6  24
ATOM     24  N   UNL d   1     -49.245  13.936  23.697  0.00  0.00    -0.226 NA
BRANCH  24  25
ATOM     25  C   UNL d   1     -49.174  14.464  23.078  0.00  0.00     0.085 A 
ATOM     26  C   UNL d   1     -49.784  14.558  22.526  0.00  0.00     0.043 A 
ATOM     27  C   UNL d   1     -49.714  15.088  21.903  0.00  0.00     0.096 A 
ATOM     28  C   UNL d   1     -49.021  15.535  21.827  0.00  0.00     0.024 A 
ATOM     29  C   UNL d   1     -48.416  15.448  22.369  0.00  0.00     0.004 A 
ATOM     30  C   UNL d   1     -48.491  14.911  22.996  0.00  0.00     0.019 A 
BRANCH  27  31
ATOM     31  O   UNL d   1     -50.321  15.178  21.358  0.00  0.00    -0.328 OA
ATOM     32  C   UNL d   1     -51.064  14.831  21.270  0.00  0.00     0.181 C 
ENDBRANCH  27  31
ENDBRANCH  24  25
ENDBRANCH   6  24
TORSDOF 5
ENDMDL
MODEL 3
REMARK VINA RESULT:      -2.6      2.912      6.424
REMARK  5 active torsions:
REMARK  status: ('A' for Active; 'I' for Inactive)
REMARK    1  A    between atoms: N_9  and  C_2 
REMARK    2  A    between atoms: N_12  and  C_6 
REMARK    3  A    between atoms: C_13  and  N_11 
REMARK    4  A    between atoms: C_18  and  N_12 
REMARK    5  A    between atoms: O_28  and  C_23 
ROOT
ATOM      1  N   UNL d   1     -43.178  12.094  22.213  0.00  0.00    -0.041 NA
ATOM      2  C   UNL d   1     -43.345  12.679  21.727  0.00  0.00     0.738 A 
ATOM      3  C   UNL d   1     -43.754  11.686  22.543  0.00  0.00     0.187 A 
ATOM      4  N   UNL d   1     -44.093  12.859  21.571  0.00  0.00    -0.041 NA
ATOM      5  C   UNL d   1     -44.503  11.863  22.389  0.00  0.00     0.094 A 
ATOM      6  C   UNL d   1     -44.676  12.454  21.899  0.00  0.00     0.185 A 
ATOM      7  N   UNL d   1     -44.169  10.682  23.368  0.00  0.00    -0.162 NA
ATOM      8  N   UNL d   1     -43.581  11.096  23.033  0.00  0.00    -0.208 N 
ATOM      9  C   UNL d   1     -44.916  10.862  23.211  0.00  0.00     0.127 A 
ATOM     10  C   UNL d   1     -42.837  10.917  23.188  0.00  0.00     0.123 C 
ENDROOT
BRANCH   2  11
ATOM     11  N   UNL d   1     -42.736  13.113  21.375  0.00  0.00    -0.134 N 
ATOM     12  C   UNL d   1     -42.682  13.159  20.553  0.00  0.00     0.117 A 
ATOM     13  C   UNL d   1     -42.069  13.595  20.208  0.00  0.00     0.100 A 
ATOM     14  N   UNL d   1     -41.514  13.985  20.684  0.00  0.00    -0.301 N 
ATOM     15  C   UNL d   1     -41.572  13.938  21.504  0.00  0.00     0.100 A 
ATOM     16  C   UNL d   1     -42.181  13.503  21.851  0.00  0.00     0.117 A 
BRANCH  14  17
ATOM     17  C   UNL d   1     -40.903  14.421  20.334  0.00  0.00     0.064 A 
ATOM     18  C   UNL d   1     -40.901  15.249  20.410  0.00  0.00     0.020 A 
ATOM     19  C   UNL d   1     -40.290  15.684  20.061  0.00  0.00     0.031 A 
ATOM     20  C   UNL d   1     -39.686  15.292  19.638  0.00  0.00     0.140 A 
ATOM     21  C   UNL d   1     -39.709  14.460  19.574  0.00  0.00     0.031 A 
ATOM     22  F   UNL d   1     -39.076  15.725  19.289  0.00  0.00    -0.204 F 
ATOM     23  C   UNL d   1     -40.317  14.030  19.922  0.00  0.00     0.020 A 
ENDBRANCH  14  17
ENDBRANCH   2  11
BRANCH   6  24
ATOM     24  N   UNL d   1     -45.452  12.646  21.732  0.00  0.00    -0.226 NA
BRANCH  24  25
ATOM     25  C   UNL d   1     -45.854  13.182  22.201  0.00  0.00     0.085 A 
ATOM     26  C   UNL d   1     -46.542  12.961  22.606  0.00  0.00     0.043 A 
ATOM     27  C   UNL d   1     -46.946  13.498  23.077  0.00  0.00     0.096 A 
ATOM     28  C   UNL d   1     -46.661  14.272  23.147  0.00  0.00     0.024 A 
ATOM     29  C   UNL d   1     -45.983  14.496  22.750  0.00  0.00     0.004 A 
ATOM     30  C   UNL d   1     -45.577  13.951  22.276  0.00  0.00     0.019 A 
BRANCH  27  31
ATOM     31  O   UNL d   1     -47.628  13.274  23.477  0.00  0.00    -0.328 OA
ATOM     32  C   UNL d   1     -48.423  13.225  23.264  0.00  0.00     0.181 C 
ENDBRANCH  27  31
ENDBRANCH  24  25
ENDBRANCH   6  24
TORSDOF 5
ENDMDL
MODEL 4
REMARK VINA RESULT:      -2.1      2.941      5.538
REMARK  5 active torsions:
REMARK  status: ('A' for Active; 'I' for Inactive)
REMARK    1  A    between atoms: N_9  and  C_2 
REMARK    2  A    between atoms: N_12  and  C_6 
REMARK    3  A    between atoms: C_13  and  N_11 
REMARK    4  A    between atoms: C_18  and  N_12 
REMARK    5  A    between atoms: O_28  and  C_23 
ROOT
ATOM      1  N   UNL d   1     -44.819  12.013  22.744  0.00  0.00    -0.041 NA
ATOM      2  C   UNL d   1     -44.961  12.616  22.271  0.00  0.00     0.738 A 
ATOM      3  C   UNL d   1     -44.167  11.595  22.657  0.00  0.00     0.187 A 
ATOM      4  N   UNL d   1     -44.448  12.802  21.707  0.00  0.00    -0.041 NA
ATOM      5  C   UNL d   1     -43.652  11.778  22.093  0.00  0.00     0.094 A 
ATOM      6  C   UNL d   1     -43.791  12.386  21.613  0.00  0.00     0.185 A 
ATOM      7  N   UNL d   1     -43.364  10.564  23.046  0.00  0.00    -0.162 NA
ATOM      8  N   UNL d   1     -44.028  10.988  23.136  0.00  0.00    -0.208 N 
ATOM      9  C   UNL d   1     -42.851  10.750  22.482  0.00  0.00     0.127 A 
ATOM     10  C   UNL d   1     -44.538  10.803  23.698  0.00  0.00     0.123 C 
ENDROOT
BRANCH   2  11
ATOM     11  N   UNL d   1     -45.651  13.061  22.361  0.00  0.00    -0.134 N 
ATOM     12  C   UNL d   1     -45.733  13.572  23.004  0.00  0.00     0.117 A 
ATOM     13  C   UNL d   1     -46.427  14.014  23.087  0.00  0.00     0.100 A 
ATOM     14  N   UNL d   1     -47.036  13.946  22.530  0.00  0.00    -0.301 N 
ATOM     15  C   UNL d   1     -46.951  13.435  21.890  0.00  0.00     0.100 A 
ATOM     16  C   UNL d   1     -46.259  12.993  21.804  0.00  0.00     0.117 A 
BRANCH  14  17
ATOM     17  C   UNL d   1     -47.729  14.391  22.617  0.00  0.00     0.064 A 
ATOM     18  C   UNL d   1     -47.833  15.074  22.155  0.00  0.00     0.020 A 
ATOM     19  C   UNL d   1     -48.526  15.519  22.242  0.00  0.00     0.031 A 
ATOM     20  C   UNL d   1     -49.110  15.279  22.790  0.00  0.00     0.140 A 
ATOM     21  C   UNL d   1     -48.984  14.590  23.243  0.00  0.00     0.031 A 
ATOM     22  F   UNL d   1     -49.801  15.722  22.878  0.00  0.00    -0.204 F 
ATOM     23  C   UNL d   1     -48.295  14.150  23.153  0.00  0.00     0.020 A 
ENDBRANCH  14  17
ENDBRANCH   2  11
BRANCH   6  24
ATOM     24  N   UNL d   1     -43.262  12.585  21.024  0.00  0.00    -0.226 NA
BRANCH  24  25
ATOM     25  C   UNL d   1     -42.745  13.210  21.129  0.00  0.00     0.085 A 
ATOM     26  C   UNL d   1     -41.925  13.094  21.095  0.00  0.00     0.043 A 
ATOM     27  C   UNL d   1     -41.406  13.720  21.200  0.00  0.00     0.096 A 
ATOM     28  C   UNL d   1     -41.706  14.478  21.341  0.00  0.00     0.024 A 
ATOM     29  C   UNL d   1     -42.513  14.599  21.375  0.00  0.00     0.004 A 
ATOM     30  C   UNL d   1     -43.035  13.964  21.269  0.00  0.00     0.019 A 
BRANCH  27  31
ATOM     31  O   UNL d   1     -40.594  13.601  21.166  0.00  0.00    -0.328 OA
ATOM     32  C   UNL d   1     -39.963  13.834  21.644  0.00  0.00     0.181 C 
ENDBRANCH  27  31
ENDBRANCH  24  25
ENDBRANCH   6  24
TORSDOF 5
ENDMDL
