MODEL 1
REMARK VINA RESULT:      51.0      0.000      0.000
REMARK  6 active torsions:
REMARK  status: ('A' for Active; 'I' for Inactive)
REMARK    1  A    between atoms: N_2  and  S_1 
REMARK    2  A    between atoms: C_4  and  S_1 
REMARK    3  A    between atoms: C_5  and  N_3 
REMARK    4  A    between atoms: C_10  and  C_4 
REMARK    5  A    between atoms: C_14  and  C_10 
REMARK    6  A    between atoms: O_15  and  C_13 
ROOT
ATOM      1  N   UNL d   1     -55.255-102.318 -40.787  0.00  0.00    -0.226 N 
ATOM      2  N   UNL d   1     -55.325-102.502 -39.142  0.00  0.00    -0.300 N 
ATOM      3  C   UNL d   1     -55.851-101.933 -40.347  0.00  0.00     0.111 A 
ATOM      4  C   UNL d   1     -54.714-102.781 -40.403  0.00  0.00     0.111 A 
ATOM      5  C   UNL d   1     -54.739-102.879 -39.592  0.00  0.00     0.100 A 
ATOM      6  C   UNL d   1     -55.876-102.031 -39.536  0.00  0.00     0.100 A 
ENDROOT
BRANCH   1   7
ATOM      7  S   UNL d   1     -55.221-102.225 -41.613  0.00  0.00     0.272 S 
ATOM      8  O   UNL d   1     -55.734-101.553 -41.556  0.00  0.00    -0.200 OA
ATOM      9  O   UNL d   1     -54.726-102.873 -41.665  0.00  0.00    -0.200 OA
BRANCH   7  10
ATOM     10  C   UNL d   1     -55.194-102.125 -42.424  0.00  0.00     0.116 C 
BRANCH  10  11
ATOM     11  C   UNL d   1     -54.726-101.513 -42.752  0.00  0.00     0.014 C 
BRANCH  11  12
ATOM     12  C   UNL d   1     -54.982-101.093 -43.451  0.00  0.00     0.001 A 
ATOM     13  C   UNL d   1     -54.932-101.464 -44.208  0.00  0.00     0.000 A 
ATOM     14  C   UNL d   1     -55.182-101.048 -44.875  0.00  0.00     0.000 A 
ATOM     15  C   UNL d   1     -55.474-100.291 -44.812  0.00  0.00     0.000 A 
ATOM     16  C   UNL d   1     -55.518 -99.935 -44.054  0.00  0.00     0.000 A 
ATOM     17  C   UNL d   1     -55.273-100.333 -43.374  0.00  0.00     0.000 A 
ENDBRANCH  11  12
ENDBRANCH  10  11
ENDBRANCH   7  10
ENDBRANCH   1   7
BRANCH   2  18
ATOM     18  C   UNL d   1     -55.368-102.587 -38.330  0.00  0.00     0.086 A 
ATOM     19  C   UNL d   1     -56.110-102.767 -37.967  0.00  0.00     0.110 A 
ATOM     20  C   UNL d   1     -56.157-102.854 -37.144  0.00  0.00     0.026 A 
ATOM     21  C   UNL d   1     -55.463-102.762 -36.661  0.00  0.00     0.002 A 
ATOM     22  C   UNL d   1     -54.751-102.586 -37.036  0.00  0.00     0.002 A 
ATOM     23  C   UNL d   1     -54.712-102.500 -37.870  0.00  0.00     0.019 A 
BRANCH  19  24
ATOM     24  O   UNL d   1     -56.781-102.856 -38.432  0.00  0.00    -0.327 OA
ATOM     25  C   UNL d   1     -57.499-102.518 -38.210  0.00  0.00     0.181 C 
ENDBRANCH  19  24
ENDBRANCH   2  18
TORSDOF 6
ENDMDL
