MODEL 1
REMARK VINA RESULT:      -5.0      0.000      0.000
REMARK  5 active torsions:
REMARK  status: ('A' for Active; 'I' for Inactive)
REMARK    1  A    between atoms: N_6  and  C_1 
REMARK    2  A    between atoms: S_10  and  C_4 
REMARK       I    between atoms: C_7  and  N_6 
REMARK       I    between atoms: N_8  and  C_7 
REMARK    3  A    between atoms: C_11  and  N_8 
REMARK    4  A    between atoms: C_17  and  S_10 
REMARK    5  A    between atoms: C_19  and  C_17 
ROOT
ATOM      1  N   UNL d   1      57.505  -0.483  30.805  0.00  0.00    -0.321 NA
ATOM      2  C   UNL d   1      57.792  -0.345  30.172  0.00  0.00     0.422 C 
ATOM      3  N   UNL d   1      58.127  -0.160  29.385  0.00  0.00    -0.180 NA
ATOM      4  O   UNL d   1      58.348  -0.744  30.317  0.00  0.00    -0.228 OA
ENDROOT
BRANCH   1   5
ATOM      5  C   UNL d   1      57.022  -0.549  31.526  0.00  0.00     0.271 A 
ATOM      6  S   UNL d   1      56.871  -0.141  32.084  0.00  0.00    -0.006 SA
ATOM      7  C   UNL d   1      56.433  -0.394  32.587  0.00  0.00     0.166 A 
ATOM      8  N   UNL d   1      56.154  -1.042  32.527  0.00  0.00    -0.132 NA
ATOM      9  N   UNL d   1      56.742  -1.196  31.466  0.00  0.00    -0.107 NA
BRANCH   7  10
ATOM     10  S   UNL d   1      56.201  -0.085  33.199  0.00  0.00    -0.059 SA
BRANCH  10  11
ATOM     11  C   UNL d   1      55.395   0.013  33.330  0.00  0.00     0.037 C 
BRANCH  11  12
ATOM     12  C   UNL d   1      55.133   0.334  34.039  0.00  0.00     0.007 C 
ATOM     13  C   UNL d   1      54.392   0.682  34.089  0.00  0.00     0.001 C 
ENDBRANCH  11  12
ENDBRANCH  10  11
ENDBRANCH   7  10
ENDBRANCH   1   5
BRANCH   3  14
ATOM     14  C   UNL d   1      58.859  -0.486  29.166  0.00  0.00     0.087 A 
ATOM     15  C   UNL d   1      58.879  -1.201  28.753  0.00  0.00     0.019 A 
ATOM     16  C   UNL d   1      59.604  -1.527  28.533  0.00  0.00     0.002 A 
ATOM     17  C   UNL d   1      60.306  -1.129  28.732  0.00  0.00     0.000 A 
ATOM     18  C   UNL d   1      60.280  -0.415  29.145  0.00  0.00     0.002 A 
ATOM     19  C   UNL d   1      61.031  -1.455  28.512  0.00  0.00     0.000 C 
ATOM     20  C   UNL d   1      59.547  -0.089  29.365  0.00  0.00     0.019 A 
ENDBRANCH   3  14
TORSDOF 5
ENDMDL
MODEL 2
REMARK VINA RESULT:      -4.4      0.962      1.314
REMARK  5 active torsions:
REMARK  status: ('A' for Active; 'I' for Inactive)
REMARK    1  A    between atoms: N_6  and  C_1 
REMARK    2  A    between atoms: S_10  and  C_4 
REMARK       I    between atoms: C_7  and  N_6 
REMARK       I    between atoms: N_8  and  C_7 
REMARK    3  A    between atoms: C_11  and  N_8 
REMARK    4  A    between atoms: C_17  and  S_10 
REMARK    5  A    between atoms: C_19  and  C_17 
ROOT
ATOM      1  N   UNL d   1      57.762  -0.478  30.523  0.00  0.00    -0.321 NA
ATOM      2  C   UNL d   1      58.133  -0.597  29.931  0.00  0.00     0.422 C 
ATOM      3  N   UNL d   1      58.584  -0.721  29.192  0.00  0.00    -0.180 NA
ATOM      4  O   UNL d   1      58.305  -1.240  30.147  0.00  0.00    -0.228 OA
ENDROOT
BRANCH   1   5
ATOM      5  C   UNL d   1      57.275  -0.174  31.178  0.00  0.00     0.271 A 
ATOM      6  S   UNL d   1      56.990  -0.433  31.770  0.00  0.00    -0.006 SA
ATOM      7  C   UNL d   1      56.609   0.002  32.188  0.00  0.00     0.166 A 
ATOM      8  N   UNL d   1      56.520   0.682  32.010  0.00  0.00    -0.132 NA
ATOM      9  N   UNL d   1      57.186   0.505  31.000  0.00  0.00    -0.107 NA
BRANCH   7  10
ATOM     10  S   UNL d   1      56.268  -0.133  32.812  0.00  0.00    -0.059 SA
BRANCH  10  11
ATOM     11  C   UNL d   1      55.538   0.214  32.965  0.00  0.00     0.037 C 
BRANCH  11  12
ATOM     12  C   UNL d   1      55.117  -0.001  33.636  0.00  0.00     0.007 C 
ATOM     13  C   UNL d   1      54.711   0.564  34.071  0.00  0.00     0.001 C 
ENDBRANCH  11  12
ENDBRANCH  10  11
ENDBRANCH   7  10
ENDBRANCH   1   5
BRANCH   3  14
ATOM     14  C   UNL d   1      58.975  -1.444  29.068  0.00  0.00     0.087 A 
ATOM     15  C   UNL d   1      59.789  -1.495  29.201  0.00  0.00     0.019 A 
ATOM     16  C   UNL d   1      60.179  -2.211  29.079  0.00  0.00     0.002 A 
ATOM     17  C   UNL d   1      59.746  -2.872  28.823  0.00  0.00     0.000 A 
ATOM     18  C   UNL d   1      58.933  -2.816  28.692  0.00  0.00     0.002 A 
ATOM     19  C   UNL d   1      60.137  -3.589  28.701  0.00  0.00     0.000 C 
ATOM     20  C   UNL d   1      58.542  -2.092  28.817  0.00  0.00     0.019 A 
ENDBRANCH   3  14
TORSDOF 5
ENDMDL
MODEL 3
REMARK VINA RESULT:      -4.0      1.799      5.126
REMARK  5 active torsions:
REMARK  status: ('A' for Active; 'I' for Inactive)
REMARK    1  A    between atoms: N_6  and  C_1 
REMARK    2  A    between atoms: S_10  and  C_4 
REMARK       I    between atoms: C_7  and  N_6 
REMARK       I    between atoms: N_8  and  C_7 
REMARK    3  A    between atoms: C_11  and  N_8 
REMARK    4  A    between atoms: C_17  and  S_10 
REMARK    5  A    between atoms: C_19  and  C_17 
ROOT
ATOM      1  N   UNL d   1      57.974  -0.502  30.346  0.00  0.00    -0.321 NA
ATOM      2  C   UNL d   1      57.731   0.020  30.758  0.00  0.00     0.422 C 
ATOM      3  N   UNL d   1      57.441   0.681  31.253  0.00  0.00    -0.180 NA
ATOM      4  O   UNL d   1      57.447  -0.440  31.203  0.00  0.00    -0.228 OA
ENDROOT
BRANCH   1   5
ATOM      5  C   UNL d   1      58.337  -1.012  29.740  0.00  0.00     0.271 A 
ATOM      6  S   UNL d   1      58.537  -1.688  29.688  0.00  0.00    -0.006 SA
ATOM      7  C   UNL d   1      58.826  -1.916  29.077  0.00  0.00     0.166 A 
ATOM      8  N   UNL d   1      58.910  -1.471  28.533  0.00  0.00    -0.132 NA
ATOM      9  N   UNL d   1      58.421  -0.567  29.196  0.00  0.00    -0.107 NA
BRANCH   7  10
ATOM     10  S   UNL d   1      59.070  -2.572  28.894  0.00  0.00    -0.059 SA
BRANCH  10  11
ATOM     11  C   UNL d   1      59.863  -2.760  29.001  0.00  0.00     0.037 C 
BRANCH  11  12
ATOM     12  C   UNL d   1      60.124  -3.525  28.855  0.00  0.00     0.007 C 
ATOM     13  C   UNL d   1      60.892  -3.745  29.043  0.00  0.00     0.001 C 
ENDBRANCH  11  12
ENDBRANCH  10  11
ENDBRANCH   7  10
ENDBRANCH   1   5
BRANCH   3  14
ATOM     14  C   UNL d   1      57.011   0.516  31.945  0.00  0.00     0.087 A 
ATOM     15  C   UNL d   1      57.411   0.439  32.663  0.00  0.00     0.019 A 
ATOM     16  C   UNL d   1      56.987   0.276  33.352  0.00  0.00     0.002 A 
ATOM     17  C   UNL d   1      56.162   0.190  33.312  0.00  0.00     0.000 A 
ATOM     18  C   UNL d   1      55.767   0.268  32.590  0.00  0.00     0.002 A 
ATOM     19  C   UNL d   1      55.738   0.027  34.000  0.00  0.00     0.000 C 
ATOM     20  C   UNL d   1      56.198   0.433  31.898  0.00  0.00     0.019 A 
ENDBRANCH   3  14
TORSDOF 5
ENDMDL
