MODEL 1
REMARK VINA RESULT:      -7.9      0.000      0.000
REMARK  4 active torsions:
REMARK  status: ('A' for Active; 'I' for Inactive)
REMARK    1  A    between atoms: C_2  and  N_1 
REMARK       I    between atoms: C_4  and  N_1 
REMARK    2  A    between atoms: C_3  and  C_2 
REMARK    3  A    between atoms: N_5  and  C_2 
REMARK    4  A    between atoms: C_6  and  C_4 
ROOT
ATOM      1  C   UNL d   1      53.968  32.603  54.079  0.00  0.00     0.170 C 
ENDROOT
BRANCH   1   2
ATOM      2  N   UNL d   1      53.780  32.962  54.817  0.00  0.00    -0.191 NA
ATOM      3  C   UNL d   1      53.231  33.609  54.851  0.00  0.00     0.280 C 
ATOM      4  O   UNL d   1      53.027  33.989  55.608  0.00  0.00    -0.265 OA
BRANCH   3   5
ATOM      5  C   UNL d   1      52.887  33.877  54.141  0.00  0.00     0.058 A 
ATOM      6  C   UNL d   1      53.267  34.440  53.655  0.00  0.00     0.007 A 
ATOM      7  C   UNL d   1      52.907  34.693  52.953  0.00  0.00     0.030 A 
ATOM      8  C   UNL d   1      52.171  34.399  52.720  0.00  0.00     0.140 A 
ATOM      9  C   UNL d   1      51.792  33.837  53.206  0.00  0.00     0.030 A 
ATOM     10  F   UNL d   1      51.832  34.618  52.087  0.00  0.00    -0.204 F 
ATOM     11  C   UNL d   1      52.157  33.571  53.931  0.00  0.00     0.007 A 
ENDBRANCH   3   5
ENDBRANCH   1   2
BRANCH   1  12
ATOM     12  C   UNL d   1      54.446  32.851  53.505  0.00  0.00     0.249 C 
ATOM     13 CL   UNL d   1      55.181  33.185  52.917  0.00  0.00    -0.075 Cl
ATOM     14 CL   UNL d   1      55.216  33.053  53.792  0.00  0.00    -0.075 Cl
ATOM     15 CL   UNL d   1      54.154  32.837  53.020  0.00  0.00    -0.075 Cl
ENDBRANCH   1  12
BRANCH   1  16
ATOM     16  N   UNL d   1      53.628  31.896  53.890  0.00  0.00    -0.286 N 
ATOM     17  C   UNL d   1      53.425  31.717  53.131  0.00  0.00     0.108 A 
ATOM     18  C   UNL d   1      53.082  30.999  52.948  0.00  0.00     0.142 A 
ATOM     19  O   UNL d   1      52.946  30.464  53.540  0.00  0.00    -0.300 OA
ATOM     20  C   UNL d   1      53.145  30.638  54.290  0.00  0.00     0.142 A 
ATOM     21  C   UNL d   1      53.486  31.354  54.462  0.00  0.00     0.108 A 
ENDBRANCH   1  16
TORSDOF 4
ENDMDL
MODEL 2
REMARK VINA RESULT:      -7.3      2.093      2.930
REMARK  4 active torsions:
REMARK  status: ('A' for Active; 'I' for Inactive)
REMARK    1  A    between atoms: C_2  and  N_1 
REMARK       I    between atoms: C_4  and  N_1 
REMARK    2  A    between atoms: C_3  and  C_2 
REMARK    3  A    between atoms: N_5  and  C_2 
REMARK    4  A    between atoms: C_6  and  C_4 
ROOT
ATOM      1  C   UNL d   1      53.099  33.756  53.248  0.00  0.00     0.170 C 
ENDROOT
BRANCH   1   2
ATOM      2  N   UNL d   1      53.728  33.415  52.805  0.00  0.00    -0.191 NA
ATOM      3  C   UNL d   1      54.373  33.032  53.203  0.00  0.00     0.280 C 
ATOM      4  O   UNL d   1      55.030  32.675  52.756  0.00  0.00    -0.265 OA
BRANCH   3   5
ATOM      5  C   UNL d   1      54.367  33.003  54.035  0.00  0.00     0.058 A 
ATOM      6  C   UNL d   1      53.968  32.399  54.450  0.00  0.00     0.007 A 
ATOM      7  C   UNL d   1      53.975  32.389  55.278  0.00  0.00     0.030 A 
ATOM      8  C   UNL d   1      54.373  32.970  55.710  0.00  0.00     0.140 A 
ATOM      9  C   UNL d   1      54.772  33.574  55.294  0.00  0.00     0.030 A 
ATOM     10  F   UNL d   1      54.389  32.975  56.460  0.00  0.00    -0.204 F 
ATOM     11  C   UNL d   1      54.769  33.590  54.440  0.00  0.00     0.007 A 
ENDBRANCH   3   5
ENDBRANCH   1   2
BRANCH   1  12
ATOM     12  C   UNL d   1      53.081  34.419  53.673  0.00  0.00     0.249 C 
ATOM     13 CL   UNL d   1      53.108  35.345  54.045  0.00  0.00    -0.075 Cl
ATOM     14 CL   UNL d   1      53.273  35.102  53.211  0.00  0.00    -0.075 Cl
ATOM     15 CL   UNL d   1      52.941  34.280  54.203  0.00  0.00    -0.075 Cl
ENDBRANCH   1  12
BRANCH   1  16
ATOM     16  N   UNL d   1      52.385  33.378  53.269  0.00  0.00    -0.286 N 
ATOM     17  C   UNL d   1      51.762  33.680  53.680  0.00  0.00     0.108 A 
ATOM     18  C   UNL d   1      51.044  33.293  53.697  0.00  0.00     0.142 A 
ATOM     19  O   UNL d   1      50.963  32.596  53.294  0.00  0.00    -0.300 OA
ATOM     20  C   UNL d   1      51.576  32.294  52.887  0.00  0.00     0.142 A 
ATOM     21  C   UNL d   1      52.286  32.688  52.877  0.00  0.00     0.108 A 
ENDBRANCH   1  16
TORSDOF 4
ENDMDL
MODEL 3
REMARK VINA RESULT:      -7.1      1.859      2.722
REMARK  4 active torsions:
REMARK  status: ('A' for Active; 'I' for Inactive)
REMARK    1  A    between atoms: C_2  and  N_1 
REMARK       I    between atoms: C_4  and  N_1 
REMARK    2  A    between atoms: C_3  and  C_2 
REMARK    3  A    between atoms: N_5  and  C_2 
REMARK    4  A    between atoms: C_6  and  C_4 
ROOT
ATOM      1  C   UNL d   1      52.844  33.942  54.328  0.00  0.00     0.170 C 
ENDROOT
BRANCH   1   2
ATOM      2  N   UNL d   1      52.897  33.350  54.925  0.00  0.00    -0.191 NA
ATOM      3  C   UNL d   1      53.580  32.848  54.969  0.00  0.00     0.280 C 
ATOM      4  O   UNL d   1      53.649  32.232  55.582  0.00  0.00    -0.265 OA
BRANCH   3   5
ATOM      5  C   UNL d   1      54.190  32.954  54.412  0.00  0.00     0.058 A 
ATOM      6  C   UNL d   1      54.793  33.521  54.524  0.00  0.00     0.007 A 
ATOM      7  C   UNL d   1      55.390  33.610  53.957  0.00  0.00     0.030 A 
ATOM      8  C   UNL d   1      55.405  33.146  53.275  0.00  0.00     0.140 A 
ATOM      9  C   UNL d   1      54.802  32.579  53.163  0.00  0.00     0.030 A 
ATOM     10  F   UNL d   1      55.939  33.214  52.751  0.00  0.00    -0.204 F 
ATOM     11  C   UNL d   1      54.183  32.482  53.743  0.00  0.00     0.007 A 
ENDBRANCH   3   5
ENDBRANCH   1   2
BRANCH   1  12
ATOM     12  C   UNL d   1      53.187  34.649  54.286  0.00  0.00     0.249 C 
ATOM     13 CL   UNL d   1      53.548  35.571  54.408  0.00  0.00    -0.075 Cl
ATOM     14 CL   UNL d   1      53.058  35.111  54.983  0.00  0.00    -0.075 Cl
ATOM     15 CL   UNL d   1      53.448  34.683  53.785  0.00  0.00    -0.075 Cl
ENDBRANCH   1  12
BRANCH   1  16
ATOM     16  N   UNL d   1      52.380  33.803  53.682  0.00  0.00    -0.286 N 
ATOM     17  C   UNL d   1      52.440  34.256  53.018  0.00  0.00     0.108 A 
ATOM     18  C   UNL d   1      51.969  34.111  52.368  0.00  0.00     0.142 A 
ATOM     19  O   UNL d   1      51.435  33.503  52.396  0.00  0.00    -0.300 OA
ATOM     20  C   UNL d   1      51.373  33.054  53.050  0.00  0.00     0.142 A 
ATOM     21  C   UNL d   1      51.847  33.207  53.691  0.00  0.00     0.108 A 
ENDBRANCH   1  16
TORSDOF 4
ENDMDL
MODEL 4
REMARK VINA RESULT:      -7.0      1.781      3.054
REMARK  4 active torsions:
REMARK  status: ('A' for Active; 'I' for Inactive)
REMARK    1  A    between atoms: C_2  and  N_1 
REMARK       I    between atoms: C_4  and  N_1 
REMARK    2  A    between atoms: C_3  and  C_2 
REMARK    3  A    between atoms: N_5  and  C_2 
REMARK    4  A    between atoms: C_6  and  C_4 
ROOT
ATOM      1  C   UNL d   1      54.171  33.548  54.438  0.00  0.00     0.170 C 
ENDROOT
BRANCH   1   2
ATOM      2  N   UNL d   1      54.797  33.472  53.881  0.00  0.00    -0.191 NA
ATOM      3  C   UNL d   1      54.766  32.868  53.284  0.00  0.00     0.280 C 
ATOM      4  O   UNL d   1      55.407  32.778  52.701  0.00  0.00    -0.265 OA
BRANCH   3   5
ATOM      5  C   UNL d   1      54.108  32.359  53.264  0.00  0.00     0.058 A 
ATOM      6  C   UNL d   1      53.411  32.558  52.850  0.00  0.00     0.007 A 
ATOM      7  C   UNL d   1      52.768  32.037  52.844  0.00  0.00     0.030 A 
ATOM      8  C   UNL d   1      52.798  31.315  53.243  0.00  0.00     0.140 A 
ATOM      9  C   UNL d   1      53.494  31.116  53.658  0.00  0.00     0.030 A 
ATOM     10  F   UNL d   1      52.223  30.832  53.247  0.00  0.00    -0.204 F 
ATOM     11  C   UNL d   1      54.162  31.649  53.669  0.00  0.00     0.007 A 
ENDBRANCH   3   5
ENDBRANCH   1   2
BRANCH   1  12
ATOM     12  C   UNL d   1      54.008  33.118  55.077  0.00  0.00     0.249 C 
ATOM     13 CL   UNL d   1      53.981  32.618  55.941  0.00  0.00    -0.075 Cl
ATOM     14 CL   UNL d   1      54.658  33.089  55.619  0.00  0.00    -0.075 Cl
ATOM     15 CL   UNL d   1      53.480  32.923  55.023  0.00  0.00    -0.075 Cl
ENDBRANCH   1  12
BRANCH   1  16
ATOM     16  N   UNL d   1      53.631  34.140  54.341  0.00  0.00    -0.286 N 
ATOM     17  C   UNL d   1      52.891  34.090  54.657  0.00  0.00     0.108 A 
ATOM     18  C   UNL d   1      52.350  34.693  54.554  0.00  0.00     0.142 A 
ATOM     19  O   UNL d   1      52.565  35.347  54.128  0.00  0.00    -0.300 OA
ATOM     20  C   UNL d   1      53.294  35.400  53.815  0.00  0.00     0.142 A 
ATOM     21  C   UNL d   1      53.824  34.794  53.923  0.00  0.00     0.108 A 
ENDBRANCH   1  16
TORSDOF 4
ENDMDL
MODEL 5
REMARK VINA RESULT:      -6.6      1.936      2.596
REMARK  4 active torsions:
REMARK  status: ('A' for Active; 'I' for Inactive)
REMARK    1  A    between atoms: C_2  and  N_1 
REMARK       I    between atoms: C_4  and  N_1 
REMARK    2  A    between atoms: C_3  and  C_2 
REMARK    3  A    between atoms: N_5  and  C_2 
REMARK    4  A    between atoms: C_6  and  C_4 
ROOT
ATOM      1  C   UNL d   1      53.302  34.454  53.686  0.00  0.00     0.170 C 
ENDROOT
BRANCH   1   2
ATOM      2  N   UNL d   1      53.318  34.623  52.861  0.00  0.00    -0.191 NA
ATOM      3  C   UNL d   1      52.646  34.441  52.375  0.00  0.00     0.280 C 
ATOM      4  O   UNL d   1      52.648  34.610  51.520  0.00  0.00    -0.265 OA
BRANCH   3   5
ATOM      5  C   UNL d   1      51.978  34.094  52.731  0.00  0.00     0.058 A 
ATOM      6  C   UNL d   1      51.381  34.556  53.088  0.00  0.00     0.007 A 
ATOM      7  C   UNL d   1      50.725  34.191  53.437  0.00  0.00     0.030 A 
ATOM      8  C   UNL d   1      50.645  33.370  53.441  0.00  0.00     0.140 A 
ATOM      9  C   UNL d   1      51.241  32.907  53.083  0.00  0.00     0.030 A 
ATOM     10  F   UNL d   1      50.056  33.023  53.752  0.00  0.00    -0.204 F 
ATOM     11  C   UNL d   1      51.920  33.277  52.722  0.00  0.00     0.007 A 
ENDBRANCH   3   5
ENDBRANCH   1   2
BRANCH   1  12
ATOM     12  C   UNL d   1      52.957  34.846  54.275  0.00  0.00     0.249 C 
ATOM     13 CL   UNL d   1      52.610  35.495  54.949  0.00  0.00    -0.075 Cl
ATOM     14 CL   UNL d   1      53.155  35.668  54.274  0.00  0.00    -0.075 Cl
ATOM     15 CL   UNL d   1      52.648  34.474  54.570  0.00  0.00    -0.075 Cl
ENDBRANCH   1  12
BRANCH   1  16
ATOM     16  N   UNL d   1      53.688  33.799  53.958  0.00  0.00    -0.286 N 
ATOM     17  C   UNL d   1      53.563  33.518  54.702  0.00  0.00     0.108 A 
ATOM     18  C   UNL d   1      53.957  32.855  54.971  0.00  0.00     0.142 A 
ATOM     19  O   UNL d   1      54.478  32.480  54.479  0.00  0.00    -0.300 OA
ATOM     20  C   UNL d   1      54.604  32.754  53.743  0.00  0.00     0.142 A 
ATOM     21  C   UNL d   1      54.207  33.415  53.486  0.00  0.00     0.108 A 
ENDBRANCH   1  16
TORSDOF 4
ENDMDL
