MODEL 1
REMARK VINA RESULT:      34.5      0.000      0.000
REMARK  2 active torsions:
REMARK  status: ('A' for Active; 'I' for Inactive)
REMARK    1  A    between atoms: C_2  and  C_1 
REMARK    2  A    between atoms: C_14  and  N_5 
ROOT
ATOM      1  C   UNL d   1      45.401 -15.864  43.958  0.00  0.00     0.117 A 
ATOM      2  N   UNL d   1      45.936 -16.411  43.614  0.00  0.00    -0.164 NA
ATOM      3  C   UNL d   1      44.741 -16.275  44.207  0.00  0.00     0.107 A 
ATOM      4  N   UNL d   1      45.596 -17.145  43.658  0.00  0.00    -0.228 N 
ATOM      5  C   UNL d   1      44.851 -17.064  44.027  0.00  0.00     0.112 A 
ATOM      6  C   UNL d   1      44.065 -15.961  44.581  0.00  0.00     0.104 C 
ATOM      7  N   UNL d   1      43.393 -15.646  44.952  0.00  0.00    -0.191 NA
ENDROOT
BRANCH   1   8
ATOM      8  C   UNL d   1      45.565 -15.046  44.012  0.00  0.00     0.084 A 
ATOM      9  C   UNL d   1      46.187 -14.782  44.519  0.00  0.00     0.302 A 
ATOM     10  O   UNL d   1      46.357 -13.995  44.582  0.00  0.00    -0.273 OA
ATOM     11  O   UNL d   1      46.626 -15.326  44.954  0.00  0.00    -0.259 OA
ATOM     12  C   UNL d   1      45.925 -13.429  44.151  0.00  0.00     0.103 A 
ATOM     13  C   UNL d   1      45.316 -13.691  43.655  0.00  0.00     0.023 A 
ATOM     14  C   UNL d   1      46.103 -12.641  44.221  0.00  0.00     0.025 A 
ATOM     15  C   UNL d   1      45.138 -14.493  43.586  0.00  0.00     0.009 A 
ATOM     16  C   UNL d   1      44.887 -13.128  43.226  0.00  0.00     0.002 A 
ATOM     17  C   UNL d   1      45.071 -12.337  43.300  0.00  0.00     0.000 A 
ATOM     18  C   UNL d   1      45.674 -12.081  43.793  0.00  0.00     0.002 A 
ENDBRANCH   1   8
BRANCH   4  19
ATOM     19  C   UNL d   1      45.949 -17.839  43.378  0.00  0.00     0.083 A 
ATOM     20  C   UNL d   1      46.248 -18.403  43.902  0.00  0.00     0.019 A 
ATOM     21  C   UNL d   1      46.595 -19.085  43.615  0.00  0.00     0.002 A 
ATOM     22  C   UNL d   1      46.646 -19.209  42.809  0.00  0.00     0.000 A 
ATOM     23  C   UNL d   1      46.346 -18.645  42.257  0.00  0.00     0.002 A 
ATOM     24  C   UNL d   1      45.995 -17.954  42.562  0.00  0.00     0.019 A 
ENDBRANCH   4  19
TORSDOF 2
ENDMDL
MODEL 2
REMARK VINA RESULT:      37.4      1.169      4.460
REMARK  2 active torsions:
REMARK  status: ('A' for Active; 'I' for Inactive)
REMARK    1  A    between atoms: C_2  and  C_1 
REMARK    2  A    between atoms: C_14  and  N_5 
ROOT
ATOM      1  C   UNL d   1      45.447 -15.773  44.204  0.00  0.00     0.117 A 
ATOM      2  N   UNL d   1      45.890 -15.072  44.083  0.00  0.00    -0.164 NA
ATOM      3  C   UNL d   1      44.726 -15.566  44.526  0.00  0.00     0.107 A 
ATOM      4  N   UNL d   1      45.435 -14.449  44.332  0.00  0.00    -0.228 N 
ATOM      5  C   UNL d   1      44.708 -14.754  44.609  0.00  0.00     0.112 A 
ATOM      6  C   UNL d   1      44.104 -16.080  44.739  0.00  0.00     0.104 C 
ATOM      7  N   UNL d   1      43.487 -16.593  44.950  0.00  0.00    -0.191 NA
ENDROOT
BRANCH   1   8
ATOM      8  C   UNL d   1      45.739 -16.531  44.010  0.00  0.00     0.084 A 
ATOM      9  C   UNL d   1      46.016 -16.679  43.225  0.00  0.00     0.302 A 
ATOM     10  O   UNL d   1      46.302 -17.407  43.022  0.00  0.00    -0.273 OA
ATOM     11  O   UNL d   1      45.996 -16.081  42.659  0.00  0.00    -0.259 OA
ATOM     12  C   UNL d   1      46.330 -18.025  43.580  0.00  0.00     0.103 A 
ATOM     13  C   UNL d   1      46.059 -17.877  44.347  0.00  0.00     0.023 A 
ATOM     14  C   UNL d   1      46.619 -18.752  43.366  0.00  0.00     0.025 A 
ATOM     15  C   UNL d   1      45.766 -17.136  44.560  0.00  0.00     0.009 A 
ATOM     16  C   UNL d   1      46.087 -18.491  44.901  0.00  0.00     0.002 A 
ATOM     17  C   UNL d   1      46.378 -19.220  44.681  0.00  0.00     0.000 A 
ATOM     18  C   UNL d   1      46.647 -19.364  43.919  0.00  0.00     0.002 A 
ENDBRANCH   1   8
BRANCH   4  19
ATOM     19  C   UNL d   1      45.675 -13.658  44.305  0.00  0.00     0.083 A 
ATOM     20  C   UNL d   1      46.045 -13.306  44.954  0.00  0.00     0.019 A 
ATOM     21  C   UNL d   1      46.278 -12.524  44.918  0.00  0.00     0.002 A 
ATOM     22  C   UNL d   1      46.145 -12.090  44.239  0.00  0.00     0.000 A 
ATOM     23  C   UNL d   1      45.768 -12.431  43.565  0.00  0.00     0.002 A 
ATOM     24  C   UNL d   1      45.535 -13.229  43.615  0.00  0.00     0.019 A 
ENDBRANCH   4  19
TORSDOF 2
ENDMDL
