MODEL 1
REMARK VINA RESULT:      -3.1      0.000      0.000
REMARK  6 active torsions:
REMARK  status: ('A' for Active; 'I' for Inactive)
REMARK    1  A    between atoms: C_3  and  C_1 
REMARK    2  A    between atoms: C_4  and  N_2 
REMARK       I    between atoms: N_14  and  C_3 
REMARK    3  A    between atoms: N_5  and  C_19 
REMARK    4  A    between atoms: O_18  and  C_13 
REMARK    5  A    between atoms: C_17  and  N_14 
REMARK    6  A    between atoms: C_19  and  C_17 
ROOT
ATOM      1  N   UNL d   1      32.705  18.009 -23.673  0.00  0.00    -0.300 N 
ATOM      2  N   UNL d   1      33.058  19.330 -22.750  0.00  0.00    -0.299 N 
ATOM      3  C   UNL d   1      32.725  17.932 -22.847  0.00  0.00     0.100 A 
ATOM      4  C   UNL d   1      32.859  18.736 -24.037  0.00  0.00     0.100 A 
ATOM      5  C   UNL d   1      32.904  18.603 -22.386  0.00  0.00     0.100 A 
ATOM      6  C   UNL d   1      33.034  19.389 -23.573  0.00  0.00     0.100 A 
ENDROOT
BRANCH   2   7
ATOM      7  C   UNL d   1      33.233  19.983 -22.286  0.00  0.00     0.101 C 
BRANCH   7   8
ATOM      8  C   UNL d   1      32.641  20.415 -21.924  0.00  0.00     0.121 C 
BRANCH   8   9
ATOM      9  N   UNL d   1      32.807  21.104 -21.527  0.00  0.00    -0.205 NA
ATOM     10  C   UNL d   1      32.223  21.463 -21.067  0.00  0.00     0.280 C 
ATOM     11  O   UNL d   1      31.479  21.126 -21.010  0.00  0.00    -0.265 OA
BRANCH  10  12
ATOM     12  C   UNL d   1      32.391  22.163 -20.663  0.00  0.00     0.065 A 
ATOM     13  C   UNL d   1      32.139  22.921 -20.883  0.00  0.00     0.040 A 
ATOM     14  S   UNL d   1      32.435  23.450 -20.323  0.00  0.00    -0.086 SA
ATOM     15  C   UNL d   1      32.857  23.033 -19.774  0.00  0.00     0.036 A 
ATOM     16  C   UNL d   1      32.832  22.230 -19.982  0.00  0.00     0.012 A 
ENDBRANCH  10  12
ENDBRANCH   8   9
ENDBRANCH   7   8
ENDBRANCH   2   7
BRANCH   1  17
ATOM     17  C   UNL d   1      32.528  17.345 -24.128  0.00  0.00     0.086 A 
ATOM     18  C   UNL d   1      31.752  17.203 -24.382  0.00  0.00     0.110 A 
ATOM     19  C   UNL d   1      31.588  16.539 -24.835  0.00  0.00     0.026 A 
ATOM     20  C   UNL d   1      32.186  16.010 -25.041  0.00  0.00     0.002 A 
ATOM     21  C   UNL d   1      32.963  16.152 -24.788  0.00  0.00     0.002 A 
ATOM     22  C   UNL d   1      33.139  16.813 -24.334  0.00  0.00     0.019 A 
BRANCH  18  23
ATOM     23  O   UNL d   1      31.151  17.721 -24.182  0.00  0.00    -0.327 OA
ATOM     24  C   UNL d   1      30.377  17.588 -24.450  0.00  0.00     0.181 C 
ENDBRANCH  18  23
ENDBRANCH   1  17
TORSDOF 6
ENDMDL
MODEL 2
REMARK VINA RESULT:      -1.8      1.940      5.784
REMARK  6 active torsions:
REMARK  status: ('A' for Active; 'I' for Inactive)
REMARK    1  A    between atoms: C_3  and  C_1 
REMARK    2  A    between atoms: C_4  and  N_2 
REMARK       I    between atoms: N_14  and  C_3 
REMARK    3  A    between atoms: N_5  and  C_19 
REMARK    4  A    between atoms: O_18  and  C_13 
REMARK    5  A    between atoms: C_17  and  N_14 
REMARK    6  A    between atoms: C_19  and  C_17 
ROOT
ATOM      1  N   UNL d   1      32.970  21.580 -21.120  0.00  0.00    -0.300 N 
ATOM      2  N   UNL d   1      33.152  20.271 -22.105  0.00  0.00    -0.299 N 
ATOM      3  C   UNL d   1      32.878  20.819 -20.803  0.00  0.00     0.100 A 
ATOM      4  C   UNL d   1      33.150  21.690 -21.920  0.00  0.00     0.100 A 
ATOM      5  C   UNL d   1      32.971  20.161 -21.305  0.00  0.00     0.100 A 
ATOM      6  C   UNL d   1      33.240  21.035 -22.405  0.00  0.00     0.100 A 
ENDROOT
BRANCH   2   7
ATOM      7  C   UNL d   1      33.241  19.616 -22.590  0.00  0.00     0.101 C 
BRANCH   7   8
ATOM      8  C   UNL d   1      32.595  19.260 -22.944  0.00  0.00     0.121 C 
BRANCH   8   9
ATOM      9  N   UNL d   1      32.558  18.454 -23.036  0.00  0.00    -0.205 NA
ATOM     10  C   UNL d   1      32.274  18.135 -23.743  0.00  0.00     0.280 C 
ATOM     11  O   UNL d   1      32.030  18.628 -24.348  0.00  0.00    -0.265 OA
BRANCH  10  12
ATOM     12  C   UNL d   1      32.236  17.316 -23.837  0.00  0.00     0.065 A 
ATOM     13  C   UNL d   1      32.813  16.842 -24.197  0.00  0.00     0.040 A 
ATOM     14  S   UNL d   1      32.545  16.062 -24.168  0.00  0.00    -0.086 SA
ATOM     15  C   UNL d   1      31.825  16.053 -23.801  0.00  0.00     0.036 A 
ATOM     16  C   UNL d   1      31.628  16.832 -23.593  0.00  0.00     0.012 A 
ENDBRANCH  10  12
ENDBRANCH   8   9
ENDBRANCH   7   8
ENDBRANCH   2   7
BRANCH   1  17
ATOM     17  C   UNL d   1      32.877  22.231 -20.621  0.00  0.00     0.086 A 
ATOM     18  C   UNL d   1      32.431  22.887 -20.863  0.00  0.00     0.110 A 
ATOM     19  C   UNL d   1      32.347  23.528 -20.358  0.00  0.00     0.026 A 
ATOM     20  C   UNL d   1      32.700  23.529 -19.613  0.00  0.00     0.002 A 
ATOM     21  C   UNL d   1      33.146  22.874 -19.371  0.00  0.00     0.002 A 
ATOM     22  C   UNL d   1      33.238  22.226 -19.868  0.00  0.00     0.019 A 
BRANCH  18  23
ATOM     23  O   UNL d   1      32.076  22.896 -21.601  0.00  0.00    -0.327 OA
ATOM     24  C   UNL d   1      31.753  23.598 -21.901  0.00  0.00     0.181 C 
ENDBRANCH  18  23
ENDBRANCH   1  17
TORSDOF 6
ENDMDL
