MODEL 1
REMARK VINA RESULT:      27.6      0.000      0.000
REMARK  3 active torsions:
REMARK  status: ('A' for Active; 'I' for Inactive)
REMARK    1  A    between atoms: N_3  and  C_1 
REMARK    2  A    between atoms: N_6  and  N_2 
REMARK    3  A    between atoms: S_5  and  N_6 
ROOT
ATOM      1  C   UNL d   1     -57.928 -98.769 -44.835  0.00  0.00     0.771 A 
ATOM      2  N   UNL d   1     -57.141 -98.763 -44.578  0.00  0.00    -0.026 N 
ATOM      3  N   UNL d   1     -57.926 -98.775 -45.657  0.00  0.00     0.048 NA
ATOM      4  C   UNL d   1     -56.657 -98.766 -45.239  0.00  0.00     0.204 A 
ATOM      5  N   UNL d   1     -57.141 -98.773 -45.909  0.00  0.00    -0.112 NA
ATOM      6  C   UNL d   1     -55.835 -98.762 -45.237  0.00  0.00     0.044 C 
ENDROOT
BRANCH   1   7
ATOM      7  N   UNL d   1     -58.596 -98.769 -44.342  0.00  0.00    -0.056 N 
ATOM      8  N   UNL d   1     -58.595 -98.774 -43.516  0.00  0.00    -0.150 NA
ATOM      9  C   UNL d   1     -59.380 -98.772 -43.260  0.00  0.00     0.103 A 
ATOM     10  C   UNL d   1     -59.637 -98.776 -42.473  0.00  0.00     0.022 C 
ATOM     11  C   UNL d   1     -59.862 -98.764 -43.925  0.00  0.00     0.041 A 
ATOM     12  C   UNL d   1     -59.380 -98.762 -44.595  0.00  0.00     0.102 A 
ATOM     13  C   UNL d   1     -59.641 -98.755 -45.378  0.00  0.00     0.021 C 
ENDBRANCH   1   7
BRANCH   2  14
ATOM     14  N   UNL d   1     -56.894 -98.757 -43.790  0.00  0.00    -0.059 NA
BRANCH  14  15
ATOM     15  S   UNL d   1     -56.086 -98.853 -43.610  0.00  0.00     0.282 S 
ATOM     16  O   UNL d   1     -55.837 -98.847 -44.387  0.00  0.00    -0.201 OA
ATOM     17  O   UNL d   1     -56.349 -98.857 -42.825  0.00  0.00    -0.201 OA
ATOM     18  C   UNL d   1     -55.317 -98.948 -43.353  0.00  0.00     0.167 C 
ENDBRANCH  14  15
ENDBRANCH   2  14
TORSDOF 3
ENDMDL
MODEL 2
REMARK VINA RESULT:      27.7      1.271      2.946
REMARK  3 active torsions:
REMARK  status: ('A' for Active; 'I' for Inactive)
REMARK    1  A    between atoms: N_3  and  C_1 
REMARK    2  A    between atoms: N_6  and  N_2 
REMARK    3  A    between atoms: S_5  and  N_6 
ROOT
ATOM      1  C   UNL d   1     -57.625 -98.829 -44.910  0.00  0.00     0.771 A 
ATOM      2  N   UNL d   1     -58.317 -98.840 -44.456  0.00  0.00    -0.026 N 
ATOM      3  N   UNL d   1     -57.842 -98.843 -45.703  0.00  0.00     0.048 NA
ATOM      4  C   UNL d   1     -58.957 -98.861 -44.967  0.00  0.00     0.204 A 
ATOM      5  N   UNL d   1     -58.666 -98.862 -45.740  0.00  0.00    -0.112 NA
ATOM      6  C   UNL d   1     -59.750 -98.877 -44.750  0.00  0.00     0.044 C 
ENDROOT
BRANCH   1   7
ATOM      7  N   UNL d   1     -56.852 -98.808 -44.609  0.00  0.00    -0.056 N 
ATOM      8  N   UNL d   1     -56.636 -98.817 -43.811  0.00  0.00    -0.150 NA
ATOM      9  C   UNL d   1     -55.812 -98.789 -43.770  0.00  0.00     0.103 A 
ATOM     10  C   UNL d   1     -55.358 -98.787 -43.078  0.00  0.00     0.022 C 
ATOM     11  C   UNL d   1     -55.522 -98.762 -44.538  0.00  0.00     0.041 A 
ATOM     12  C   UNL d   1     -56.162 -98.774 -45.058  0.00  0.00     0.102 A 
ATOM     13  C   UNL d   1     -56.116 -98.755 -45.882  0.00  0.00     0.021 C 
ENDBRANCH   1   7
BRANCH   2  14
ATOM     14  N   UNL d   1     -58.350 -98.832 -43.631  0.00  0.00    -0.059 NA
BRANCH  14  15
ATOM     15  S   UNL d   1     -59.076 -98.965 -43.245  0.00  0.00     0.282 S 
ATOM     16  O   UNL d   1     -59.524 -98.957 -43.927  0.00  0.00    -0.201 OA
ATOM     17  O   UNL d   1     -58.614 -98.972 -42.559  0.00  0.00    -0.201 OA
ATOM     18  C   UNL d   1     -59.745 -99.097 -42.795  0.00  0.00     0.167 C 
ENDBRANCH  14  15
ENDBRANCH   2  14
TORSDOF 3
ENDMDL
