MODEL 1
REMARK VINA RESULT:     -11.0      0.000      0.000
REMARK  2 active torsions:
REMARK  status: ('A' for Active; 'I' for Inactive)
REMARK    1  A    between atoms: S_2  and  C_1 
REMARK    2  A    between atoms: N_3  and  S_2 
ROOT
ATOM      1  C   UNL d   1      53.354  33.255  54.015  0.00  0.00     0.125 A 
ATOM      2  C   UNL d   1      53.838  33.453  54.556  0.00  0.00    -0.009 A 
ATOM      3  C   UNL d   1      53.568  33.648  54.775  0.00  0.00    -0.009 A 
ATOM      4  C   UNL d   1      53.659  32.847  53.449  0.00  0.00     0.031 A 
ATOM      5  C   UNL d   1      54.277  33.553  54.909  0.00  0.00    -0.007 A 
ATOM      6  C   UNL d   1      54.745  33.324  54.716  0.00  0.00    -0.007 A 
ATOM      7  C   UNL d   1      54.499  32.724  53.591  0.00  0.00     0.045 A 
ATOM      8  C   UNL d   1      54.978  33.719  55.486  0.00  0.00    -0.001 A 
ATOM      9  C   UNL d   1      55.042  32.928  54.166  0.00  0.00    -0.022 A 
ATOM     10  C   UNL d   1      54.696  33.023  54.182  0.00  0.00    -0.022 A 
ENDROOT
BRANCH   1  11
ATOM     11  S   UNL d   1      52.574  33.029  53.305  0.00  0.00     0.141 S 
ATOM     12  O   UNL d   1      52.784  32.251  53.003  0.00  0.00    -0.233 OA
BRANCH  11  13
ATOM     13  N   UNL d   1      51.862  33.431  53.013  0.00  0.00    -0.254 N 
ATOM     14  C   UNL d   1      51.185  33.308  53.462  0.00  0.00     0.089 A 
ATOM     15  C   UNL d   1      50.425  33.610  53.334  0.00  0.00     0.020 A 
ATOM     16  C   UNL d   1      50.166  34.100  52.735  0.00  0.00     0.002 A 
ATOM     17  C   UNL d   1      50.592  34.419  52.106  0.00  0.00     0.002 A 
ATOM     18  C   UNL d   1      51.396  34.325  51.917  0.00  0.00     0.020 A 
ATOM     19  C   UNL d   1      51.956  33.885  52.325  0.00  0.00     0.089 A 
ENDBRANCH  11  13
ENDBRANCH   1  11
TORSDOF 2
ENDMDL
MODEL 2
REMARK VINA RESULT:     -10.7      1.915      2.862
REMARK  2 active torsions:
REMARK  status: ('A' for Active; 'I' for Inactive)
REMARK    1  A    between atoms: S_2  and  C_1 
REMARK    2  A    between atoms: N_3  and  S_2 
ROOT
ATOM      1  C   UNL d   1      53.265  31.797  53.307  0.00  0.00     0.125 A 
ATOM      2  C   UNL d   1      52.891  31.172  53.119  0.00  0.00    -0.009 A 
ATOM      3  C   UNL d   1      52.598  31.363  52.927  0.00  0.00    -0.009 A 
ATOM      4  C   UNL d   1      53.903  31.678  53.706  0.00  0.00     0.031 A 
ATOM      5  C   UNL d   1      52.683  30.647  53.026  0.00  0.00    -0.007 A 
ATOM      6  C   UNL d   1      53.011  30.260  53.253  0.00  0.00    -0.007 A 
ATOM      7  C   UNL d   1      54.020  30.834  53.834  0.00  0.00     0.045 A 
ATOM      8  C   UNL d   1      52.340  29.804  52.872  0.00  0.00    -0.001 A 
ATOM      9  C   UNL d   1      53.631  30.144  53.640  0.00  0.00    -0.022 A 
ATOM     10  C   UNL d   1      53.510  30.468  53.545  0.00  0.00    -0.022 A 
ENDROOT
BRANCH   1  11
ATOM     11  S   UNL d   1      53.713  32.755  53.519  0.00  0.00     0.141 S 
ATOM     12  O   UNL d   1      54.554  32.626  53.390  0.00  0.00    -0.233 OA
BRANCH  11  13
ATOM     13  N   UNL d   1      53.426  33.536  53.765  0.00  0.00    -0.254 N 
ATOM     14  C   UNL d   1      53.570  33.729  54.550  0.00  0.00     0.089 A 
ATOM     15  C   UNL d   1      53.368  34.424  54.952  0.00  0.00     0.020 A 
ATOM     16  C   UNL d   1      52.980  35.082  54.667  0.00  0.00     0.002 A 
ATOM     17  C   UNL d   1      52.689  35.224  53.908  0.00  0.00     0.002 A 
ATOM     18  C   UNL d   1      52.716  34.735  53.237  0.00  0.00     0.020 A 
ATOM     19  C   UNL d   1      53.045  33.985  53.180  0.00  0.00     0.089 A 
ENDBRANCH  11  13
ENDBRANCH   1  11
TORSDOF 2
ENDMDL
MODEL 3
REMARK VINA RESULT:     -10.2      1.869      2.836
REMARK  2 active torsions:
REMARK  status: ('A' for Active; 'I' for Inactive)
REMARK    1  A    between atoms: S_2  and  C_1 
REMARK    2  A    between atoms: N_3  and  S_2 
ROOT
ATOM      1  C   UNL d   1      53.688  32.957  54.128  0.00  0.00     0.125 A 
ATOM      2  C   UNL d   1      53.448  33.599  54.438  0.00  0.00    -0.009 A 
ATOM      3  C   UNL d   1      53.080  33.576  54.286  0.00  0.00    -0.009 A 
ATOM      4  C   UNL d   1      54.411  32.777  54.286  0.00  0.00     0.031 A 
ATOM      5  C   UNL d   1      53.363  34.094  54.714  0.00  0.00    -0.007 A 
ATOM      6  C   UNL d   1      53.822  34.253  54.984  0.00  0.00    -0.007 A 
ATOM      7  C   UNL d   1      54.762  33.379  54.792  0.00  0.00     0.045 A 
ATOM      8  C   UNL d   1      53.216  34.891  55.155  0.00  0.00    -0.001 A 
ATOM      9  C   UNL d   1      54.524  34.078  55.138  0.00  0.00    -0.022 A 
ATOM     10  C   UNL d   1      54.307  33.879  54.933  0.00  0.00    -0.022 A 
ENDROOT
BRANCH   1  11
ATOM     11  S   UNL d   1      53.918  32.026  53.635  0.00  0.00     0.141 S 
ATOM     12  O   UNL d   1      54.688  32.164  53.277  0.00  0.00    -0.233 OA
BRANCH  11  13
ATOM     13  N   UNL d   1      53.526  31.257  53.540  0.00  0.00    -0.254 N 
ATOM     14  C   UNL d   1      52.948  31.231  52.956  0.00  0.00     0.089 A 
ATOM     15  C   UNL d   1      52.478  30.589  52.731  0.00  0.00     0.020 A 
ATOM     16  C   UNL d   1      52.474  29.831  53.032  0.00  0.00     0.002 A 
ATOM     17  C   UNL d   1      52.934  29.510  53.635  0.00  0.00     0.002 A 
ATOM     18  C   UNL d   1      53.523  29.874  54.094  0.00  0.00     0.020 A 
ATOM     19  C   UNL d   1      53.782  30.652  54.047  0.00  0.00     0.089 A 
ENDBRANCH  11  13
ENDBRANCH   1  11
TORSDOF 2
ENDMDL
MODEL 4
REMARK VINA RESULT:     -10.1      1.769      3.464
REMARK  2 active torsions:
REMARK  status: ('A' for Active; 'I' for Inactive)
REMARK    1  A    between atoms: S_2  and  C_1 
REMARK    2  A    between atoms: N_3  and  S_2 
ROOT
ATOM      1  C   UNL d   1      52.250  33.043  53.124  0.00  0.00     0.125 A 
ATOM      2  C   UNL d   1      51.641  33.482  53.071  0.00  0.00    -0.009 A 
ATOM      3  C   UNL d   1      51.383  33.180  53.040  0.00  0.00    -0.009 A 
ATOM      4  C   UNL d   1      52.909  33.420  53.197  0.00  0.00     0.031 A 
ATOM      5  C   UNL d   1      51.246  33.895  53.039  0.00  0.00    -0.007 A 
ATOM      6  C   UNL d   1      51.480  34.398  53.072  0.00  0.00    -0.007 A 
ATOM      7  C   UNL d   1      52.766  34.269  53.198  0.00  0.00     0.045 A 
ATOM      8  C   UNL d   1      50.602  34.554  52.987  0.00  0.00    -0.001 A 
ATOM      9  C   UNL d   1      52.120  34.764  53.143  0.00  0.00    -0.022 A 
ATOM     10  C   UNL d   1      52.092  34.406  53.134  0.00  0.00    -0.022 A 
ENDROOT
BRANCH   1  11
ATOM     11  S   UNL d   1      53.047  32.319  53.190  0.00  0.00     0.141 S 
ATOM     12  O   UNL d   1      53.759  32.777  53.039  0.00  0.00    -0.233 OA
BRANCH  11  13
ATOM     13  N   UNL d   1      53.102  31.467  53.347  0.00  0.00    -0.254 N 
ATOM     14  C   UNL d   1      53.419  31.268  54.078  0.00  0.00     0.089 A 
ATOM     15  C   UNL d   1      53.545  30.512  54.392  0.00  0.00     0.020 A 
ATOM     16  C   UNL d   1      53.385  29.788  54.054  0.00  0.00     0.002 A 
ATOM     17  C   UNL d   1      53.058  29.621  53.315  0.00  0.00     0.002 A 
ATOM     18  C   UNL d   1      52.807  30.146  52.723  0.00  0.00     0.020 A 
ATOM     19  C   UNL d   1      52.829  30.967  52.743  0.00  0.00     0.089 A 
ENDBRANCH  11  13
ENDBRANCH   1  11
TORSDOF 2
ENDMDL
