MODEL 1
REMARK VINA RESULT:      59.6      0.000      0.000
REMARK  6 active torsions:
REMARK  status: ('A' for Active; 'I' for Inactive)
REMARK       I    between atoms: N_2  and  C_1 
REMARK    1  A    between atoms: C_5  and  C_1 
REMARK    2  A    between atoms: C_4  and  N_2 
REMARK    3  A    between atoms: C_3  and  C_4 
REMARK    4  A    between atoms: N_7  and  C_4 
REMARK    5  A    between atoms: C_15  and  N_7 
REMARK    6  A    between atoms: C_14  and  C_15 
ROOT
ATOM      1  C   UNL d   1     -51.467  25.622  33.881  0.00  0.00     0.280 C 
ATOM      2  N   UNL d   1     -50.908  25.965  34.368  0.00  0.00    -0.189 NA
ATOM      3  O   UNL d   1     -52.073  26.072  33.568  0.00  0.00    -0.265 OA
ENDROOT
BRANCH   2   4
ATOM      4  C   UNL d   1     -50.945  26.774  34.555  0.00  0.00     0.185 C 
BRANCH   4   5
ATOM      5  C   UNL d   1     -51.014  27.330  33.936  0.00  0.00     0.250 C 
ATOM      6 CL   UNL d   1     -50.339  27.002  33.597  0.00  0.00    -0.075 Cl
ATOM      7 CL   UNL d   1     -51.689  27.629  34.310  0.00  0.00    -0.075 Cl
ATOM      8 CL   UNL d   1     -51.091  27.900  33.309  0.00  0.00    -0.075 Cl
ENDBRANCH   4   5
BRANCH   4   9
ATOM      9  N   UNL d   1     -50.913  27.003  35.332  0.00  0.00    -0.226 NA
BRANCH   9  10
ATOM     10  C   UNL d   1     -51.357  26.603  35.916  0.00  0.00     0.102 C 
BRANCH  10  11
ATOM     11  C   UNL d   1     -51.244  26.731  36.703  0.00  0.00     0.038 A 
ATOM     12  C   UNL d   1     -51.905  26.786  37.211  0.00  0.00     0.101 A 
ATOM     13  N   UNL d   1     -51.784  26.918  38.021  0.00  0.00    -0.242 NA
ATOM     14  C   UNL d   1     -51.047  26.994  38.321  0.00  0.00     0.099 A 
ATOM     15  C   UNL d   1     -50.397  26.937  37.806  0.00  0.00     0.021 A 
ATOM     16  C   UNL d   1     -50.494  26.808  37.007  0.00  0.00     0.005 A 
ENDBRANCH  10  11
ENDBRANCH   9  10
ENDBRANCH   4   9
ENDBRANCH   2   4
BRANCH   1  17
ATOM     17  C   UNL d   1     -51.442  24.833  33.691  0.00  0.00     0.058 A 
ATOM     18  C   UNL d   1     -52.111  24.402  33.593  0.00  0.00     0.005 A 
ATOM     19  C   UNL d   1     -52.095  23.600  33.400  0.00  0.00     0.000 A 
ATOM     20  C   UNL d   1     -52.833  24.792  33.692  0.00  0.00     0.000 A 
ATOM     21  C   UNL d   1     -52.798  23.189  33.308  0.00  0.00     0.000 A 
ATOM     22  C   UNL d   1     -51.375  23.231  33.306  0.00  0.00     0.000 A 
ATOM     23  C   UNL d   1     -53.525  23.572  33.405  0.00  0.00     0.000 A 
ATOM     24  C   UNL d   1     -53.551  24.391  33.602  0.00  0.00     0.000 A 
ATOM     25  C   UNL d   1     -50.670  23.667  33.405  0.00  0.00     0.000 A 
ATOM     26  C   UNL d   1     -50.716  24.458  33.595  0.00  0.00     0.005 A 
ENDBRANCH   1  17
TORSDOF 6
ENDMDL
