MODEL 1
REMARK VINA RESULT:      -5.6      0.000      0.000
REMARK  6 active torsions:
REMARK  status: ('A' for Active; 'I' for Inactive)
REMARK    1  A    between atoms: C_5  and  N_1 
REMARK    2  A    between atoms: C_10  and  C_4 
REMARK    3  A    between atoms: C_6  and  S_13 
REMARK    4  A    between atoms: C_8  and  C_11 
REMARK    5  A    between atoms: C_14  and  C_8 
REMARK    6  A    between atoms: S_13  and  C_14 
ROOT
ATOM      1  S   UNL d   1     -46.992  12.504  23.331  0.00  0.00    -0.062 SA
ENDROOT
BRANCH   1   2
ATOM      2  C   UNL d   1     -47.675  12.970  23.233  0.00  0.00     0.133 A 
ATOM      3  N   UNL d   1     -47.605  13.790  23.103  0.00  0.00    -0.141 NA
ATOM      4  N   UNL d   1     -48.284  14.251  23.006  0.00  0.00    -0.146 NA
ATOM      5  C   UNL d   1     -49.028  13.901  23.039  0.00  0.00     0.121 A 
ATOM      6  C   UNL d   1     -49.098  13.081  23.169  0.00  0.00     0.025 A 
ATOM      7  C   UNL d   1     -48.423  12.620  23.266  0.00  0.00     0.029 A 
BRANCH   5   8
ATOM      8  C   UNL d   1     -49.704  14.362  22.942  0.00  0.00     0.101 A 
ATOM      9  N   UNL d   1     -50.171  14.273  22.268  0.00  0.00    -0.242 NA
ATOM     10  C   UNL d   1     -50.847  14.733  22.170  0.00  0.00     0.099 A 
ATOM     11  C   UNL d   1     -51.062  15.292  22.752  0.00  0.00     0.021 A 
ATOM     12  C   UNL d   1     -50.594  15.381  23.425  0.00  0.00     0.003 A 
ATOM     13  C   UNL d   1     -49.917  14.918  23.521  0.00  0.00     0.021 A 
ENDBRANCH   5   8
ENDBRANCH   1   2
BRANCH   1  14
ATOM     14  C   UNL d   1     -46.301  12.681  22.901  0.00  0.00     0.079 C 
BRANCH  14  15
ATOM     15  C   UNL d   1     -45.629  12.213  22.988  0.00  0.00     0.202 C 
ATOM     16  O   UNL d   1     -45.633  11.585  23.521  0.00  0.00    -0.286 OA
BRANCH  15  17
ATOM     17  C   UNL d   1     -44.949  12.374  22.541  0.00  0.00     0.040 A 
ATOM     18  C   UNL d   1     -44.279  11.902  22.624  0.00  0.00     0.005 A 
ATOM     19  C   UNL d   1     -43.603  12.062  22.180  0.00  0.00     0.024 A 
ATOM     20  C   UNL d   1     -43.597  12.694  21.652  0.00  0.00     0.127 A 
ATOM     21  C   UNL d   1     -44.266  13.166  21.569  0.00  0.00     0.024 A 
ATOM     22  C   UNL d   1     -44.942  13.006  22.013  0.00  0.00     0.005 A 
BRANCH  20  23
ATOM     23  N   UNL d   1     -42.921  12.855  21.207  0.00  0.00    -0.114 N 
ATOM     24  O   UNL d   1     -42.888  12.639  20.412  0.00  0.00    -0.532 OA
ATOM     25  O   UNL d   1     -42.273  13.233  21.562  0.00  0.00    -0.532 OA
ENDBRANCH  20  23
ENDBRANCH  15  17
ENDBRANCH  14  15
ENDBRANCH   1  14
TORSDOF 6
ENDMDL
MODEL 2
REMARK VINA RESULT:      -5.3      2.881      4.752
REMARK  6 active torsions:
REMARK  status: ('A' for Active; 'I' for Inactive)
REMARK    1  A    between atoms: C_5  and  N_1 
REMARK    2  A    between atoms: C_10  and  C_4 
REMARK    3  A    between atoms: C_6  and  S_13 
REMARK    4  A    between atoms: C_8  and  C_11 
REMARK    5  A    between atoms: C_14  and  C_8 
REMARK    6  A    between atoms: S_13  and  C_14 
ROOT
ATOM      1  S   UNL d   1     -42.785  12.907  21.086  0.00  0.00    -0.062 SA
ENDROOT
BRANCH   1   2
ATOM      2  C   UNL d   1     -43.491  12.825  21.520  0.00  0.00     0.133 A 
ATOM      3  N   UNL d   1     -43.601  12.165  22.015  0.00  0.00    -0.141 NA
ATOM      4  N   UNL d   1     -44.303  12.085  22.445  0.00  0.00    -0.146 NA
ATOM      5  C   UNL d   1     -44.891  12.657  22.384  0.00  0.00     0.121 A 
ATOM      6  C   UNL d   1     -44.781  13.317  21.888  0.00  0.00     0.025 A 
ATOM      7  C   UNL d   1     -44.083  13.399  21.459  0.00  0.00     0.029 A 
BRANCH   5   8
ATOM      8  C   UNL d   1     -45.589  12.576  22.813  0.00  0.00     0.101 A 
ATOM      9  N   UNL d   1     -45.728  11.891  23.250  0.00  0.00    -0.242 NA
ATOM     10  C   UNL d   1     -46.426  11.809  23.679  0.00  0.00     0.099 A 
ATOM     11  C   UNL d   1     -46.996  12.418  23.674  0.00  0.00     0.021 A 
ATOM     12  C   UNL d   1     -46.857  13.104  23.237  0.00  0.00     0.003 A 
ATOM     13  C   UNL d   1     -46.156  13.183  22.807  0.00  0.00     0.021 A 
ENDBRANCH   5   8
ENDBRANCH   1   2
BRANCH   1  14
ATOM     14  C   UNL d   1     -42.273  13.546  21.239  0.00  0.00     0.079 C 
BRANCH  14  15
ATOM     15  C   UNL d   1     -41.657  13.716  20.720  0.00  0.00     0.202 C 
ATOM     16  O   UNL d   1     -41.661  13.395  19.961  0.00  0.00    -0.286 OA
BRANCH  15  17
ATOM     17  C   UNL d   1     -41.034  14.207  20.960  0.00  0.00     0.040 A 
ATOM     18  C   UNL d   1     -41.073  15.019  20.825  0.00  0.00     0.005 A 
ATOM     19  C   UNL d   1     -40.454  15.509  21.064  0.00  0.00     0.024 A 
ATOM     20  C   UNL d   1     -39.795  15.186  21.438  0.00  0.00     0.127 A 
ATOM     21  C   UNL d   1     -39.755  14.376  21.573  0.00  0.00     0.024 A 
ATOM     22  C   UNL d   1     -40.375  13.886  21.334  0.00  0.00     0.005 A 
BRANCH  20  23
ATOM     23  N   UNL d   1     -39.175  15.676  21.676  0.00  0.00    -0.114 N 
ATOM     24  O   UNL d   1     -39.121  15.921  22.461  0.00  0.00    -0.532 OA
ATOM     25  O   UNL d   1     -38.606  15.921  21.124  0.00  0.00    -0.532 OA
ENDBRANCH  20  23
ENDBRANCH  15  17
ENDBRANCH  14  15
ENDBRANCH   1  14
TORSDOF 6
ENDMDL
MODEL 3
REMARK VINA RESULT:      -4.7      1.526      2.123
REMARK  6 active torsions:
REMARK  status: ('A' for Active; 'I' for Inactive)
REMARK    1  A    between atoms: C_5  and  N_1 
REMARK    2  A    between atoms: C_10  and  C_4 
REMARK    3  A    between atoms: C_6  and  S_13 
REMARK    4  A    between atoms: C_8  and  C_11 
REMARK    5  A    between atoms: C_14  and  C_8 
REMARK    6  A    between atoms: S_13  and  C_14 
ROOT
ATOM      1  S   UNL d   1     -46.320  13.780  22.425  0.00  0.00    -0.062 SA
ENDROOT
BRANCH   1   2
ATOM      2  C   UNL d   1     -47.112  13.964  22.607  0.00  0.00     0.133 A 
ATOM      3  N   UNL d   1     -47.554  13.461  23.101  0.00  0.00    -0.141 NA
ATOM      4  N   UNL d   1     -48.340  13.645  23.281  0.00  0.00    -0.146 NA
ATOM      5  C   UNL d   1     -48.684  14.325  22.971  0.00  0.00     0.121 A 
ATOM      6  C   UNL d   1     -48.242  14.829  22.476  0.00  0.00     0.025 A 
ATOM      7  C   UNL d   1     -47.460  14.648  22.296  0.00  0.00     0.029 A 
BRANCH   5   8
ATOM      8  C   UNL d   1     -49.467  14.508  23.151  0.00  0.00     0.101 A 
ATOM      9  N   UNL d   1     -49.658  15.250  23.454  0.00  0.00    -0.242 NA
ATOM     10  C   UNL d   1     -50.440  15.434  23.634  0.00  0.00     0.099 A 
ATOM     11  C   UNL d   1     -51.043  14.870  23.511  0.00  0.00     0.021 A 
ATOM     12  C   UNL d   1     -50.852  14.128  23.207  0.00  0.00     0.003 A 
ATOM     13  C   UNL d   1     -50.066  13.946  23.028  0.00  0.00     0.021 A 
ENDBRANCH   5   8
ENDBRANCH   1   2
BRANCH   1  14
ATOM     14  C   UNL d   1     -46.035  13.006  22.541  0.00  0.00     0.079 C 
BRANCH  14  15
ATOM     15  C   UNL d   1     -45.227  12.854  22.504  0.00  0.00     0.202 C 
ATOM     16  O   UNL d   1     -44.715  13.428  22.208  0.00  0.00    -0.286 OA
BRANCH  15  17
ATOM     17  C   UNL d   1     -44.928  12.126  22.765  0.00  0.00     0.040 A 
ATOM     18  C   UNL d   1     -45.405  11.618  23.205  0.00  0.00     0.005 A 
ATOM     19  C   UNL d   1     -45.107  10.893  23.464  0.00  0.00     0.024 A 
ATOM     20  C   UNL d   1     -44.334  10.677  23.283  0.00  0.00     0.127 A 
ATOM     21  C   UNL d   1     -43.858  11.184  22.843  0.00  0.00     0.024 A 
ATOM     22  C   UNL d   1     -44.155  11.908  22.584  0.00  0.00     0.005 A 
BRANCH  20  23
ATOM     23  N   UNL d   1     -44.037   9.952  23.542  0.00  0.00    -0.114 N 
ATOM     24  O   UNL d   1     -43.226   9.852  23.648  0.00  0.00    -0.532 OA
ATOM     25  O   UNL d   1     -44.557   9.324  23.696  0.00  0.00    -0.532 OA
ENDBRANCH  20  23
ENDBRANCH  15  17
ENDBRANCH  14  15
ENDBRANCH   1  14
TORSDOF 6
ENDMDL
MODEL 4
REMARK VINA RESULT:      -4.7      7.811      9.669
REMARK  6 active torsions:
REMARK  status: ('A' for Active; 'I' for Inactive)
REMARK    1  A    between atoms: C_5  and  N_1 
REMARK    2  A    between atoms: C_10  and  C_4 
REMARK    3  A    between atoms: C_6  and  S_13 
REMARK    4  A    between atoms: C_8  and  C_11 
REMARK    5  A    between atoms: C_14  and  C_8 
REMARK    6  A    between atoms: S_13  and  C_14 
ROOT
ATOM      1  S   UNL d   1     -40.348  14.569  19.173  0.00  0.00    -0.062 SA
ENDROOT
BRANCH   1   2
ATOM      2  C   UNL d   1     -39.944  14.530  18.445  0.00  0.00     0.133 A 
ATOM      3  N   UNL d   1     -39.761  13.790  18.110  0.00  0.00    -0.141 NA
ATOM      4  N   UNL d   1     -39.360  13.753  17.387  0.00  0.00    -0.146 NA
ATOM      5  C   UNL d   1     -39.143  14.445  17.000  0.00  0.00     0.121 A 
ATOM      6  C   UNL d   1     -39.326  15.185  17.336  0.00  0.00     0.025 A 
ATOM      7  C   UNL d   1     -39.725  15.226  18.055  0.00  0.00     0.029 A 
BRANCH   5   8
ATOM      8  C   UNL d   1     -38.744  14.406  16.281  0.00  0.00     0.101 A 
ATOM      9  N   UNL d   1     -38.705  15.072  15.794  0.00  0.00    -0.242 NA
ATOM     10  C   UNL d   1     -38.306  15.034  15.075  0.00  0.00     0.099 A 
ATOM     11  C   UNL d   1     -37.941  14.324  14.834  0.00  0.00     0.021 A 
ATOM     12  C   UNL d   1     -37.980  13.659  15.321  0.00  0.00     0.003 A 
ATOM     13  C   UNL d   1     -38.381  13.699  16.042  0.00  0.00     0.021 A 
ENDBRANCH   5   8
ENDBRANCH   1   2
BRANCH   1  14
ATOM     14  C   UNL d   1     -39.933  14.761  19.869  0.00  0.00     0.079 C 
BRANCH  14  15
ATOM     15  C   UNL d   1     -40.265  14.600  20.605  0.00  0.00     0.202 C 
ATOM     16  O   UNL d   1     -41.045  14.339  20.654  0.00  0.00    -0.286 OA
BRANCH  15  17
ATOM     17  C   UNL d   1     -39.816  14.699  21.295  0.00  0.00     0.040 A 
ATOM     18  C   UNL d   1     -39.611  15.455  21.549  0.00  0.00     0.005 A 
ATOM     19  C   UNL d   1     -39.164  15.554  22.236  0.00  0.00     0.024 A 
ATOM     20  C   UNL d   1     -38.923  14.896  22.668  0.00  0.00     0.127 A 
ATOM     21  C   UNL d   1     -39.127  14.141  22.414  0.00  0.00     0.024 A 
ATOM     22  C   UNL d   1     -39.574  14.042  21.728  0.00  0.00     0.005 A 
BRANCH  20  23
ATOM     23  N   UNL d   1     -38.476  14.995  23.354  0.00  0.00    -0.114 N 
ATOM     24  O   UNL d   1     -38.406  15.740  23.698  0.00  0.00    -0.532 OA
ATOM     25  O   UNL d   1     -38.097  14.341  23.698  0.00  0.00    -0.532 OA
ENDBRANCH  20  23
ENDBRANCH  15  17
ENDBRANCH  14  15
ENDBRANCH   1  14
TORSDOF 6
ENDMDL
MODEL 5
REMARK VINA RESULT:      -4.7      1.726      2.505
REMARK  6 active torsions:
REMARK  status: ('A' for Active; 'I' for Inactive)
REMARK    1  A    between atoms: C_5  and  N_1 
REMARK    2  A    between atoms: C_10  and  C_4 
REMARK    3  A    between atoms: C_6  and  S_13 
REMARK    4  A    between atoms: C_8  and  C_11 
REMARK    5  A    between atoms: C_14  and  C_8 
REMARK    6  A    between atoms: S_13  and  C_14 
ROOT
ATOM      1  S   UNL d   1     -44.725  12.628  22.153  0.00  0.00    -0.062 SA
ENDROOT
BRANCH   1   2
ATOM      2  C   UNL d   1     -45.452  13.012  22.286  0.00  0.00     0.133 A 
ATOM      3  N   UNL d   1     -45.531  13.547  22.919  0.00  0.00    -0.141 NA
ATOM      4  N   UNL d   1     -46.254  13.927  23.050  0.00  0.00    -0.146 NA
ATOM      5  C   UNL d   1     -46.894  13.776  22.555  0.00  0.00     0.121 A 
ATOM      6  C   UNL d   1     -46.815  13.241  21.922  0.00  0.00     0.025 A 
ATOM      7  C   UNL d   1     -46.096  12.861  21.789  0.00  0.00     0.029 A 
BRANCH   5   8
ATOM      8  C   UNL d   1     -47.613  14.155  22.687  0.00  0.00     0.101 A 
ATOM      9  N   UNL d   1     -48.219  13.763  23.086  0.00  0.00    -0.242 NA
ATOM     10  C   UNL d   1     -48.938  14.141  23.218  0.00  0.00     0.099 A 
ATOM     11  C   UNL d   1     -49.058  14.922  22.950  0.00  0.00     0.021 A 
ATOM     12  C   UNL d   1     -48.452  15.314  22.551  0.00  0.00     0.003 A 
ATOM     13  C   UNL d   1     -47.731  14.933  22.419  0.00  0.00     0.021 A 
ENDBRANCH   5   8
ENDBRANCH   1   2
BRANCH   1  14
ATOM     14  C   UNL d   1     -44.132  13.002  21.703  0.00  0.00     0.079 C 
BRANCH  14  15
ATOM     15  C   UNL d   1     -43.382  12.668  21.648  0.00  0.00     0.202 C 
ATOM     16  O   UNL d   1     -43.258  11.896  21.908  0.00  0.00    -0.286 OA
BRANCH  15  17
ATOM     17  C   UNL d   1     -42.753  13.107  21.334  0.00  0.00     0.040 A 
ATOM     18  C   UNL d   1     -42.099  13.286  21.802  0.00  0.00     0.005 A 
ATOM     19  C   UNL d   1     -41.473  13.723  21.489  0.00  0.00     0.024 A 
ATOM     20  C   UNL d   1     -41.501  13.980  20.707  0.00  0.00     0.127 A 
ATOM     21  C   UNL d   1     -42.154  13.802  20.239  0.00  0.00     0.024 A 
ATOM     22  C   UNL d   1     -42.780  13.365  20.552  0.00  0.00     0.005 A 
BRANCH  20  23
ATOM     23  N   UNL d   1     -40.875  14.417  20.394  0.00  0.00    -0.114 N 
ATOM     24  O   UNL d   1     -40.526  14.187  19.684  0.00  0.00    -0.532 OA
ATOM     25  O   UNL d   1     -40.598  15.088  20.795  0.00  0.00    -0.532 OA
ENDBRANCH  20  23
ENDBRANCH  15  17
ENDBRANCH  14  15
ENDBRANCH   1  14
TORSDOF 6
ENDMDL
MODEL 6
REMARK VINA RESULT:      -4.6      2.368      6.329
REMARK  6 active torsions:
REMARK  status: ('A' for Active; 'I' for Inactive)
REMARK    1  A    between atoms: C_5  and  N_1 
REMARK    2  A    between atoms: C_10  and  C_4 
REMARK    3  A    between atoms: C_6  and  S_13 
REMARK    4  A    between atoms: C_8  and  C_11 
REMARK    5  A    between atoms: C_14  and  C_8 
REMARK    6  A    between atoms: S_13  and  C_14 
ROOT
ATOM      1  S   UNL d   1     -44.443  12.722  21.926  0.00  0.00    -0.062 SA
ENDROOT
BRANCH   1   2
ATOM      2  C   UNL d   1     -43.715  13.024  21.656  0.00  0.00     0.133 A 
ATOM      3  N   UNL d   1     -43.590  13.847  21.630  0.00  0.00    -0.141 NA
ATOM      4  N   UNL d   1     -42.866  14.145  21.361  0.00  0.00    -0.146 NA
ATOM      5  C   UNL d   1     -42.272  13.630  21.121  0.00  0.00     0.121 A 
ATOM      6  C   UNL d   1     -42.398  12.807  21.147  0.00  0.00     0.025 A 
ATOM      7  C   UNL d   1     -43.117  12.507  21.413  0.00  0.00     0.029 A 
BRANCH   5   8
ATOM      8  C   UNL d   1     -41.553  13.928  20.854  0.00  0.00     0.101 A 
ATOM      9  N   UNL d   1     -41.438  14.071  20.049  0.00  0.00    -0.242 NA
ATOM     10  C   UNL d   1     -40.719  14.369  19.781  0.00  0.00     0.099 A 
ATOM     11  C   UNL d   1     -40.104  14.529  20.321  0.00  0.00     0.021 A 
ATOM     12  C   UNL d   1     -40.218  14.387  21.125  0.00  0.00     0.003 A 
ATOM     13  C   UNL d   1     -40.941  14.088  21.392  0.00  0.00     0.021 A 
ENDBRANCH   5   8
ENDBRANCH   1   2
BRANCH   1  14
ATOM     14  C   UNL d   1     -45.065  13.241  22.118  0.00  0.00     0.079 C 
BRANCH  14  15
ATOM     15  C   UNL d   1     -45.678  12.989  22.606  0.00  0.00     0.202 C 
ATOM     16  O   UNL d   1     -45.575  12.325  23.084  0.00  0.00    -0.286 OA
BRANCH  15  17
ATOM     17  C   UNL d   1     -46.397  13.401  22.618  0.00  0.00     0.040 A 
ATOM     18  C   UNL d   1     -46.431  14.163  22.931  0.00  0.00     0.005 A 
ATOM     19  C   UNL d   1     -47.147  14.573  22.942  0.00  0.00     0.024 A 
ATOM     20  C   UNL d   1     -47.828  14.222  22.641  0.00  0.00     0.127 A 
ATOM     21  C   UNL d   1     -47.794  13.462  22.329  0.00  0.00     0.024 A 
ATOM     22  C   UNL d   1     -47.079  13.052  22.317  0.00  0.00     0.005 A 
BRANCH  20  23
ATOM     23  N   UNL d   1     -48.544  14.633  22.653  0.00  0.00    -0.114 N 
ATOM     24  O   UNL d   1     -49.150  14.391  23.155  0.00  0.00    -0.532 OA
ATOM     25  O   UNL d   1     -48.651  15.290  22.157  0.00  0.00    -0.532 OA
ENDBRANCH  20  23
ENDBRANCH  15  17
ENDBRANCH  14  15
ENDBRANCH   1  14
TORSDOF 6
ENDMDL
MODEL 7
REMARK VINA RESULT:      -4.0      5.379      9.151
REMARK  6 active torsions:
REMARK  status: ('A' for Active; 'I' for Inactive)
REMARK    1  A    between atoms: C_5  and  N_1 
REMARK    2  A    between atoms: C_10  and  C_4 
REMARK    3  A    between atoms: C_6  and  S_13 
REMARK    4  A    between atoms: C_8  and  C_11 
REMARK    5  A    between atoms: C_14  and  C_8 
REMARK    6  A    between atoms: S_13  and  C_14 
ROOT
ATOM      1  S   UNL d   1     -40.187  15.290  19.491  0.00  0.00    -0.062 SA
ENDROOT
BRANCH   1   2
ATOM      2  C   UNL d   1     -39.811  15.182  18.756  0.00  0.00     0.133 A 
ATOM      3  N   UNL d   1     -39.063  14.817  18.720  0.00  0.00    -0.141 NA
ATOM      4  N   UNL d   1     -38.691  14.711  17.989  0.00  0.00    -0.146 NA
ATOM      5  C   UNL d   1     -39.059  14.965  17.299  0.00  0.00     0.121 A 
ATOM      6  C   UNL d   1     -39.807  15.330  17.335  0.00  0.00     0.025 A 
ATOM      7  C   UNL d   1     -40.180  15.438  18.060  0.00  0.00     0.029 A 
BRANCH   5   8
ATOM      8  C   UNL d   1     -38.687  14.858  16.572  0.00  0.00     0.101 A 
ATOM      9  N   UNL d   1     -38.320  15.496  16.198  0.00  0.00    -0.242 NA
ATOM     10  C   UNL d   1     -37.948  15.390  15.472  0.00  0.00     0.099 A 
ATOM     11  C   UNL d   1     -37.940  14.639  15.109  0.00  0.00     0.021 A 
ATOM     12  C   UNL d   1     -38.307  14.002  15.482  0.00  0.00     0.003 A 
ATOM     13  C   UNL d   1     -38.680  14.110  16.212  0.00  0.00     0.021 A 
ENDBRANCH   5   8
ENDBRANCH   1   2
BRANCH   1  14
ATOM     14  C   UNL d   1     -40.608  14.662  19.841  0.00  0.00     0.079 C 
BRANCH  14  15
ATOM     15  C   UNL d   1     -41.009  14.778  20.550  0.00  0.00     0.202 C 
ATOM     16  O   UNL d   1     -40.863  15.454  20.997  0.00  0.00    -0.286 OA
BRANCH  15  17
ATOM     17  C   UNL d   1     -41.558  14.215  20.814  0.00  0.00     0.040 A 
ATOM     18  C   UNL d   1     -42.364  14.389  20.804  0.00  0.00     0.005 A 
ATOM     19  C   UNL d   1     -42.910  13.829  21.066  0.00  0.00     0.024 A 
ATOM     20  C   UNL d   1     -42.651  13.096  21.338  0.00  0.00     0.127 A 
ATOM     21  C   UNL d   1     -41.847  12.923  21.348  0.00  0.00     0.024 A 
ATOM     22  C   UNL d   1     -41.301  13.483  21.086  0.00  0.00     0.005 A 
BRANCH  20  23
ATOM     23  N   UNL d   1     -43.198  12.537  21.601  0.00  0.00    -0.114 N 
ATOM     24  O   UNL d   1     -43.925  12.461  21.221  0.00  0.00    -0.532 OA
ATOM     25  O   UNL d   1     -43.013  12.051  22.248  0.00  0.00    -0.532 OA
ENDBRANCH  20  23
ENDBRANCH  15  17
ENDBRANCH  14  15
ENDBRANCH   1  14
TORSDOF 6
ENDMDL
