MODEL 1
REMARK VINA RESULT:      -7.7      0.000      0.000
REMARK  4 active torsions:
REMARK  status: ('A' for Active; 'I' for Inactive)
REMARK    1  A    between atoms: C_3  and  C_2 
REMARK    2  A    between atoms: C_14  and  C_12 
REMARK    3  A    between atoms: C_15  and  C_14 
REMARK    4  A    between atoms: C_16  and  C_15 
ROOT
ATOM      1  N   UNL d   1      51.410  33.490  53.616  0.00  0.00    -0.244 NA
ATOM      2  C   UNL d   1      52.131  33.832  53.418  0.00  0.00     0.081 A 
ATOM      3  C   UNL d   1      52.188  34.309  52.684  0.00  0.00     0.019 A 
ATOM      4  C   UNL d   1      50.740  33.584  53.139  0.00  0.00     0.099 A 
ATOM      5  C   UNL d   1      51.518  34.403  52.208  0.00  0.00     0.003 A 
ATOM      6  C   UNL d   1      50.758  34.025  52.442  0.00  0.00     0.019 A 
ENDROOT
BRANCH   2   7
ATOM      7  C   UNL d   1      52.801  33.738  53.895  0.00  0.00     0.018 A 
ATOM      8  C   UNL d   1      53.040  34.316  54.433  0.00  0.00     0.002 A 
ATOM      9  C   UNL d   1      53.685  34.226  54.891  0.00  0.00     0.007 A 
ATOM     10  C   UNL d   1      54.169  33.545  54.868  0.00  0.00     0.035 A 
ATOM     11  C   UNL d   1      53.925  32.911  54.293  0.00  0.00     0.007 A 
ATOM     12 BR   UNL d   1      54.813  33.454  55.326  0.00  0.00    -0.049 Br
ATOM     13  C   UNL d   1      53.281  33.002  53.834  0.00  0.00     0.002 A 
ENDBRANCH   2   7
BRANCH   6  14
ATOM     14  C   UNL d   1      50.098  34.118  51.973  0.00  0.00     0.002 C 
BRANCH  14  15
ATOM     15  C   UNL d   1      49.517  34.647  52.169  0.00  0.00     0.000 C 
BRANCH  15  16
ATOM     16  C   UNL d   1      48.863  34.749  51.694  0.00  0.00     0.000 C 
ATOM     17  C   UNL d   1      48.317  35.302  51.880  0.00  0.00     0.000 C 
ENDBRANCH  15  16
ENDBRANCH  14  15
ENDBRANCH   6  14
TORSDOF 4
ENDMDL
MODEL 2
REMARK VINA RESULT:      -7.6      2.343      4.111
REMARK  4 active torsions:
REMARK  status: ('A' for Active; 'I' for Inactive)
REMARK    1  A    between atoms: C_3  and  C_2 
REMARK    2  A    between atoms: C_14  and  C_12 
REMARK    3  A    between atoms: C_15  and  C_14 
REMARK    4  A    between atoms: C_16  and  C_15 
ROOT
ATOM      1  N   UNL d   1      52.628  32.386  53.437  0.00  0.00    -0.244 NA
ATOM      2  C   UNL d   1      53.210  32.798  53.846  0.00  0.00     0.081 A 
ATOM      3  C   UNL d   1      53.907  32.360  54.149  0.00  0.00     0.019 A 
ATOM      4  C   UNL d   1      52.684  31.571  53.305  0.00  0.00     0.099 A 
ATOM      5  C   UNL d   1      53.963  31.545  54.016  0.00  0.00     0.003 A 
ATOM      6  C   UNL d   1      53.326  31.128  53.576  0.00  0.00     0.019 A 
ENDROOT
BRANCH   2   7
ATOM      7  C   UNL d   1      53.153  33.614  53.978  0.00  0.00     0.018 A 
ATOM      8  C   UNL d   1      53.381  33.957  54.693  0.00  0.00     0.002 A 
ATOM      9  C   UNL d   1      53.326  34.741  54.820  0.00  0.00     0.007 A 
ATOM     10  C   UNL d   1      53.037  35.277  54.247  0.00  0.00     0.035 A 
ATOM     11  C   UNL d   1      52.787  34.922  53.471  0.00  0.00     0.007 A 
ATOM     12 BR   UNL d   1      52.983  36.061  54.374  0.00  0.00    -0.049 Br
ATOM     13  C   UNL d   1      52.842  34.138  53.344  0.00  0.00     0.002 A 
ENDBRANCH   2   7
BRANCH   6  14
ATOM     14  C   UNL d   1      53.382  30.325  53.446  0.00  0.00     0.002 C 
BRANCH  14  15
ATOM     15  C   UNL d   1      53.349  29.799  54.061  0.00  0.00     0.000 C 
BRANCH  15  16
ATOM     16  C   UNL d   1      53.380  28.995  53.928  0.00  0.00     0.000 C 
ATOM     17  C   UNL d   1      53.452  28.493  54.546  0.00  0.00     0.000 C 
ENDBRANCH  15  16
ENDBRANCH  14  15
ENDBRANCH   6  14
TORSDOF 4
ENDMDL
MODEL 3
REMARK VINA RESULT:      -7.3      1.913      4.449
REMARK  4 active torsions:
REMARK  status: ('A' for Active; 'I' for Inactive)
REMARK    1  A    between atoms: C_3  and  C_2 
REMARK    2  A    between atoms: C_14  and  C_12 
REMARK    3  A    between atoms: C_15  and  C_14 
REMARK    4  A    between atoms: C_16  and  C_15 
ROOT
ATOM      1  N   UNL d   1      51.746  33.206  53.054  0.00  0.00    -0.244 NA
ATOM      2  C   UNL d   1      51.581  33.984  52.846  0.00  0.00     0.081 A 
ATOM      3  C   UNL d   1      52.197  34.596  52.967  0.00  0.00     0.019 A 
ATOM      4  C   UNL d   1      52.478  32.988  53.373  0.00  0.00     0.099 A 
ATOM      5  C   UNL d   1      52.930  34.378  53.286  0.00  0.00     0.003 A 
ATOM      6  C   UNL d   1      53.081  33.538  53.500  0.00  0.00     0.019 A 
ENDROOT
BRANCH   2   7
ATOM      7  C   UNL d   1      50.848  34.202  52.527  0.00  0.00     0.018 A 
ATOM      8  C   UNL d   1      50.676  34.109  51.726  0.00  0.00     0.002 A 
ATOM      9  C   UNL d   1      49.972  34.319  51.419  0.00  0.00     0.007 A 
ATOM     10  C   UNL d   1      49.355  34.647  51.876  0.00  0.00     0.035 A 
ATOM     11  C   UNL d   1      49.524  34.753  52.743  0.00  0.00     0.007 A 
ATOM     12 BR   UNL d   1      48.651  34.856  51.569  0.00  0.00    -0.049 Br
ATOM     13  C   UNL d   1      50.228  34.544  53.050  0.00  0.00     0.002 A 
ENDBRANCH   2   7
BRANCH   6  14
ATOM     14  C   UNL d   1      53.801  33.323  53.814  0.00  0.00     0.002 C 
BRANCH  14  15
ATOM     15  C   UNL d   1      54.014  33.547  54.563  0.00  0.00     0.000 C 
BRANCH  15  16
ATOM     16  C   UNL d   1      54.718  33.300  54.892  0.00  0.00     0.000 C 
ATOM     17  C   UNL d   1      54.968  33.617  55.582  0.00  0.00     0.000 C 
ENDBRANCH  15  16
ENDBRANCH  14  15
ENDBRANCH   6  14
TORSDOF 4
ENDMDL
MODEL 4
REMARK VINA RESULT:      -7.1      2.515      4.604
REMARK  4 active torsions:
REMARK  status: ('A' for Active; 'I' for Inactive)
REMARK    1  A    between atoms: C_3  and  C_2 
REMARK    2  A    between atoms: C_14  and  C_12 
REMARK    3  A    between atoms: C_15  and  C_14 
REMARK    4  A    between atoms: C_16  and  C_15 
ROOT
ATOM      1  N   UNL d   1      52.119  31.491  52.829  0.00  0.00    -0.244 NA
ATOM      2  C   UNL d   1      52.292  32.220  53.168  0.00  0.00     0.081 A 
ATOM      3  C   UNL d   1      52.982  32.286  53.705  0.00  0.00     0.019 A 
ATOM      4  C   UNL d   1      52.581  30.821  52.982  0.00  0.00     0.099 A 
ATOM      5  C   UNL d   1      53.444  31.616  53.858  0.00  0.00     0.003 A 
ATOM      6  C   UNL d   1      53.237  30.847  53.482  0.00  0.00     0.019 A 
ENDROOT
BRANCH   2   7
ATOM      7  C   UNL d   1      51.831  32.890  53.014  0.00  0.00     0.018 A 
ATOM      8  C   UNL d   1      51.063  32.969  53.306  0.00  0.00     0.002 A 
ATOM      9  C   UNL d   1      50.620  33.613  53.159  0.00  0.00     0.007 A 
ATOM     10  C   UNL d   1      50.890  34.258  52.701  0.00  0.00     0.035 A 
ATOM     11  C   UNL d   1      51.716  34.189  52.378  0.00  0.00     0.007 A 
ATOM     12 BR   UNL d   1      50.447  34.902  52.554  0.00  0.00    -0.049 Br
ATOM     13  C   UNL d   1      52.160  33.545  52.526  0.00  0.00     0.002 A 
ENDBRANCH   2   7
BRANCH   6  14
ATOM     14  C   UNL d   1      53.691  30.187  53.633  0.00  0.00     0.002 C 
BRANCH  14  15
ATOM     15  C   UNL d   1      53.369  29.529  53.979  0.00  0.00     0.000 C 
BRANCH  15  16
ATOM     16  C   UNL d   1      53.843  28.951  54.305  0.00  0.00     0.000 C 
ATOM     17  C   UNL d   1      53.549  28.466  54.867  0.00  0.00     0.000 C 
ENDBRANCH  15  16
ENDBRANCH  14  15
ENDBRANCH   6  14
TORSDOF 4
ENDMDL
MODEL 5
REMARK VINA RESULT:      -6.6      0.674      1.126
REMARK  4 active torsions:
REMARK  status: ('A' for Active; 'I' for Inactive)
REMARK    1  A    between atoms: C_3  and  C_2 
REMARK    2  A    between atoms: C_14  and  C_12 
REMARK    3  A    between atoms: C_15  and  C_14 
REMARK    4  A    between atoms: C_16  and  C_15 
ROOT
ATOM      1  N   UNL d   1      50.657  34.291  53.494  0.00  0.00    -0.244 NA
ATOM      2  C   UNL d   1      51.395  34.170  53.153  0.00  0.00     0.081 A 
ATOM      3  C   UNL d   1      51.461  34.144  52.279  0.00  0.00     0.019 A 
ATOM      4  C   UNL d   1      49.977  34.389  53.032  0.00  0.00     0.099 A 
ATOM      5  C   UNL d   1      50.781  34.242  51.817  0.00  0.00     0.003 A 
ATOM      6  C   UNL d   1      50.002  34.371  52.207  0.00  0.00     0.019 A 
ENDROOT
BRANCH   2   7
ATOM      7  C   UNL d   1      52.075  34.072  53.615  0.00  0.00     0.018 A 
ATOM      8  C   UNL d   1      52.347  33.326  53.841  0.00  0.00     0.002 A 
ATOM      9  C   UNL d   1      53.001  33.232  54.285  0.00  0.00     0.007 A 
ATOM     10  C   UNL d   1      53.463  33.872  54.558  0.00  0.00     0.035 A 
ATOM     11  C   UNL d   1      53.184  34.684  54.323  0.00  0.00     0.007 A 
ATOM     12 BR   UNL d   1      54.117  33.778  55.002  0.00  0.00    -0.049 Br
ATOM     13  C   UNL d   1      52.530  34.778  53.879  0.00  0.00     0.002 A 
ENDBRANCH   2   7
BRANCH   6  14
ATOM     14  C   UNL d   1      49.333  34.467  51.752  0.00  0.00     0.002 C 
BRANCH  14  15
ATOM     15  C   UNL d   1      48.768  35.013  51.951  0.00  0.00     0.000 C 
BRANCH  15  16
ATOM     16  C   UNL d   1      48.130  35.154  51.463  0.00  0.00     0.000 C 
ATOM     17  C   UNL d   1      47.574  35.685  51.679  0.00  0.00     0.000 C 
ENDBRANCH  15  16
ENDBRANCH  14  15
ENDBRANCH   6  14
TORSDOF 4
ENDMDL
MODEL 6
REMARK VINA RESULT:      -6.4      2.526      3.563
REMARK  4 active torsions:
REMARK  status: ('A' for Active; 'I' for Inactive)
REMARK    1  A    between atoms: C_3  and  C_2 
REMARK    2  A    between atoms: C_14  and  C_12 
REMARK    3  A    between atoms: C_15  and  C_14 
REMARK    4  A    between atoms: C_16  and  C_15 
ROOT
ATOM      1  N   UNL d   1      52.447  32.586  53.465  0.00  0.00    -0.244 NA
ATOM      2  C   UNL d   1      53.140  32.149  53.532  0.00  0.00     0.081 A 
ATOM      3  C   UNL d   1      53.904  32.574  53.603  0.00  0.00     0.019 A 
ATOM      4  C   UNL d   1      52.454  33.414  53.463  0.00  0.00     0.099 A 
ATOM      5  C   UNL d   1      53.911  33.402  53.600  0.00  0.00     0.003 A 
ATOM      6  C   UNL d   1      53.154  33.845  53.527  0.00  0.00     0.019 A 
ENDROOT
BRANCH   2   7
ATOM      7  C   UNL d   1      53.134  31.321  53.535  0.00  0.00     0.018 A 
ATOM      8  C   UNL d   1      53.475  30.884  54.146  0.00  0.00     0.002 A 
ATOM      9  C   UNL d   1      53.469  30.088  54.148  0.00  0.00     0.007 A 
ATOM     10  C   UNL d   1      53.120  29.632  53.541  0.00  0.00     0.035 A 
ATOM     11  C   UNL d   1      52.747  30.089  52.874  0.00  0.00     0.007 A 
ATOM     12 BR   UNL d   1      53.114  28.837  53.543  0.00  0.00    -0.049 Br
ATOM     13  C   UNL d   1      52.754  30.885  52.872  0.00  0.00     0.002 A 
ENDBRANCH   2   7
BRANCH   6  14
ATOM     14  C   UNL d   1      53.161  34.660  53.524  0.00  0.00     0.002 C 
BRANCH  14  15
ATOM     15  C   UNL d   1      52.988  35.082  54.194  0.00  0.00     0.000 C 
BRANCH  15  16
ATOM     16  C   UNL d   1      53.127  35.884  54.234  0.00  0.00     0.000 C 
ATOM     17  C   UNL d   1      52.966  36.283  54.907  0.00  0.00     0.000 C 
ENDBRANCH  15  16
ENDBRANCH  14  15
ENDBRANCH   6  14
TORSDOF 4
ENDMDL
MODEL 7
REMARK VINA RESULT:      -5.1      9.887     10.768
REMARK  4 active torsions:
REMARK  status: ('A' for Active; 'I' for Inactive)
REMARK    1  A    between atoms: C_3  and  C_2 
REMARK    2  A    between atoms: C_14  and  C_12 
REMARK    3  A    between atoms: C_15  and  C_14 
REMARK    4  A    between atoms: C_16  and  C_15 
ROOT
ATOM      1  N   UNL d   1      44.442  29.120  59.610  0.00  0.00    -0.244 NA
ATOM      2  C   UNL d   1      44.900  29.222  58.935  0.00  0.00     0.081 A 
ATOM      3  C   UNL d   1      45.262  30.006  58.782  0.00  0.00     0.019 A 
ATOM      4  C   UNL d   1      44.315  29.738  60.146  0.00  0.00     0.099 A 
ATOM      5  C   UNL d   1      45.135  30.624  59.318  0.00  0.00     0.003 A 
ATOM      6  C   UNL d   1      44.640  30.488  60.033  0.00  0.00     0.019 A 
ENDROOT
BRANCH   2   7
ATOM      7  C   UNL d   1      45.028  28.603  58.399  0.00  0.00     0.018 A 
ATOM      8  C   UNL d   1      45.010  28.722  57.583  0.00  0.00     0.002 A 
ATOM      9  C   UNL d   1      45.133  28.128  57.068  0.00  0.00     0.007 A 
ATOM     10  C   UNL d   1      45.287  27.342  57.306  0.00  0.00     0.035 A 
ATOM     11  C   UNL d   1      45.310  27.197  58.184  0.00  0.00     0.007 A 
ATOM     12 BR   UNL d   1      45.410  26.748  56.791  0.00  0.00    -0.049 Br
ATOM     13  C   UNL d   1      45.187  27.791  58.699  0.00  0.00     0.002 A 
ENDBRANCH   2   7
BRANCH   6  14
ATOM     14  C   UNL d   1      44.514  31.096  60.560  0.00  0.00     0.002 C 
BRANCH  14  15
ATOM     15  C   UNL d   1      44.563  30.973  61.360  0.00  0.00     0.000 C 
BRANCH  15  16
ATOM     16  C   UNL d   1      44.314  31.542  61.888  0.00  0.00     0.000 C 
ATOM     17  C   UNL d   1      44.518  31.485  62.659  0.00  0.00     0.000 C 
ENDBRANCH  15  16
ENDBRANCH  14  15
ENDBRANCH   6  14
TORSDOF 4
ENDMDL
MODEL 8
REMARK VINA RESULT:      -5.1      9.169     10.300
REMARK  4 active torsions:
REMARK  status: ('A' for Active; 'I' for Inactive)
REMARK    1  A    between atoms: C_3  and  C_2 
REMARK    2  A    between atoms: C_14  and  C_12 
REMARK    3  A    between atoms: C_15  and  C_14 
REMARK    4  A    between atoms: C_16  and  C_15 
ROOT
ATOM      1  N   UNL d   1      45.009  29.059  58.279  0.00  0.00    -0.244 NA
ATOM      2  C   UNL d   1      44.950  29.272  57.488  0.00  0.00     0.081 A 
ATOM      3  C   UNL d   1      45.058  28.657  56.872  0.00  0.00     0.019 A 
ATOM      4  C   UNL d   1      45.168  28.279  58.507  0.00  0.00     0.099 A 
ATOM      5  C   UNL d   1      45.217  27.877  57.100  0.00  0.00     0.003 A 
ATOM      6  C   UNL d   1      45.275  27.675  57.955  0.00  0.00     0.019 A 
ENDROOT
BRANCH   2   7
ATOM      7  C   UNL d   1      44.791  30.052  57.259  0.00  0.00     0.018 A 
ATOM      8  C   UNL d   1      44.612  30.251  56.479  0.00  0.00     0.002 A 
ATOM      9  C   UNL d   1      44.459  31.001  56.259  0.00  0.00     0.007 A 
ATOM     10  C   UNL d   1      44.467  31.643  56.794  0.00  0.00     0.035 A 
ATOM     11  C   UNL d   1      44.659  31.446  57.640  0.00  0.00     0.007 A 
ATOM     12 BR   UNL d   1      44.315  32.393  56.574  0.00  0.00    -0.049 Br
ATOM     13  C   UNL d   1      44.812  30.696  57.859  0.00  0.00     0.002 A 
ENDBRANCH   2   7
BRANCH   6  14
ATOM     14  C   UNL d   1      45.431  26.907  58.180  0.00  0.00     0.002 C 
BRANCH  14  15
ATOM     15  C   UNL d   1      44.830  26.387  58.338  0.00  0.00     0.000 C 
BRANCH  15  16
ATOM     16  C   UNL d   1      44.986  25.613  58.540  0.00  0.00     0.000 C 
ATOM     17  C   UNL d   1      44.384  25.122  58.728  0.00  0.00     0.000 C 
ENDBRANCH  15  16
ENDBRANCH  14  15
ENDBRANCH   6  14
TORSDOF 4
ENDMDL
MODEL 9
REMARK VINA RESULT:      -5.0      9.818     10.652
REMARK  4 active torsions:
REMARK  status: ('A' for Active; 'I' for Inactive)
REMARK    1  A    between atoms: C_3  and  C_2 
REMARK    2  A    between atoms: C_14  and  C_12 
REMARK    3  A    between atoms: C_15  and  C_14 
REMARK    4  A    between atoms: C_16  and  C_15 
ROOT
ATOM      1  N   UNL d   1      45.439  27.841  58.409  0.00  0.00    -0.244 NA
ATOM      2  C   UNL d   1      44.971  28.504  58.276  0.00  0.00     0.081 A 
ATOM      3  C   UNL d   1      44.555  28.583  57.507  0.00  0.00     0.019 A 
ATOM      4  C   UNL d   1      45.527  27.250  57.836  0.00  0.00     0.099 A 
ATOM      5  C   UNL d   1      44.644  27.991  56.935  0.00  0.00     0.003 A 
ATOM      6  C   UNL d   1      45.151  27.292  57.103  0.00  0.00     0.019 A 
ENDROOT
BRANCH   2   7
ATOM      7  C   UNL d   1      44.883  29.095  58.849  0.00  0.00     0.018 A 
ATOM      8  C   UNL d   1      44.454  28.971  59.543  0.00  0.00     0.002 A 
ATOM      9  C   UNL d   1      44.369  29.540  60.093  0.00  0.00     0.007 A 
ATOM     10  C   UNL d   1      44.703  30.302  60.017  0.00  0.00     0.035 A 
ATOM     11  C   UNL d   1      45.168  30.452  59.273  0.00  0.00     0.007 A 
ATOM     12 BR   UNL d   1      44.618  30.871  60.567  0.00  0.00    -0.049 Br
ATOM     13  C   UNL d   1      45.253  29.884  58.723  0.00  0.00     0.002 A 
ENDBRANCH   2   7
BRANCH   6  14
ATOM     14  C   UNL d   1      45.238  26.710  56.539  0.00  0.00     0.002 C 
BRANCH  14  15
ATOM     15  C   UNL d   1      44.807  26.024  56.577  0.00  0.00     0.000 C 
BRANCH  15  16
ATOM     16  C   UNL d   1      44.812  25.491  55.961  0.00  0.00     0.000 C 
ATOM     17  C   UNL d   1      44.601  24.731  56.091  0.00  0.00     0.000 C 
ENDBRANCH  15  16
ENDBRANCH  14  15
ENDBRANCH   6  14
TORSDOF 4
ENDMDL
