MODEL 1
REMARK VINA RESULT:      -7.9      0.000      0.000
REMARK  6 active torsions:
REMARK  status: ('A' for Active; 'I' for Inactive)
REMARK    1  A    between atoms: C_9  and  C_2 
REMARK    2  A    between atoms: C_13  and  C_8 
REMARK       I    between atoms: N_10  and  C_9 
REMARK    3  A    between atoms: C_15  and  N_10 
REMARK    4  A    between atoms: N_14  and  C_12 
REMARK    5  A    between atoms: C_21  and  N_14 
REMARK    6  A    between atoms: C_22  and  N_14 
ROOT
ATOM      1  C   UNL d   1      48.312  35.338  52.362  0.00  0.00     0.180 A 
ATOM      2  C   UNL d   1      49.498  34.755  52.232  0.00  0.00     0.106 A 
ATOM      3  N   UNL d   1      48.343  34.986  51.607  0.00  0.00    -0.283 N 
ATOM      4  S   UNL d   1      49.028  35.188  52.734  0.00  0.00    -0.044 SA
ATOM      5  N   UNL d   1      47.577  35.696  52.437  0.00  0.00    -0.221 NA
ATOM      6  C   UNL d   1      49.078  34.627  51.531  0.00  0.00     0.077 A 
ATOM      7  C   UNL d   1      47.627  35.136  51.234  0.00  0.00     0.101 A 
ATOM      8  C   UNL d   1      47.157  35.576  51.752  0.00  0.00     0.101 A 
ATOM      9  C   UNL d   1      49.345  34.208  50.859  0.00  0.00     0.020 C 
ENDROOT
BRANCH   2  10
ATOM     10  C   UNL d   1      50.270  34.490  52.403  0.00  0.00     0.287 C 
ATOM     11  N   UNL d   1      50.496  34.364  53.187  0.00  0.00    -0.208 NA
ATOM     12  O   UNL d   1      50.793  34.359  51.790  0.00  0.00    -0.265 OA
BRANCH  11  13
ATOM     13  C   UNL d   1      51.260  34.102  53.347  0.00  0.00     0.085 A 
ATOM     14  C   UNL d   1      51.888  34.644  53.405  0.00  0.00     0.021 A 
ATOM     15  C   UNL d   1      52.650  34.389  53.564  0.00  0.00     0.019 A 
ATOM     16  C   UNL d   1      52.784  33.576  53.667  0.00  0.00     0.064 A 
ATOM     17  C   UNL d   1      52.169  33.030  53.612  0.00  0.00     0.019 A 
ATOM     18  C   UNL d   1      51.412  33.299  53.453  0.00  0.00     0.021 A 
BRANCH  16  19
ATOM     19  N   UNL d   1      53.543  33.298  53.828  0.00  0.00    -0.304 N 
BRANCH  19  20
ATOM     20  C   UNL d   1      53.833  32.650  53.417  0.00  0.00     0.080 C 
ATOM     21  C   UNL d   1      54.638  32.604  53.238  0.00  0.00     0.021 C 
ENDBRANCH  19  20
BRANCH  19  22
ATOM     22  C   UNL d   1      54.011  33.662  54.396  0.00  0.00     0.080 C 
ATOM     23  C   UNL d   1      54.363  33.220  54.997  0.00  0.00     0.021 C 
ENDBRANCH  19  22
ENDBRANCH  16  19
ENDBRANCH  11  13
ENDBRANCH   2  10
BRANCH   8  24
ATOM     24  C   UNL d   1      46.400  35.858  51.636  0.00  0.00     0.019 A 
ATOM     25  C   UNL d   1      45.944  35.593  51.005  0.00  0.00     0.002 A 
ATOM     26  C   UNL d   1      45.179  35.879  50.887  0.00  0.00     0.000 A 
ATOM     27  C   UNL d   1      44.860  36.444  51.412  0.00  0.00     0.000 A 
ATOM     28  C   UNL d   1      45.316  36.709  52.043  0.00  0.00     0.000 A 
ATOM     29  C   UNL d   1      46.085  36.422  52.161  0.00  0.00     0.002 A 
ENDBRANCH   8  24
TORSDOF 6
ENDMDL
MODEL 2
REMARK VINA RESULT:      -6.2     10.494     11.188
REMARK  6 active torsions:
REMARK  status: ('A' for Active; 'I' for Inactive)
REMARK    1  A    between atoms: C_9  and  C_2 
REMARK    2  A    between atoms: C_13  and  C_8 
REMARK       I    between atoms: N_10  and  C_9 
REMARK    3  A    between atoms: C_15  and  N_10 
REMARK    4  A    between atoms: N_14  and  C_12 
REMARK    5  A    between atoms: C_21  and  N_14 
REMARK    6  A    between atoms: C_22  and  N_14 
ROOT
ATOM      1  C   UNL d   1      44.857  28.216  58.836  0.00  0.00     0.180 A 
ATOM      2  C   UNL d   1      44.999  27.562  57.689  0.00  0.00     0.106 A 
ATOM      3  N   UNL d   1      44.930  28.780  58.228  0.00  0.00    -0.283 N 
ATOM      4  S   UNL d   1      44.901  27.473  58.491  0.00  0.00    -0.044 SA
ATOM      5  N   UNL d   1      44.769  28.625  59.543  0.00  0.00    -0.221 NA
ATOM      6  C   UNL d   1      45.018  28.372  57.521  0.00  0.00     0.077 A 
ATOM      7  C   UNL d   1      44.886  29.524  58.573  0.00  0.00     0.101 A 
ATOM      8  C   UNL d   1      44.786  29.422  59.387  0.00  0.00     0.101 A 
ATOM      9  C   UNL d   1      45.110  28.723  56.767  0.00  0.00     0.020 C 
ENDROOT
BRANCH   2  10
ATOM     10  C   UNL d   1      45.068  26.940  57.140  0.00  0.00     0.287 C 
ATOM     11  N   UNL d   1      44.466  26.380  57.077  0.00  0.00    -0.208 NA
ATOM     12  O   UNL d   1      45.734  26.893  56.669  0.00  0.00    -0.265 OA
BRANCH  11  13
ATOM     13  C   UNL d   1      44.542  25.767  56.531  0.00  0.00     0.085 A 
ATOM     14  C   UNL d   1      44.315  25.878  55.739  0.00  0.00     0.021 A 
ATOM     15  C   UNL d   1      44.389  25.272  55.193  0.00  0.00     0.019 A 
ATOM     16  C   UNL d   1      44.695  24.543  55.445  0.00  0.00     0.064 A 
ATOM     17  C   UNL d   1      44.923  24.422  56.228  0.00  0.00     0.019 A 
ATOM     18  C   UNL d   1      44.844  25.037  56.764  0.00  0.00     0.021 A 
BRANCH  16  19
ATOM     19  N   UNL d   1      44.778  23.920  54.912  0.00  0.00    -0.304 N 
BRANCH  19  20
ATOM     20  C   UNL d   1      45.118  23.216  55.160  0.00  0.00     0.080 C 
ATOM     21  C   UNL d   1      44.844  22.499  54.859  0.00  0.00     0.021 C 
ENDBRANCH  19  20
BRANCH  19  22
ATOM     22  C   UNL d   1      44.523  23.997  54.135  0.00  0.00     0.080 C 
ATOM     23  C   UNL d   1      44.909  23.600  53.525  0.00  0.00     0.021 C 
ENDBRANCH  19  22
ENDBRANCH  16  19
ENDBRANCH  11  13
ENDBRANCH   2  10
BRANCH   8  24
ATOM     24  C   UNL d   1      44.714  29.993  59.965  0.00  0.00     0.019 A 
ATOM     25  C   UNL d   1      44.525  30.770  59.770  0.00  0.00     0.002 A 
ATOM     26  C   UNL d   1      44.452  31.347  60.355  0.00  0.00     0.000 A 
ATOM     27  C   UNL d   1      44.570  31.145  61.156  0.00  0.00     0.000 A 
ATOM     28  C   UNL d   1      44.759  30.369  61.352  0.00  0.00     0.000 A 
ATOM     29  C   UNL d   1      44.832  29.789  60.764  0.00  0.00     0.002 A 
ENDBRANCH   8  24
TORSDOF 6
ENDMDL
MODEL 3
REMARK VINA RESULT:      -5.1      1.015      6.596
REMARK  6 active torsions:
REMARK  status: ('A' for Active; 'I' for Inactive)
REMARK    1  A    between atoms: C_9  and  C_2 
REMARK    2  A    between atoms: C_13  and  C_8 
REMARK       I    between atoms: N_10  and  C_9 
REMARK    3  A    between atoms: C_15  and  N_10 
REMARK    4  A    between atoms: N_14  and  C_12 
REMARK    5  A    between atoms: C_21  and  N_14 
REMARK    6  A    between atoms: C_22  and  N_14 
ROOT
ATOM      1  C   UNL d   1      51.224  33.730  53.340  0.00  0.00     0.180 A 
ATOM      2  C   UNL d   1      50.281  34.425  52.714  0.00  0.00     0.106 A 
ATOM      3  N   UNL d   1      51.471  33.845  52.553  0.00  0.00    -0.283 N 
ATOM      4  S   UNL d   1      50.491  34.092  53.425  0.00  0.00    -0.044 SA
ATOM      5  N   UNL d   1      51.810  33.301  53.723  0.00  0.00    -0.221 NA
ATOM      6  C   UNL d   1      50.885  34.275  52.170  0.00  0.00     0.077 A 
ATOM      7  C   UNL d   1      52.204  33.484  52.468  0.00  0.00     0.101 A 
ATOM      8  C   UNL d   1      52.408  33.149  53.196  0.00  0.00     0.101 A 
ATOM      9  C   UNL d   1      50.906  34.514  51.369  0.00  0.00     0.020 C 
ENDROOT
BRANCH   2  10
ATOM     10  C   UNL d   1      49.575  34.843  52.568  0.00  0.00     0.287 C 
ATOM     11  N   UNL d   1      48.962  34.481  52.152  0.00  0.00    -0.208 NA
ATOM     12  O   UNL d   1      49.501  35.610  52.840  0.00  0.00    -0.265 OA
BRANCH  11  13
ATOM     13  C   UNL d   1      48.267  34.902  52.013  0.00  0.00     0.085 A 
ATOM     14  C   UNL d   1      47.927  35.366  52.613  0.00  0.00     0.021 A 
ATOM     15  C   UNL d   1      47.237  35.786  52.479  0.00  0.00     0.019 A 
ATOM     16  C   UNL d   1      46.883  35.740  51.730  0.00  0.00     0.064 A 
ATOM     17  C   UNL d   1      47.211  35.283  51.127  0.00  0.00     0.019 A 
ATOM     18  C   UNL d   1      47.901  34.868  51.275  0.00  0.00     0.021 A 
BRANCH  16  19
ATOM     19  N   UNL d   1      46.188  36.155  51.573  0.00  0.00    -0.304 N 
BRANCH  19  20
ATOM     20  C   UNL d   1      45.915  36.709  52.113  0.00  0.00     0.080 C 
ATOM     21  C   UNL d   1      45.304  36.511  52.632  0.00  0.00     0.021 C 
ENDBRANCH  19  20
BRANCH  19  22
ATOM     22  C   UNL d   1      45.766  36.019  50.882  0.00  0.00     0.080 C 
ATOM     23  C   UNL d   1      44.990  36.288  50.803  0.00  0.00     0.021 C 
ENDBRANCH  19  22
ENDBRANCH  16  19
ENDBRANCH  11  13
ENDBRANCH   2  10
BRANCH   8  24
ATOM     24  C   UNL d   1      53.082  32.732  53.391  0.00  0.00     0.019 A 
ATOM     25  C   UNL d   1      53.109  31.913  53.312  0.00  0.00     0.002 A 
ATOM     26  C   UNL d   1      53.790  31.492  53.509  0.00  0.00     0.000 A 
ATOM     27  C   UNL d   1      54.463  31.896  53.793  0.00  0.00     0.000 A 
ATOM     28  C   UNL d   1      54.436  32.715  53.873  0.00  0.00     0.000 A 
ATOM     29  C   UNL d   1      53.751  33.138  53.674  0.00  0.00     0.002 A 
ENDBRANCH   8  24
TORSDOF 6
ENDMDL
