MODEL 1
REMARK VINA RESULT:      -7.8      0.000      0.000
REMARK  5 active torsions:
REMARK  status: ('A' for Active; 'I' for Inactive)
REMARK    1  A    between atoms: C_6  and  C_1 
REMARK    2  A    between atoms: C_7  and  C_2 
REMARK    3  A    between atoms: O_12  and  C_6 
REMARK    4  A    between atoms: O_14  and  C_11 
REMARK    5  A    between atoms: C_17  and  O_12 
ROOT
ATOM      1  C   UNL d   1     -48.127  13.149  22.687  0.00  0.00     0.088 A 
ATOM      2  C   UNL d   1     -48.584  12.519  22.961  0.00  0.00     0.105 A 
ATOM      3  C   UNL d   1     -47.331  12.964  22.776  0.00  0.00     0.032 A 
ATOM      4  O   UNL d   1     -48.054  11.934  23.225  0.00  0.00    -0.307 OA
ATOM      5  C   UNL d   1     -47.286  12.212  23.109  0.00  0.00     0.100 A 
ATOM      6  C   UNL d   1     -46.650  13.377  22.599  0.00  0.00     0.026 A 
ATOM      7  C   UNL d   1     -46.545  11.875  23.264  0.00  0.00     0.027 A 
ATOM      8  C   UNL d   1     -45.909  13.040  22.755  0.00  0.00     0.094 A 
ATOM      9  C   UNL d   1     -45.863  12.288  23.088  0.00  0.00     0.026 A 
ENDROOT
BRANCH   2  10
ATOM     10  C   UNL d   1     -49.404  12.462  22.979  0.00  0.00     0.023 A 
ATOM     11  C   UNL d   1     -49.825  12.620  23.686  0.00  0.00     0.002 A 
ATOM     12  C   UNL d   1     -50.659  12.559  23.691  0.00  0.00     0.000 A 
ATOM     13  C   UNL d   1     -51.063  12.340  22.988  0.00  0.00     0.000 A 
ATOM     14  C   UNL d   1     -50.638  12.189  22.305  0.00  0.00     0.000 A 
ATOM     15  C   UNL d   1     -49.819  12.250  22.301  0.00  0.00     0.002 A 
ENDBRANCH   2  10
BRANCH   1  16
ATOM     16  C   UNL d   1     -48.745  13.654  22.458  0.00  0.00     0.302 C 
ATOM     17  O   UNL d   1     -49.186  13.487  21.787  0.00  0.00    -0.259 OA
BRANCH  16  18
ATOM     18  O   UNL d   1     -48.926  14.329  22.903  0.00  0.00    -0.271 OA
BRANCH  18  19
ATOM     19  C   UNL d   1     -48.917  15.087  22.554  0.00  0.00     0.126 C 
ATOM     20  C   UNL d   1     -49.231  15.738  22.967  0.00  0.00     0.029 C 
ENDBRANCH  18  19
ENDBRANCH  16  18
ENDBRANCH   1  16
BRANCH   8  21
ATOM     21  O   UNL d   1     -45.219  13.466  22.573  0.00  0.00    -0.328 OA
ATOM     22  C   UNL d   1     -44.763  13.260  21.895  0.00  0.00     0.181 C 
ENDBRANCH   8  21
TORSDOF 5
ENDMDL
MODEL 2
REMARK VINA RESULT:      -7.8      1.102      2.221
REMARK  5 active torsions:
REMARK  status: ('A' for Active; 'I' for Inactive)
REMARK    1  A    between atoms: C_6  and  C_1 
REMARK    2  A    between atoms: C_7  and  C_2 
REMARK    3  A    between atoms: O_12  and  C_6 
REMARK    4  A    between atoms: O_14  and  C_11 
REMARK    5  A    between atoms: C_17  and  O_12 
ROOT
ATOM      1  C   UNL d   1     -48.345  13.640  22.681  0.00  0.00     0.088 A 
ATOM      2  C   UNL d   1     -48.665  14.392  22.798  0.00  0.00     0.105 A 
ATOM      3  C   UNL d   1     -47.525  13.695  22.673  0.00  0.00     0.032 A 
ATOM      4  O   UNL d   1     -48.024  14.919  22.861  0.00  0.00    -0.307 OA
ATOM      5  C   UNL d   1     -47.327  14.485  22.784  0.00  0.00     0.100 A 
ATOM      6  C   UNL d   1     -46.941  13.133  22.579  0.00  0.00     0.026 A 
ATOM      7  C   UNL d   1     -46.529  14.710  22.800  0.00  0.00     0.027 A 
ATOM      8  C   UNL d   1     -46.143  13.358  22.595  0.00  0.00     0.094 A 
ATOM      9  C   UNL d   1     -45.944  14.149  22.706  0.00  0.00     0.026 A 
ENDROOT
BRANCH   2  10
ATOM     10  C   UNL d   1     -49.459  14.600  22.844  0.00  0.00     0.023 A 
ATOM     11  C   UNL d   1     -49.914  14.695  22.147  0.00  0.00     0.002 A 
ATOM     12  C   UNL d   1     -50.721  14.907  22.208  0.00  0.00     0.000 A 
ATOM     13  C   UNL d   1     -51.064  15.020  22.967  0.00  0.00     0.000 A 
ATOM     14  C   UNL d   1     -50.607  14.924  23.638  0.00  0.00     0.000 A 
ATOM     15  C   UNL d   1     -49.814  14.716  23.577  0.00  0.00     0.002 A 
ENDBRANCH   2  10
BRANCH   1  16
ATOM     16  C   UNL d   1     -49.057  13.215  22.634  0.00  0.00     0.302 C 
ATOM     17  O   UNL d   1     -49.545  13.300  21.981  0.00  0.00    -0.259 OA
BRANCH  16  18
ATOM     18  O   UNL d   1     -49.283  12.700  23.243  0.00  0.00    -0.271 OA
BRANCH  18  19
ATOM     19  C   UNL d   1     -49.457  11.900  23.085  0.00  0.00     0.126 C 
ATOM     20  C   UNL d   1     -49.724  11.404  23.698  0.00  0.00     0.029 C 
ENDBRANCH  18  19
ENDBRANCH  16  18
ENDBRANCH   1  16
BRANCH   8  21
ATOM     21  O   UNL d   1     -45.553  12.781  22.499  0.00  0.00    -0.328 OA
ATOM     22  C   UNL d   1     -44.919  12.913  21.961  0.00  0.00     0.181 C 
ENDBRANCH   8  21
TORSDOF 5
ENDMDL
MODEL 3
REMARK VINA RESULT:      -6.4      1.366      3.892
REMARK  5 active torsions:
REMARK  status: ('A' for Active; 'I' for Inactive)
REMARK    1  A    between atoms: C_6  and  C_1 
REMARK    2  A    between atoms: C_7  and  C_2 
REMARK    3  A    between atoms: O_12  and  C_6 
REMARK    4  A    between atoms: O_14  and  C_11 
REMARK    5  A    between atoms: C_17  and  O_12 
ROOT
ATOM      1  C   UNL d   1     -48.157  13.642  22.461  0.00  0.00     0.088 A 
ATOM      2  C   UNL d   1     -47.399  13.913  22.643  0.00  0.00     0.105 A 
ATOM      3  C   UNL d   1     -48.685  14.269  22.506  0.00  0.00     0.032 A 
ATOM      4  O   UNL d   1     -47.466  14.727  22.804  0.00  0.00    -0.307 OA
ATOM      5  C   UNL d   1     -48.258  14.940  22.718  0.00  0.00     0.100 A 
ATOM      6  C   UNL d   1     -49.491  14.317  22.384  0.00  0.00     0.026 A 
ATOM      7  C   UNL d   1     -48.650  15.666  22.807  0.00  0.00     0.027 A 
ATOM      8  C   UNL d   1     -49.882  15.042  22.472  0.00  0.00     0.094 A 
ATOM      9  C   UNL d   1     -49.455  15.713  22.684  0.00  0.00     0.026 A 
ENDROOT
BRANCH   2  10
ATOM     10  C   UNL d   1     -46.701  13.478  22.666  0.00  0.00     0.023 A 
ATOM     11  C   UNL d   1     -46.480  13.069  23.363  0.00  0.00     0.002 A 
ATOM     12  C   UNL d   1     -45.768  12.631  23.373  0.00  0.00     0.000 A 
ATOM     13  C   UNL d   1     -45.284  12.607  22.687  0.00  0.00     0.000 A 
ATOM     14  C   UNL d   1     -45.514  13.012  22.014  0.00  0.00     0.000 A 
ATOM     15  C   UNL d   1     -46.214  13.442  22.004  0.00  0.00     0.002 A 
ENDBRANCH   2  10
BRANCH   1  16
ATOM     16  C   UNL d   1     -47.969  12.845  22.324  0.00  0.00     0.302 C 
ATOM     17  O   UNL d   1     -47.563  12.628  21.645  0.00  0.00    -0.259 OA
BRANCH  16  18
ATOM     18  O   UNL d   1     -48.186  12.260  22.869  0.00  0.00    -0.271 OA
BRANCH  18  19
ATOM     19  C   UNL d   1     -48.686  11.631  22.645  0.00  0.00     0.126 C 
ATOM     20  C   UNL d   1     -48.979  11.108  23.223  0.00  0.00     0.029 C 
ENDBRANCH  18  19
ENDBRANCH  16  18
ENDBRANCH   1  16
BRANCH   8  21
ATOM     21  O   UNL d   1     -50.702  15.083  22.346  0.00  0.00    -0.328 OA
ATOM     22  C   UNL d   1     -51.063  14.596  21.761  0.00  0.00     0.181 C 
ENDBRANCH   8  21
TORSDOF 5
ENDMDL
MODEL 4
REMARK VINA RESULT:      -6.2      8.925      9.746
REMARK  5 active torsions:
REMARK  status: ('A' for Active; 'I' for Inactive)
REMARK    1  A    between atoms: C_6  and  C_1 
REMARK    2  A    between atoms: C_7  and  C_2 
REMARK    3  A    between atoms: O_12  and  C_6 
REMARK    4  A    between atoms: O_14  and  C_11 
REMARK    5  A    between atoms: C_17  and  O_12 
ROOT
ATOM      1  C   UNL d   1     -39.993  14.509  19.094  0.00  0.00     0.088 A 
ATOM      2  C   UNL d   1     -40.230  15.238  18.789  0.00  0.00     0.105 A 
ATOM      3  C   UNL d   1     -39.908  14.573  19.909  0.00  0.00     0.032 A 
ATOM      4  O   UNL d   1     -40.292  15.761  19.434  0.00  0.00    -0.307 OA
ATOM      5  C   UNL d   1     -40.093  15.347  20.119  0.00  0.00     0.100 A 
ATOM      6  C   UNL d   1     -39.688  14.034  20.480  0.00  0.00     0.026 A 
ATOM      7  C   UNL d   1     -40.056  15.577  20.915  0.00  0.00     0.027 A 
ATOM      8  C   UNL d   1     -39.651  14.264  21.276  0.00  0.00     0.094 A 
ATOM      9  C   UNL d   1     -39.836  15.037  21.486  0.00  0.00     0.026 A 
ENDROOT
BRANCH   2  10
ATOM     10  C   UNL d   1     -40.382  15.430  18.004  0.00  0.00     0.023 A 
ATOM     11  C   UNL d   1     -41.149  15.327  17.682  0.00  0.00     0.002 A 
ATOM     12  C   UNL d   1     -41.289  15.526  16.882  0.00  0.00     0.000 A 
ATOM     13  C   UNL d   1     -40.661  15.827  16.412  0.00  0.00     0.000 A 
ATOM     14  C   UNL d   1     -39.918  15.922  16.740  0.00  0.00     0.000 A 
ATOM     15  C   UNL d   1     -39.780  15.726  17.527  0.00  0.00     0.002 A 
ENDBRANCH   2  10
BRANCH   1  16
ATOM     16  C   UNL d   1     -39.966  14.085  18.381  0.00  0.00     0.302 C 
ATOM     17  O   UNL d   1     -40.662  13.880  17.997  0.00  0.00    -0.259 OA
BRANCH  16  18
ATOM     18  O   UNL d   1     -39.240  13.863  18.048  0.00  0.00    -0.271 OA
BRANCH  18  19
ATOM     19  C   UNL d   1     -39.076  13.065  17.872  0.00  0.00     0.126 C 
ATOM     20  C   UNL d   1     -38.337  12.854  17.552  0.00  0.00     0.029 C 
ENDBRANCH  18  19
ENDBRANCH  16  18
ENDBRANCH   1  16
BRANCH   8  21
ATOM     21  O   UNL d   1     -39.426  13.709  21.852  0.00  0.00    -0.328 OA
ATOM     22  C   UNL d   1     -38.727  13.831  22.305  0.00  0.00     0.181 C 
ENDBRANCH   8  21
TORSDOF 5
ENDMDL
MODEL 5
REMARK VINA RESULT:      -5.8      7.700     10.164
REMARK  5 active torsions:
REMARK  status: ('A' for Active; 'I' for Inactive)
REMARK    1  A    between atoms: C_6  and  C_1 
REMARK    2  A    between atoms: C_7  and  C_2 
REMARK    3  A    between atoms: O_12  and  C_6 
REMARK    4  A    between atoms: O_14  and  C_11 
REMARK    5  A    between atoms: C_17  and  O_12 
ROOT
ATOM      1  C   UNL d   1     -39.901  14.561  18.541  0.00  0.00     0.088 A 
ATOM      2  C   UNL d   1     -39.116  14.345  18.407  0.00  0.00     0.105 A 
ATOM      3  C   UNL d   1     -40.014  14.678  19.346  0.00  0.00     0.032 A 
ATOM      4  O   UNL d   1     -38.740  14.331  19.150  0.00  0.00    -0.307 OA
ATOM      5  C   UNL d   1     -39.296  14.536  19.723  0.00  0.00     0.100 A 
ATOM      6  C   UNL d   1     -40.671  14.893  19.781  0.00  0.00     0.026 A 
ATOM      7  C   UNL d   1     -39.242  14.612  20.546  0.00  0.00     0.027 A 
ATOM      8  C   UNL d   1     -40.616  14.970  20.605  0.00  0.00     0.094 A 
ATOM      9  C   UNL d   1     -39.898  14.827  20.981  0.00  0.00     0.026 A 
ENDROOT
BRANCH   2  10
ATOM     10  C   UNL d   1     -38.756  14.175  17.688  0.00  0.00     0.023 A 
ATOM     11  C   UNL d   1     -38.356  14.775  17.260  0.00  0.00     0.002 A 
ATOM     12  C   UNL d   1     -37.995  14.588  16.530  0.00  0.00     0.000 A 
ATOM     13  C   UNL d   1     -38.038  13.803  16.234  0.00  0.00     0.000 A 
ATOM     14  C   UNL d   1     -38.432  13.228  16.662  0.00  0.00     0.000 A 
ATOM     15  C   UNL d   1     -38.787  13.412  17.380  0.00  0.00     0.002 A 
ENDBRANCH   2  10
BRANCH   1  16
ATOM     16  C   UNL d   1     -40.165  14.542  17.754  0.00  0.00     0.302 C 
ATOM     17  O   UNL d   1     -40.149  13.840  17.330  0.00  0.00    -0.259 OA
BRANCH  16  18
ATOM     18  O   UNL d   1     -40.448  15.229  17.387  0.00  0.00    -0.271 OA
BRANCH  18  19
ATOM     19  C   UNL d   1     -41.151  15.218  16.940  0.00  0.00     0.126 C 
ATOM     20  C   UNL d   1     -41.442  15.922  16.604  0.00  0.00     0.029 C 
ENDBRANCH  18  19
ENDBRANCH  16  18
ENDBRANCH   1  16
BRANCH   8  21
ATOM     21  O   UNL d   1     -41.288  15.189  21.041  0.00  0.00    -0.328 OA
ATOM     22  C   UNL d   1     -41.672  15.922  20.883  0.00  0.00     0.181 C 
ENDBRANCH   8  21
TORSDOF 5
ENDMDL
MODEL 6
REMARK VINA RESULT:      -5.6      8.223     10.025
REMARK  5 active torsions:
REMARK  status: ('A' for Active; 'I' for Inactive)
REMARK    1  A    between atoms: C_6  and  C_1 
REMARK    2  A    between atoms: C_7  and  C_2 
REMARK    3  A    between atoms: O_12  and  C_6 
REMARK    4  A    between atoms: O_14  and  C_11 
REMARK    5  A    between atoms: C_17  and  O_12 
ROOT
ATOM      1  C   UNL d   1     -39.463  14.559  18.224  0.00  0.00     0.088 A 
ATOM      2  C   UNL d   1     -39.548  14.319  19.010  0.00  0.00     0.105 A 
ATOM      3  C   UNL d   1     -38.989  14.018  17.828  0.00  0.00     0.032 A 
ATOM      4  O   UNL d   1     -39.115  13.614  19.094  0.00  0.00    -0.307 OA
ATOM      5  C   UNL d   1     -38.773  13.433  18.366  0.00  0.00     0.100 A 
ATOM      6  C   UNL d   1     -38.728  13.982  17.055  0.00  0.00     0.026 A 
ATOM      7  C   UNL d   1     -38.289  12.807  18.120  0.00  0.00     0.027 A 
ATOM      8  C   UNL d   1     -38.244  13.355  16.809  0.00  0.00     0.094 A 
ATOM      9  C   UNL d   1     -38.029  12.771  17.347  0.00  0.00     0.026 A 
ENDROOT
BRANCH   2  10
ATOM     10  C   UNL d   1     -39.974  14.692  19.606  0.00  0.00     0.023 A 
ATOM     11  C   UNL d   1     -39.652  15.353  20.008  0.00  0.00     0.002 A 
ATOM     12  C   UNL d   1     -40.096  15.723  20.612  0.00  0.00     0.000 A 
ATOM     13  C   UNL d   1     -40.857  15.427  20.810  0.00  0.00     0.000 A 
ATOM     14  C   UNL d   1     -41.157  14.781  20.409  0.00  0.00     0.000 A 
ATOM     15  C   UNL d   1     -40.721  14.417  19.814  0.00  0.00     0.002 A 
ENDBRANCH   2  10
BRANCH   1  16
ATOM     16  C   UNL d   1     -39.923  15.249  18.260  0.00  0.00     0.302 C 
ATOM     17  O   UNL d   1     -39.653  15.904  18.674  0.00  0.00    -0.259 OA
BRANCH  16  18
ATOM     18  O   UNL d   1     -40.659  15.286  17.880  0.00  0.00    -0.271 OA
BRANCH  18  19
ATOM     19  C   UNL d   1     -40.847  15.921  17.374  0.00  0.00     0.126 C 
ATOM     20  C   UNL d   1     -41.448  15.833  16.804  0.00  0.00     0.029 C 
ENDBRANCH  18  19
ENDBRANCH  16  18
ENDBRANCH   1  16
BRANCH   8  21
ATOM     21  O   UNL d   1     -37.982  13.325  16.021  0.00  0.00    -0.328 OA
ATOM     22  C   UNL d   1     -38.120  13.977  15.506  0.00  0.00     0.181 C 
ENDBRANCH   8  21
TORSDOF 5
ENDMDL
MODEL 7
REMARK VINA RESULT:      -5.6      6.655      9.258
REMARK  5 active torsions:
REMARK  status: ('A' for Active; 'I' for Inactive)
REMARK    1  A    between atoms: C_6  and  C_1 
REMARK    2  A    between atoms: C_7  and  C_2 
REMARK    3  A    between atoms: O_12  and  C_6 
REMARK    4  A    between atoms: O_14  and  C_11 
REMARK    5  A    between atoms: C_17  and  O_12 
ROOT
ATOM      1  C   UNL d   1     -40.308  14.735  19.941  0.00  0.00     0.088 A 
ATOM      2  C   UNL d   1     -39.554  14.744  20.275  0.00  0.00     0.105 A 
ATOM      3  C   UNL d   1     -40.242  14.781  19.123  0.00  0.00     0.032 A 
ATOM      4  O   UNL d   1     -39.012  14.798  19.644  0.00  0.00    -0.307 OA
ATOM      5  C   UNL d   1     -39.441  14.820  18.940  0.00  0.00     0.100 A 
ATOM      6  C   UNL d   1     -40.801  14.792  18.529  0.00  0.00     0.026 A 
ATOM      7  C   UNL d   1     -39.203  14.870  18.147  0.00  0.00     0.027 A 
ATOM      8  C   UNL d   1     -40.563  14.843  17.736  0.00  0.00     0.094 A 
ATOM      9  C   UNL d   1     -39.762  14.882  17.553  0.00  0.00     0.026 A 
ENDROOT
BRANCH   2  10
ATOM     10  C   UNL d   1     -39.355  14.709  21.071  0.00  0.00     0.023 A 
ATOM     11  C   UNL d   1     -39.356  15.404  21.540  0.00  0.00     0.002 A 
ATOM     12  C   UNL d   1     -39.152  15.354  22.350  0.00  0.00     0.000 A 
ATOM     13  C   UNL d   1     -38.949  14.610  22.682  0.00  0.00     0.000 A 
ATOM     14  C   UNL d   1     -38.952  13.941  22.212  0.00  0.00     0.000 A 
ATOM     15  C   UNL d   1     -39.153  13.990  21.416  0.00  0.00     0.002 A 
ENDBRANCH   2  10
BRANCH   1  16
ATOM     16  C   UNL d   1     -40.748  14.681  20.643  0.00  0.00     0.302 C 
ATOM     17  O   UNL d   1     -40.794  15.324  21.151  0.00  0.00    -0.259 OA
BRANCH  16  18
ATOM     18  O   UNL d   1     -41.144  13.981  20.842  0.00  0.00    -0.271 OA
BRANCH  18  19
ATOM     19  C   UNL d   1     -41.964  13.981  20.994  0.00  0.00     0.126 C 
ATOM     20  C   UNL d   1     -42.349  13.270  21.192  0.00  0.00     0.029 C 
ENDBRANCH  18  19
ENDBRANCH  16  18
ENDBRANCH   1  16
BRANCH   8  21
ATOM     21  O   UNL d   1     -41.138  14.854  17.136  0.00  0.00    -0.328 OA
ATOM     22  C   UNL d   1     -41.240  15.544  16.664  0.00  0.00     0.181 C 
ENDBRANCH   8  21
TORSDOF 5
ENDMDL
MODEL 8
REMARK VINA RESULT:      -5.6      7.945      9.963
REMARK  5 active torsions:
REMARK  status: ('A' for Active; 'I' for Inactive)
REMARK    1  A    between atoms: C_6  and  C_1 
REMARK    2  A    between atoms: C_7  and  C_2 
REMARK    3  A    between atoms: O_12  and  C_6 
REMARK    4  A    between atoms: O_14  and  C_11 
REMARK    5  A    between atoms: C_17  and  O_12 
ROOT
ATOM      1  C   UNL d   1     -39.500  14.962  18.751  0.00  0.00     0.088 A 
ATOM      2  C   UNL d   1     -40.286  15.105  18.955  0.00  0.00     0.105 A 
ATOM      3  C   UNL d   1     -39.431  14.957  17.932  0.00  0.00     0.032 A 
ATOM      4  O   UNL d   1     -40.709  15.190  18.243  0.00  0.00    -0.307 OA
ATOM      5  C   UNL d   1     -40.178  15.098  17.618  0.00  0.00     0.100 A 
ATOM      6  C   UNL d   1     -38.792  14.844  17.437  0.00  0.00     0.026 A 
ATOM      7  C   UNL d   1     -40.280  15.126  16.796  0.00  0.00     0.027 A 
ATOM      8  C   UNL d   1     -38.894  14.872  16.615  0.00  0.00     0.094 A 
ATOM      9  C   UNL d   1     -39.642  15.013  16.301  0.00  0.00     0.026 A 
ENDROOT
BRANCH   2  10
ATOM     10  C   UNL d   1     -40.608  15.157  19.710  0.00  0.00     0.023 A 
ATOM     11  C   UNL d   1     -40.595  15.883  20.128  0.00  0.00     0.002 A 
ATOM     12  C   UNL d   1     -40.927  15.922  20.895  0.00  0.00     0.000 A 
ATOM     13  C   UNL d   1     -41.268  15.234  21.236  0.00  0.00     0.000 A 
ATOM     14  C   UNL d   1     -41.273  14.533  20.815  0.00  0.00     0.000 A 
ATOM     15  C   UNL d   1     -40.947  14.494  20.062  0.00  0.00     0.002 A 
ENDBRANCH   2  10
BRANCH   1  16
ATOM     16  C   UNL d   1     -39.187  14.896  19.517  0.00  0.00     0.302 C 
ATOM     17  O   UNL d   1     -39.113  15.562  19.990  0.00  0.00    -0.259 OA
BRANCH  16  18
ATOM     18  O   UNL d   1     -38.948  14.161  19.815  0.00  0.00    -0.271 OA
BRANCH  18  19
ATOM     19  C   UNL d   1     -38.178  14.050  20.115  0.00  0.00     0.126 C 
ATOM     20  C   UNL d   1     -37.945  13.301  20.394  0.00  0.00     0.029 C 
ENDBRANCH  18  19
ENDBRANCH  16  18
ENDBRANCH   1  16
BRANCH   8  21
ATOM     21  O   UNL d   1     -38.239  14.756  16.117  0.00  0.00    -0.328 OA
ATOM     22  C   UNL d   1     -38.160  14.037  15.685  0.00  0.00     0.181 C 
ENDBRANCH   8  21
TORSDOF 5
ENDMDL
MODEL 9
REMARK VINA RESULT:      -5.4      1.009      3.484
REMARK  5 active torsions:
REMARK  status: ('A' for Active; 'I' for Inactive)
REMARK    1  A    between atoms: C_6  and  C_1 
REMARK    2  A    between atoms: C_7  and  C_2 
REMARK    3  A    between atoms: O_12  and  C_6 
REMARK    4  A    between atoms: O_14  and  C_11 
REMARK    5  A    between atoms: C_17  and  O_12 
ROOT
ATOM      1  C   UNL d   1     -47.886  13.002  22.678  0.00  0.00     0.088 A 
ATOM      2  C   UNL d   1     -47.130  12.711  22.834  0.00  0.00     0.105 A 
ATOM      3  C   UNL d   1     -48.443  12.481  22.984  0.00  0.00     0.032 A 
ATOM      4  O   UNL d   1     -47.228  11.994  23.246  0.00  0.00    -0.307 OA
ATOM      5  C   UNL d   1     -48.036  11.858  23.335  0.00  0.00     0.100 A 
ATOM      6  C   UNL d   1     -49.259  12.493  22.988  0.00  0.00     0.026 A 
ATOM      7  C   UNL d   1     -48.459  11.241  23.694  0.00  0.00     0.027 A 
ATOM      8  C   UNL d   1     -49.682  11.877  23.347  0.00  0.00     0.094 A 
ATOM      9  C   UNL d   1     -49.275  11.254  23.698  0.00  0.00     0.026 A 
ENDROOT
BRANCH   2  10
ATOM     10  C   UNL d   1     -46.408  13.048  22.631  0.00  0.00     0.023 A 
ATOM     11  C   UNL d   1     -46.125  13.723  23.040  0.00  0.00     0.002 A 
ATOM     12  C   UNL d   1     -45.390  14.057  22.823  0.00  0.00     0.000 A 
ATOM     13  C   UNL d   1     -44.945  13.713  22.199  0.00  0.00     0.000 A 
ATOM     14  C   UNL d   1     -45.235  13.055  21.809  0.00  0.00     0.000 A 
ATOM     15  C   UNL d   1     -45.958  12.727  22.022  0.00  0.00     0.002 A 
ENDBRANCH   2  10
BRANCH   1  16
ATOM     16  C   UNL d   1     -47.666  13.695  22.279  0.00  0.00     0.302 C 
ATOM     17  O   UNL d   1     -47.237  13.650  21.581  0.00  0.00    -0.259 OA
BRANCH  16  18
ATOM     18  O   UNL d   1     -47.875  14.440  22.577  0.00  0.00    -0.271 OA
BRANCH  18  19
ATOM     19  C   UNL d   1     -48.329  14.971  22.122  0.00  0.00     0.126 C 
ATOM     20  C   UNL d   1     -48.757  15.579  22.498  0.00  0.00     0.029 C 
ENDBRANCH  18  19
ENDBRANCH  16  18
ENDBRANCH   1  16
BRANCH   8  21
ATOM     21  O   UNL d   1     -50.512  11.896  23.348  0.00  0.00    -0.328 OA
ATOM     22  C   UNL d   1     -50.919  12.545  23.698  0.00  0.00     0.181 C 
ENDBRANCH   8  21
TORSDOF 5
ENDMDL
