MODEL 1
REMARK VINA RESULT:      -7.1      0.000      0.000
REMARK  5 active torsions:
REMARK  status: ('A' for Active; 'I' for Inactive)
REMARK    1  A    between atoms: N_3  and  S_1 
REMARK    2  A    between atoms: C_4  and  S_1 
REMARK    3  A    between atoms: S_2  and  N_5 
REMARK    4  A    between atoms: C_8  and  N_3 
REMARK    5  A    between atoms: N_5  and  C_15 
ROOT
ATOM      1  N   UNL d   1     -46.876  13.926  22.650  0.00  0.00    -0.229 N 
ATOM      2  C   UNL d   1     -46.401  14.590  22.552  0.00  0.00     0.111 C 
ENDROOT
BRANCH   1   3
ATOM      3  S   UNL d   1     -46.534  13.200  22.854  0.00  0.00     0.271 S 
ATOM      4  O   UNL d   1     -46.782  13.338  22.080  0.00  0.00    -0.200 OA
ATOM      5  O   UNL d   1     -46.628  13.792  23.435  0.00  0.00    -0.200 OA
BRANCH   3   6
ATOM      6  C   UNL d   1     -46.192  12.473  23.059  0.00  0.00     0.104 A 
ATOM      7  C   UNL d   1     -45.420  12.298  22.825  0.00  0.00     0.013 A 
ATOM      8  C   UNL d   1     -45.085  11.585  23.025  0.00  0.00     0.001 A 
ATOM      9  C   UNL d   1     -45.512  11.034  23.462  0.00  0.00     0.000 A 
ATOM     10  C   UNL d   1     -46.283  11.204  23.698  0.00  0.00     0.001 A 
ATOM     11  C   UNL d   1     -45.162  10.310  23.662  0.00  0.00     0.000 C 
ATOM     12  C   UNL d   1     -46.621  11.921  23.496  0.00  0.00     0.013 A 
ENDBRANCH   3   6
ENDBRANCH   1   3
BRANCH   1  13
ATOM     13  C   UNL d   1     -47.695  13.982  22.546  0.00  0.00     0.075 A 
ATOM     14  C   UNL d   1     -48.161  14.337  23.132  0.00  0.00     0.020 A 
ATOM     15  C   UNL d   1     -48.977  14.391  23.025  0.00  0.00     0.021 A 
ATOM     16  C   UNL d   1     -49.329  14.092  22.334  0.00  0.00     0.094 A 
ATOM     17  C   UNL d   1     -48.857  13.739  21.754  0.00  0.00     0.021 A 
ATOM     18  C   UNL d   1     -48.044  13.685  21.861  0.00  0.00     0.020 A 
BRANCH  16  19
ATOM     19  N   UNL d   1     -50.148  14.147  22.229  0.00  0.00    -0.162 NA
BRANCH  19  20
ATOM     20  S   UNL d   1     -50.599  13.463  22.072  0.00  0.00     0.266 S 
ATOM     21  O   UNL d   1     -50.582  12.831  22.597  0.00  0.00    -0.203 OA
ATOM     22  O   UNL d   1     -50.613  14.109  21.543  0.00  0.00    -0.203 OA
ATOM     23  C   UNL d   1     -51.063  13.425  21.386  0.00  0.00     0.165 C 
ENDBRANCH  19  20
ENDBRANCH  16  19
ENDBRANCH   1  13
TORSDOF 5
ENDMDL
MODEL 2
REMARK VINA RESULT:      -6.4      8.272      9.610
REMARK  5 active torsions:
REMARK  status: ('A' for Active; 'I' for Inactive)
REMARK    1  A    between atoms: N_3  and  S_1 
REMARK    2  A    between atoms: C_4  and  S_1 
REMARK    3  A    between atoms: S_2  and  N_5 
REMARK    4  A    between atoms: C_8  and  N_3 
REMARK    5  A    between atoms: N_5  and  C_15 
ROOT
ATOM      1  N   UNL d   1     -40.399  15.390  18.499  0.00  0.00    -0.229 N 
ATOM      2  C   UNL d   1     -41.023  15.820  18.180  0.00  0.00     0.111 C 
ENDROOT
BRANCH   1   3
ATOM      3  S   UNL d   1     -39.906  14.947  18.003  0.00  0.00     0.271 S 
ATOM      4  O   UNL d   1     -39.662  15.686  18.276  0.00  0.00    -0.200 OA
ATOM      5  O   UNL d   1     -40.650  14.643  18.225  0.00  0.00    -0.200 OA
BRANCH   3   6
ATOM      6  C   UNL d   1     -39.412  14.504  17.506  0.00  0.00     0.104 A 
ATOM      7  C   UNL d   1     -39.124  14.833  16.806  0.00  0.00     0.013 A 
ATOM      8  C   UNL d   1     -38.640  14.398  16.319  0.00  0.00     0.001 A 
ATOM      9  C   UNL d   1     -38.434  13.628  16.521  0.00  0.00     0.000 A 
ATOM     10  C   UNL d   1     -38.718  13.294  17.218  0.00  0.00     0.001 A 
ATOM     11  C   UNL d   1     -37.940  13.191  16.018  0.00  0.00     0.000 C 
ATOM     12  C   UNL d   1     -39.205  13.732  17.708  0.00  0.00     0.013 A 
ENDBRANCH   3   6
ENDBRANCH   1   3
BRANCH   1  13
ATOM     13  C   UNL d   1     -40.262  15.400  19.315  0.00  0.00     0.075 A 
ATOM     14  C   UNL d   1     -39.696  15.915  19.631  0.00  0.00     0.020 A 
ATOM     15  C   UNL d   1     -39.563  15.922  20.445  0.00  0.00     0.021 A 
ATOM     16  C   UNL d   1     -39.994  15.415  20.944  0.00  0.00     0.094 A 
ATOM     17  C   UNL d   1     -40.557  14.904  20.621  0.00  0.00     0.021 A 
ATOM     18  C   UNL d   1     -40.690  14.898  19.810  0.00  0.00     0.020 A 
BRANCH  16  19
ATOM     19  N   UNL d   1     -39.858  15.424  21.761  0.00  0.00    -0.162 NA
BRANCH  19  20
ATOM     20  S   UNL d   1     -39.245  14.964  22.090  0.00  0.00     0.266 S 
ATOM     21  O   UNL d   1     -39.070  14.226  21.774  0.00  0.00    -0.203 OA
ATOM     22  O   UNL d   1     -39.426  15.715  22.406  0.00  0.00    -0.203 OA
ATOM     23  C   UNL d   1     -38.813  15.255  22.735  0.00  0.00     0.165 C 
ENDBRANCH  19  20
ENDBRANCH  16  19
ENDBRANCH   1  13
TORSDOF 5
ENDMDL
MODEL 3
REMARK VINA RESULT:      -6.3      7.822      9.115
REMARK  5 active torsions:
REMARK  status: ('A' for Active; 'I' for Inactive)
REMARK    1  A    between atoms: N_3  and  S_1 
REMARK    2  A    between atoms: C_4  and  S_1 
REMARK    3  A    between atoms: S_2  and  N_5 
REMARK    4  A    between atoms: C_8  and  N_3 
REMARK    5  A    between atoms: N_5  and  C_15 
ROOT
ATOM      1  N   UNL d   1     -40.638  15.450  20.204  0.00  0.00    -0.229 N 
ATOM      2  C   UNL d   1     -41.294  15.922  20.356  0.00  0.00     0.111 C 
ENDROOT
BRANCH   1   3
ATOM      3  S   UNL d   1     -40.191  15.149  20.833  0.00  0.00     0.271 S 
ATOM      4  O   UNL d   1     -40.896  14.783  20.614  0.00  0.00    -0.200 OA
ATOM      5  O   UNL d   1     -39.925  15.824  20.421  0.00  0.00    -0.200 OA
BRANCH   3   6
ATOM      6  C   UNL d   1     -39.744  14.849  21.463  0.00  0.00     0.104 A 
ATOM      7  C   UNL d   1     -39.420  15.360  22.023  0.00  0.00     0.013 A 
ATOM      8  C   UNL d   1     -38.981  15.065  22.641  0.00  0.00     0.001 A 
ATOM      9  C   UNL d   1     -38.857  14.255  22.711  0.00  0.00     0.000 A 
ATOM     10  C   UNL d   1     -39.178  13.739  22.154  0.00  0.00     0.001 A 
ATOM     11  C   UNL d   1     -38.409  13.962  23.344  0.00  0.00     0.000 C 
ATOM     12  C   UNL d   1     -39.619  14.036  21.533  0.00  0.00     0.013 A 
ENDBRANCH   3   6
ENDBRANCH   1   3
BRANCH   1  13
ATOM     13  C   UNL d   1     -40.423  15.275  19.424  0.00  0.00     0.075 A 
ATOM     14  C   UNL d   1     -39.884  15.763  19.027  0.00  0.00     0.020 A 
ATOM     15  C   UNL d   1     -39.672  15.586  18.249  0.00  0.00     0.021 A 
ATOM     16  C   UNL d   1     -39.997  14.921  17.868  0.00  0.00     0.094 A 
ATOM     17  C   UNL d   1     -40.534  14.440  18.272  0.00  0.00     0.021 A 
ATOM     18  C   UNL d   1     -40.745  14.617  19.047  0.00  0.00     0.020 A 
BRANCH  16  19
ATOM     19  N   UNL d   1     -39.783  14.746  17.088  0.00  0.00    -0.162 NA
BRANCH  19  20
ATOM     20  S   UNL d   1     -39.087  14.314  16.931  0.00  0.00     0.266 S 
ATOM     21  O   UNL d   1     -38.870  13.691  17.421  0.00  0.00    -0.203 OA
ATOM     22  O   UNL d   1     -39.312  14.948  16.437  0.00  0.00    -0.203 OA
ATOM     23  C   UNL d   1     -38.615  14.517  16.280  0.00  0.00     0.165 C 
ENDBRANCH  19  20
ENDBRANCH  16  19
ENDBRANCH   1  13
TORSDOF 5
ENDMDL
MODEL 4
REMARK VINA RESULT:      -6.2      1.307      1.818
REMARK  5 active torsions:
REMARK  status: ('A' for Active; 'I' for Inactive)
REMARK    1  A    between atoms: N_3  and  S_1 
REMARK    2  A    between atoms: C_4  and  S_1 
REMARK    3  A    between atoms: S_2  and  N_5 
REMARK    4  A    between atoms: C_8  and  N_3 
REMARK    5  A    between atoms: N_5  and  C_15 
ROOT
ATOM      1  N   UNL d   1     -47.791  12.615  23.112  0.00  0.00    -0.229 N 
ATOM      2  C   UNL d   1     -48.050  11.934  23.494  0.00  0.00     0.111 C 
ENDROOT
BRANCH   1   3
ATOM      3  S   UNL d   1     -47.007  12.670  22.853  0.00  0.00     0.271 S 
ATOM      4  O   UNL d   1     -47.598  12.424  22.334  0.00  0.00    -0.200 OA
ATOM      5  O   UNL d   1     -47.196  12.864  23.641  0.00  0.00    -0.200 OA
BRANCH   3   6
ATOM      6  C   UNL d   1     -46.221  12.725  22.593  0.00  0.00     0.104 A 
ATOM      7  C   UNL d   1     -45.668  12.158  22.821  0.00  0.00     0.013 A 
ATOM      8  C   UNL d   1     -44.898  12.212  22.566  0.00  0.00     0.001 A 
ATOM      9  C   UNL d   1     -44.666  12.833  22.079  0.00  0.00     0.000 A 
ATOM     10  C   UNL d   1     -45.214  13.402  21.848  0.00  0.00     0.001 A 
ATOM     11  C   UNL d   1     -43.878  12.881  21.824  0.00  0.00     0.000 C 
ATOM     12  C   UNL d   1     -45.989  13.348  22.104  0.00  0.00     0.013 A 
ENDBRANCH   3   6
ENDBRANCH   1   3
BRANCH   1  13
ATOM     13  C   UNL d   1     -48.313  13.245  22.987  0.00  0.00     0.075 A 
ATOM     14  C   UNL d   1     -48.304  13.894  23.501  0.00  0.00     0.020 A 
ATOM     15  C   UNL d   1     -48.826  14.520  23.373  0.00  0.00     0.021 A 
ATOM     16  C   UNL d   1     -49.356  14.499  22.732  0.00  0.00     0.094 A 
ATOM     17  C   UNL d   1     -49.358  13.847  22.224  0.00  0.00     0.021 A 
ATOM     18  C   UNL d   1     -48.838  13.224  22.352  0.00  0.00     0.020 A 
BRANCH  16  19
ATOM     19  N   UNL d   1     -49.879  15.129  22.606  0.00  0.00    -0.162 NA
BRANCH  19  20
ATOM     20  S   UNL d   1     -50.598  15.168  23.026  0.00  0.00     0.266 S 
ATOM     21  O   UNL d   1     -51.064  14.496  23.106  0.00  0.00    -0.203 OA
ATOM     22  O   UNL d   1     -50.121  15.847  22.941  0.00  0.00    -0.203 OA
ATOM     23  C   UNL d   1     -50.840  15.886  23.361  0.00  0.00     0.165 C 
ENDBRANCH  19  20
ENDBRANCH  16  19
ENDBRANCH   1  13
TORSDOF 5
ENDMDL
MODEL 5
REMARK VINA RESULT:      -5.7      8.636     10.301
REMARK  5 active torsions:
REMARK  status: ('A' for Active; 'I' for Inactive)
REMARK    1  A    between atoms: N_3  and  S_1 
REMARK    2  A    between atoms: C_4  and  S_1 
REMARK    3  A    between atoms: S_2  and  N_5 
REMARK    4  A    between atoms: C_8  and  N_3 
REMARK    5  A    between atoms: N_5  and  C_15 
ROOT
ATOM      1  N   UNL d   1     -40.534  15.104  17.710  0.00  0.00    -0.229 N 
ATOM      2  C   UNL d   1     -41.247  15.309  17.355  0.00  0.00     0.111 C 
ENDROOT
BRANCH   1   3
ATOM      3  S   UNL d   1     -40.466  15.114  18.535  0.00  0.00     0.271 S 
ATOM      4  O   UNL d   1     -40.113  15.707  18.084  0.00  0.00    -0.200 OA
ATOM      5  O   UNL d   1     -40.893  14.502  18.162  0.00  0.00    -0.200 OA
BRANCH   3   6
ATOM      6  C   UNL d   1     -40.398  15.123  19.361  0.00  0.00     0.104 A 
ATOM      7  C   UNL d   1     -40.333  14.415  19.780  0.00  0.00     0.013 A 
ATOM      8  C   UNL d   1     -40.267  14.425  20.591  0.00  0.00     0.001 A 
ATOM      9  C   UNL d   1     -40.264  15.140  20.998  0.00  0.00     0.000 A 
ATOM     10  C   UNL d   1     -40.328  15.849  20.584  0.00  0.00     0.001 A 
ATOM     11  C   UNL d   1     -40.196  15.140  21.824  0.00  0.00     0.000 C 
ATOM     12  C   UNL d   1     -40.395  15.840  19.769  0.00  0.00     0.013 A 
ENDBRANCH   3   6
ENDBRANCH   1   3
BRANCH   1  13
ATOM     13  C   UNL d   1     -39.884  14.889  17.245  0.00  0.00     0.075 A 
ATOM     14  C   UNL d   1     -39.361  15.472  16.975  0.00  0.00     0.020 A 
ATOM     15  C   UNL d   1     -38.715  15.254  16.511  0.00  0.00     0.021 A 
ATOM     16  C   UNL d   1     -38.590  14.455  16.316  0.00  0.00     0.094 A 
ATOM     17  C   UNL d   1     -39.117  13.880  16.589  0.00  0.00     0.021 A 
ATOM     18  C   UNL d   1     -39.761  14.098  17.051  0.00  0.00     0.020 A 
BRANCH  16  19
ATOM     19  N   UNL d   1     -37.940  14.239  15.851  0.00  0.00    -0.162 NA
BRANCH  19  20
ATOM     20  S   UNL d   1     -37.942  14.391  15.031  0.00  0.00     0.266 S 
ATOM     21  O   UNL d   1     -37.940  15.166  14.756  0.00  0.00    -0.203 OA
ATOM     22  O   UNL d   1     -37.944  13.606  15.315  0.00  0.00    -0.203 OA
ATOM     23  C   UNL d   1     -37.947  13.758  14.495  0.00  0.00     0.165 C 
ENDBRANCH  19  20
ENDBRANCH  16  19
ENDBRANCH   1  13
TORSDOF 5
ENDMDL
MODEL 6
REMARK VINA RESULT:      -5.6      8.830      9.854
REMARK  5 active torsions:
REMARK  status: ('A' for Active; 'I' for Inactive)
REMARK    1  A    between atoms: N_3  and  S_1 
REMARK    2  A    between atoms: C_4  and  S_1 
REMARK    3  A    between atoms: S_2  and  N_5 
REMARK    4  A    between atoms: C_8  and  N_3 
REMARK    5  A    between atoms: N_5  and  C_15 
ROOT
ATOM      1  N   UNL d   1     -38.778  14.339  19.414  0.00  0.00    -0.229 N 
ATOM      2  C   UNL d   1     -38.170  13.817  19.230  0.00  0.00     0.111 C 
ENDROOT
BRANCH   1   3
ATOM      3  S   UNL d   1     -39.283  14.611  18.817  0.00  0.00     0.271 S 
ATOM      4  O   UNL d   1     -38.668  15.089  19.089  0.00  0.00    -0.200 OA
ATOM      5  O   UNL d   1     -39.398  13.852  19.143  0.00  0.00    -0.200 OA
BRANCH   3   6
ATOM      6  C   UNL d   1     -39.789  14.883  18.220  0.00  0.00     0.104 A 
ATOM      7  C   UNL d   1     -40.547  14.566  18.141  0.00  0.00     0.013 A 
ATOM      8  C   UNL d   1     -41.043  14.833  17.555  0.00  0.00     0.001 A 
ATOM      9  C   UNL d   1     -40.793  15.421  17.037  0.00  0.00     0.000 A 
ATOM     10  C   UNL d   1     -40.038  15.742  17.111  0.00  0.00     0.001 A 
ATOM     11  C   UNL d   1     -41.306  15.688  16.443  0.00  0.00     0.000 C 
ATOM     12  C   UNL d   1     -39.539  15.473  17.701  0.00  0.00     0.013 A 
ENDBRANCH   3   6
ENDBRANCH   1   3
BRANCH   1  13
ATOM     13  C   UNL d   1     -38.886  14.593  20.194  0.00  0.00     0.075 A 
ATOM     14  C   UNL d   1     -39.378  14.162  20.702  0.00  0.00     0.020 A 
ATOM     15  C   UNL d   1     -39.483  14.418  21.479  0.00  0.00     0.021 A 
ATOM     16  C   UNL d   1     -39.097  15.104  21.750  0.00  0.00     0.094 A 
ATOM     17  C   UNL d   1     -38.608  15.528  21.237  0.00  0.00     0.021 A 
ATOM     18  C   UNL d   1     -38.503  15.272  20.462  0.00  0.00     0.020 A 
BRANCH  16  19
ATOM     19  N   UNL d   1     -39.205  15.359  22.531  0.00  0.00    -0.162 NA
BRANCH  19  20
ATOM     20  S   UNL d   1     -38.630  15.190  23.110  0.00  0.00     0.266 S 
ATOM     21  O   UNL d   1     -38.233  14.470  23.098  0.00  0.00    -0.203 OA
ATOM     22  O   UNL d   1     -39.036  15.919  23.118  0.00  0.00    -0.203 OA
ATOM     23  C   UNL d   1     -38.461  15.749  23.698  0.00  0.00     0.165 C 
ENDBRANCH  19  20
ENDBRANCH  16  19
ENDBRANCH   1  13
TORSDOF 5
ENDMDL
