MODEL 1
REMARK VINA RESULT:      -8.8      0.000      0.000
REMARK  2 active torsions:
REMARK  status: ('A' for Active; 'I' for Inactive)
REMARK    1  A    between atoms: N_2  and  S_1 
REMARK    2  A    between atoms: C_3  and  S_1 
ROOT
ATOM      1  S   UNL d   1      53.675  32.342  54.045  0.00  0.00     0.272 S 
ATOM      2  O   UNL d   1      54.406  32.270  53.667  0.00  0.00    -0.200 OA
ATOM      3  O   UNL d   1      52.947  32.417  54.423  0.00  0.00    -0.200 OA
ENDROOT
BRANCH   1   4
ATOM      4  N   UNL d   1      53.924  33.047  54.393  0.00  0.00    -0.225 N 
ATOM      5  C   UNL d   1      54.762  33.116  54.728  0.00  0.00     0.118 A 
ATOM      6  C   UNL d   1      55.036  33.891  55.111  0.00  0.00     0.142 A 
ATOM      7  O   UNL d   1      54.472  34.598  55.159  0.00  0.00    -0.300 OA
ATOM      8  C   UNL d   1      53.633  34.528  54.823  0.00  0.00     0.142 A 
ATOM      9  C   UNL d   1      53.359  33.753  54.440  0.00  0.00     0.118 A 
ENDBRANCH   1   4
BRANCH   1  10
ATOM     10  C   UNL d   1      53.423  31.638  53.698  0.00  0.00     0.104 A 
ATOM     11  C   UNL d   1      53.561  30.920  54.078  0.00  0.00     0.015 A 
ATOM     12  C   UNL d   1      53.309  30.209  53.734  0.00  0.00     0.028 A 
ATOM     13  C   UNL d   1      53.445  29.489  54.111  0.00  0.00     0.002 C 
ATOM     14  C   UNL d   1      52.919  30.228  53.007  0.00  0.00     0.140 A 
ATOM     15  C   UNL d   1      52.783  30.949  52.630  0.00  0.00     0.030 A 
ATOM     16  F   UNL d   1      52.665  29.526  52.657  0.00  0.00    -0.204 F 
ATOM     17  C   UNL d   1      53.033  31.655  52.972  0.00  0.00     0.015 A 
ENDBRANCH   1  10
TORSDOF 2
ENDMDL
MODEL 2
REMARK VINA RESULT:      -8.1      1.611      2.039
REMARK  2 active torsions:
REMARK  status: ('A' for Active; 'I' for Inactive)
REMARK    1  A    between atoms: N_2  and  S_1 
REMARK    2  A    between atoms: C_3  and  S_1 
ROOT
ATOM      1  S   UNL d   1      52.658  32.655  53.281  0.00  0.00     0.272 S 
ATOM      2  O   UNL d   1      52.652  32.597  52.459  0.00  0.00    -0.200 OA
ATOM      3  O   UNL d   1      52.661  32.718  54.103  0.00  0.00    -0.200 OA
ENDROOT
BRANCH   1   4
ATOM      4  N   UNL d   1      52.305  33.399  53.231  0.00  0.00    -0.225 N 
ATOM      5  C   UNL d   1      52.804  34.146  53.341  0.00  0.00     0.118 A 
ATOM      6  C   UNL d   1      52.416  34.964  53.286  0.00  0.00     0.142 A 
ATOM      7  O   UNL d   1      51.529  35.035  53.121  0.00  0.00    -0.300 OA
ATOM      8  C   UNL d   1      51.029  34.287  53.011  0.00  0.00     0.142 A 
ATOM      9  C   UNL d   1      51.417  33.469  53.066  0.00  0.00     0.118 A 
ENDBRANCH   1   4
BRANCH   1  10
ATOM     10  C   UNL d   1      53.010  31.912  53.336  0.00  0.00     0.104 A 
ATOM     11  C   UNL d   1      52.599  31.243  53.090  0.00  0.00     0.015 A 
ATOM     12  C   UNL d   1      52.949  30.493  53.143  0.00  0.00     0.028 A 
ATOM     13  C   UNL d   1      52.540  29.820  52.897  0.00  0.00     0.002 C 
ATOM     14  C   UNL d   1      53.715  30.425  53.444  0.00  0.00     0.140 A 
ATOM     15  C   UNL d   1      54.123  31.098  53.689  0.00  0.00     0.030 A 
ATOM     16  F   UNL d   1      54.071  29.683  53.500  0.00  0.00    -0.204 F 
ATOM     17  C   UNL d   1      53.775  31.843  53.636  0.00  0.00     0.015 A 
ENDBRANCH   1  10
TORSDOF 2
ENDMDL
MODEL 3
REMARK VINA RESULT:      -8.0      2.581      3.648
REMARK  2 active torsions:
REMARK  status: ('A' for Active; 'I' for Inactive)
REMARK    1  A    between atoms: N_2  and  S_1 
REMARK    2  A    between atoms: C_3  and  S_1 
ROOT
ATOM      1  S   UNL d   1      52.335  33.942  53.415  0.00  0.00     0.272 S 
ATOM      2  O   UNL d   1      52.652  34.650  53.133  0.00  0.00    -0.200 OA
ATOM      3  O   UNL d   1      52.015  33.235  53.694  0.00  0.00    -0.200 OA
ENDROOT
BRANCH   1   4
ATOM      4  N   UNL d   1      51.646  34.077  52.982  0.00  0.00    -0.225 N 
ATOM      5  C   UNL d   1      50.852  34.154  53.408  0.00  0.00     0.118 A 
ATOM      6  C   UNL d   1      50.094  34.303  52.932  0.00  0.00     0.142 A 
ATOM      7  O   UNL d   1      50.131  34.376  52.030  0.00  0.00    -0.300 OA
ATOM      8  C   UNL d   1      50.927  34.300  51.605  0.00  0.00     0.142 A 
ATOM      9  C   UNL d   1      51.685  34.150  52.080  0.00  0.00     0.118 A 
ENDBRANCH   1   4
BRANCH   1  10
ATOM     10  C   UNL d   1      53.022  33.803  53.849  0.00  0.00     0.104 A 
ATOM     11  C   UNL d   1      53.573  33.252  53.582  0.00  0.00     0.015 A 
ATOM     12  C   UNL d   1      54.265  33.109  54.015  0.00  0.00     0.028 A 
ATOM     13  C   UNL d   1      54.819  32.558  53.750  0.00  0.00     0.002 C 
ATOM     14  C   UNL d   1      54.397  33.524  54.716  0.00  0.00     0.140 A 
ATOM     15  C   UNL d   1      53.843  34.074  54.980  0.00  0.00     0.030 A 
ATOM     16  F   UNL d   1      55.083  33.387  55.153  0.00  0.00    -0.204 F 
ATOM     17  C   UNL d   1      53.155  34.216  54.550  0.00  0.00     0.015 A 
ENDBRANCH   1  10
TORSDOF 2
ENDMDL
MODEL 4
REMARK VINA RESULT:      -8.0      2.135      3.750
REMARK  2 active torsions:
REMARK  status: ('A' for Active; 'I' for Inactive)
REMARK    1  A    between atoms: N_2  and  S_1 
REMARK    2  A    between atoms: C_3  and  S_1 
ROOT
ATOM      1  S   UNL d   1      52.910  32.203  53.315  0.00  0.00     0.272 S 
ATOM      2  O   UNL d   1      52.892  32.178  52.491  0.00  0.00    -0.200 OA
ATOM      3  O   UNL d   1      52.929  32.222  54.139  0.00  0.00    -0.200 OA
ENDROOT
BRANCH   1   4
ATOM      4  N   UNL d   1      53.047  31.389  53.336  0.00  0.00    -0.225 N 
ATOM      5  C   UNL d   1      52.440  30.819  52.984  0.00  0.00     0.118 A 
ATOM      6  C   UNL d   1      52.590  29.924  53.007  0.00  0.00     0.142 A 
ATOM      7  O   UNL d   1      53.348  29.601  53.382  0.00  0.00    -0.300 OA
ATOM      8  C   UNL d   1      53.956  30.173  53.735  0.00  0.00     0.142 A 
ATOM      9  C   UNL d   1      53.805  31.067  53.712  0.00  0.00     0.118 A 
ENDBRANCH   1   4
BRANCH   1  10
ATOM     10  C   UNL d   1      52.774  33.015  53.298  0.00  0.00     0.104 A 
ATOM     11  C   UNL d   1      52.036  33.304  53.075  0.00  0.00     0.015 A 
ATOM     12  C   UNL d   1      51.894  34.120  53.056  0.00  0.00     0.028 A 
ATOM     13  C   UNL d   1      51.155  34.413  52.833  0.00  0.00     0.002 C 
ATOM     14  C   UNL d   1      52.500  34.641  53.264  0.00  0.00     0.140 A 
ATOM     15  C   UNL d   1      53.237  34.348  53.487  0.00  0.00     0.030 A 
ATOM     16  F   UNL d   1      52.367  35.455  53.248  0.00  0.00    -0.204 F 
ATOM     17  C   UNL d   1      53.378  33.536  53.506  0.00  0.00     0.015 A 
ENDBRANCH   1  10
TORSDOF 2
ENDMDL
