MODEL 1
REMARK VINA RESULT:       4.5      0.000      0.000
REMARK  5 active torsions:
REMARK  status: ('A' for Active; 'I' for Inactive)
REMARK    1  A    between atoms: N_2  and  S_1 
REMARK    2  A    between atoms: C_5  and  S_1 
REMARK    3  A    between atoms: C_4  and  C_3 
REMARK       I    between atoms: N_6  and  C_4 
REMARK    4  A    between atoms: C_12  and  N_6 
REMARK    5  A    between atoms: O_23  and  C_15 
ROOT
ATOM      1  N   UNL d   1      58.189  -0.102  29.225  0.00  0.00    -0.226 N 
ATOM      2  C   UNL d   1      57.634   0.235  29.738  0.00  0.00     0.133 A 
ATOM      3  C   UNL d   1      58.010   0.135  28.457  0.00  0.00     0.092 A 
ATOM      4  C   UNL d   1      57.112   0.681  29.275  0.00  0.00     0.025 A 
ATOM      5  C   UNL d   1      57.348   0.617  28.487  0.00  0.00     0.021 A 
ENDROOT
BRANCH   2   6
ATOM      6  C   UNL d   1      57.610   0.140  30.554  0.00  0.00     0.296 C 
ATOM      7  N   UNL d   1      56.890  -0.054  30.916  0.00  0.00    -0.207 NA
ATOM      8  O   UNL d   1      58.290   0.236  31.007  0.00  0.00    -0.264 OA
BRANCH   7   9
ATOM      9  C   UNL d   1      56.864  -0.150  31.740  0.00  0.00     0.085 A 
ATOM     10  C   UNL d   1      56.288  -0.638  32.080  0.00  0.00     0.021 A 
ATOM     11  C   UNL d   1      56.265  -0.731  32.902  0.00  0.00     0.026 A 
ATOM     12  C   UNL d   1      56.814  -0.340  33.376  0.00  0.00     0.094 A 
ATOM     13  C   UNL d   1      57.390   0.148  33.031  0.00  0.00     0.026 A 
ATOM     14  C   UNL d   1      57.413   0.241  32.213  0.00  0.00     0.021 A 
BRANCH  12  15
ATOM     15  O   UNL d   1      56.795  -0.431  34.197  0.00  0.00    -0.328 OA
ATOM     16  C   UNL d   1      56.626   0.226  34.673  0.00  0.00     0.181 C 
ENDBRANCH  12  15
ENDBRANCH   7   9
ENDBRANCH   2   6
BRANCH   1  17
ATOM     17  S   UNL d   1      58.799  -0.587  29.503  0.00  0.00     0.271 S 
ATOM     18  O   UNL d   1      58.320  -1.215  29.297  0.00  0.00    -0.200 OA
ATOM     19  O   UNL d   1      59.279   0.063  29.709  0.00  0.00    -0.200 OA
BRANCH  17  20
ATOM     20  C   UNL d   1      59.381  -1.101  29.769  0.00  0.00     0.104 A 
ATOM     21  C   UNL d   1      60.150  -0.828  29.896  0.00  0.00     0.013 A 
ATOM     22  C   UNL d   1      60.729  -1.350  30.164  0.00  0.00     0.001 A 
ATOM     23  C   UNL d   1      60.541  -2.144  30.305  0.00  0.00     0.000 A 
ATOM     24  C   UNL d   1      59.767  -2.418  30.177  0.00  0.00     0.001 A 
ATOM     25  C   UNL d   1      61.118  -2.670  30.573  0.00  0.00     0.000 C 
ATOM     26  C   UNL d   1      59.190  -1.892  29.909  0.00  0.00     0.013 A 
ENDBRANCH  17  20
ENDBRANCH   1  17
TORSDOF 5
ENDMDL
MODEL 2
REMARK VINA RESULT:       7.0      1.498      2.337
REMARK  5 active torsions:
REMARK  status: ('A' for Active; 'I' for Inactive)
REMARK    1  A    between atoms: N_2  and  S_1 
REMARK    2  A    between atoms: C_5  and  S_1 
REMARK    3  A    between atoms: C_4  and  C_3 
REMARK       I    between atoms: N_6  and  C_4 
REMARK    4  A    between atoms: C_12  and  N_6 
REMARK    5  A    between atoms: O_23  and  C_15 
ROOT
ATOM      1  N   UNL d   1      58.547  -2.542  29.074  0.00  0.00    -0.226 N 
ATOM      2  C   UNL d   1      57.864  -2.520  29.540  0.00  0.00     0.133 A 
ATOM      3  C   UNL d   1      58.611  -3.293  28.743  0.00  0.00     0.092 A 
ATOM      4  C   UNL d   1      57.509  -3.267  29.490  0.00  0.00     0.025 A 
ATOM      5  C   UNL d   1      57.973  -3.740  28.999  0.00  0.00     0.021 A 
ENDROOT
BRANCH   2   6
ATOM      6  C   UNL d   1      57.591  -1.875  29.970  0.00  0.00     0.296 C 
ATOM      7  N   UNL d   1      57.373  -1.981  30.762  0.00  0.00    -0.207 NA
ATOM      8  O   UNL d   1      57.536  -1.132  29.620  0.00  0.00    -0.264 OA
BRANCH   7   9
ATOM      9  C   UNL d   1      57.098  -1.331  31.198  0.00  0.00     0.085 A 
ATOM     10  C   UNL d   1      57.286  -0.562  30.953  0.00  0.00     0.021 A 
ATOM     11  C   UNL d   1      57.010   0.084  31.391  0.00  0.00     0.026 A 
ATOM     12  C   UNL d   1      56.552  -0.039  32.063  0.00  0.00     0.094 A 
ATOM     13  C   UNL d   1      56.365  -0.811  32.305  0.00  0.00     0.026 A 
ATOM     14  C   UNL d   1      56.639  -1.455  31.870  0.00  0.00     0.021 A 
BRANCH  12  15
ATOM     15  O   UNL d   1      56.274   0.604  32.502  0.00  0.00    -0.328 OA
ATOM     16  C   UNL d   1      56.497   0.678  33.296  0.00  0.00     0.181 C 
ENDBRANCH  12  15
ENDBRANCH   7   9
ENDBRANCH   2   6
BRANCH   1  17
ATOM     17  S   UNL d   1      59.041  -1.883  28.998  0.00  0.00     0.271 S 
ATOM     18  O   UNL d   1      59.644  -2.372  29.247  0.00  0.00    -0.200 OA
ATOM     19  O   UNL d   1      58.416  -1.392  28.743  0.00  0.00    -0.200 OA
BRANCH  17  20
ATOM     20  C   UNL d   1      59.562  -1.252  28.933  0.00  0.00     0.104 A 
ATOM     21  C   UNL d   1      60.317  -1.301  29.263  0.00  0.00     0.013 A 
ATOM     22  C   UNL d   1      60.835  -0.663  29.195  0.00  0.00     0.001 A 
ATOM     23  C   UNL d   1      60.599   0.024  28.798  0.00  0.00     0.000 A 
ATOM     24  C   UNL d   1      59.837   0.073  28.466  0.00  0.00     0.001 A 
ATOM     25  C   UNL d   1      61.113   0.666  28.727  0.00  0.00     0.000 C 
ATOM     26  C   UNL d   1      59.323  -0.568  28.537  0.00  0.00     0.013 A 
ENDBRANCH  17  20
ENDBRANCH   1  17
TORSDOF 5
ENDMDL
MODEL 3
REMARK VINA RESULT:       7.1      7.972      8.966
REMARK  5 active torsions:
REMARK  status: ('A' for Active; 'I' for Inactive)
REMARK    1  A    between atoms: N_2  and  S_1 
REMARK    2  A    between atoms: C_5  and  S_1 
REMARK    3  A    between atoms: C_4  and  C_3 
REMARK       I    between atoms: N_6  and  C_4 
REMARK    4  A    between atoms: C_12  and  N_6 
REMARK    5  A    between atoms: O_23  and  C_15 
ROOT
ATOM      1  N   UNL d   1      57.566  -9.267  29.738  0.00  0.00    -0.226 N 
ATOM      2  C   UNL d   1      57.487  -9.581  30.500  0.00  0.00     0.133 A 
ATOM      3  C   UNL d   1      56.836  -9.309  29.362  0.00  0.00     0.092 A 
ATOM      4  C   UNL d   1      56.697  -9.816  30.586  0.00  0.00     0.025 A 
ATOM      5  C   UNL d   1      56.300  -9.647  29.883  0.00  0.00     0.021 A 
ENDROOT
BRANCH   2   6
ATOM      6  C   UNL d   1      58.083  -9.644  31.062  0.00  0.00     0.296 C 
ATOM      7  N   UNL d   1      57.893  -9.552  31.863  0.00  0.00    -0.207 NA
ATOM      8  O   UNL d   1      58.859  -9.797  30.833  0.00  0.00    -0.264 OA
BRANCH   7   9
ATOM      9  C   UNL d   1      58.494  -9.616  32.432  0.00  0.00     0.085 A 
ATOM     10  C   UNL d   1      59.281  -9.709  32.191  0.00  0.00     0.021 A 
ATOM     11  C   UNL d   1      59.878  -9.772  32.762  0.00  0.00     0.026 A 
ATOM     12  C   UNL d   1      59.686  -9.743  33.562  0.00  0.00     0.094 A 
ATOM     13  C   UNL d   1      58.897  -9.650  33.800  0.00  0.00     0.026 A 
ATOM     14  C   UNL d   1      58.302  -9.587  33.232  0.00  0.00     0.021 A 
BRANCH  12  15
ATOM     15  O   UNL d   1      60.280  -9.806  34.134  0.00  0.00    -0.328 OA
ATOM     16  C   UNL d   1      60.403  -9.177  34.659  0.00  0.00     0.181 C 
ENDBRANCH  12  15
ENDBRANCH   7   9
ENDBRANCH   2   6
BRANCH   1  17
ATOM     17  S   UNL d   1      58.290  -8.975  29.463  0.00  0.00     0.271 S 
ATOM     18  O   UNL d   1      58.097  -8.283  29.851  0.00  0.00    -0.200 OA
ATOM     19  O   UNL d   1      58.476  -9.687  29.070  0.00  0.00    -0.200 OA
BRANCH  17  20
ATOM     20  C   UNL d   1      59.000  -8.650  29.209  0.00  0.00     0.104 A 
ATOM     21  C   UNL d   1      59.521  -9.098  28.752  0.00  0.00     0.013 A 
ATOM     22  C   UNL d   1      60.233  -8.765  28.500  0.00  0.00     0.001 A 
ATOM     23  C   UNL d   1      60.423  -7.985  28.705  0.00  0.00     0.000 A 
ATOM     24  C   UNL d   1      59.897  -7.535  29.165  0.00  0.00     0.001 A 
ATOM     25  C   UNL d   1      61.133  -7.648  28.455  0.00  0.00     0.000 C 
ATOM     26  C   UNL d   1      59.186  -7.872  29.414  0.00  0.00     0.013 A 
ENDBRANCH  17  20
ENDBRANCH   1  17
TORSDOF 5
ENDMDL
