MODEL 1
REMARK VINA RESULT:      -4.7      0.000      0.000
REMARK  7 active torsions:
REMARK  status: ('A' for Active; 'I' for Inactive)
REMARK    1  A    between atoms: C_7  and  S_1 
REMARK    2  A    between atoms: N_11  and  S_1 
REMARK    3  A    between atoms: C_5  and  C_2 
REMARK    4  A    between atoms: C_6  and  C_15 
REMARK    5  A    between atoms: C_18  and  N_11 
REMARK    6  A    between atoms: C_15  and  C_18 
REMARK    7  A    between atoms: O_21  and  C_17 
ROOT
ATOM      1  C   UNL d   1     -41.449-123.180 -51.781  0.00  0.00     0.114 C 
ENDROOT
BRANCH   1   2
ATOM      2  C   UNL d   1     -41.137-123.496 -51.087  0.00  0.00     0.041 C 
BRANCH   2   3
ATOM      3  C   UNL d   1     -41.601-123.553 -50.402  0.00  0.00     0.090 A 
ATOM      4  N   UNL d   1     -41.352-123.351 -49.635  0.00  0.00    -0.238 NA
ATOM      5  C   UNL d   1     -41.989-123.494 -49.121  0.00  0.00     0.112 A 
ATOM      6  S   UNL d   1     -42.626-123.781 -49.565  0.00  0.00    -0.066 SA
ATOM      7  C   UNL d   1     -42.385-123.817 -50.362  0.00  0.00     0.056 A 
BRANCH   5   8
ATOM      8  C   UNL d   1     -41.993-123.370 -48.295  0.00  0.00     0.043 A 
ATOM      9  C   UNL d   1     -42.545-122.858 -47.957  0.00  0.00     0.101 A 
ATOM     10  N   UNL d   1     -42.549-122.737 -47.150  0.00  0.00    -0.242 NA
ATOM     11  C   UNL d   1     -42.002-123.128 -46.676  0.00  0.00     0.099 A 
ATOM     12  C   UNL d   1     -41.441-123.649 -47.023  0.00  0.00     0.021 A 
ATOM     13  C   UNL d   1     -41.439-123.769 -47.833  0.00  0.00     0.005 A 
ENDBRANCH   5   8
ENDBRANCH   2   3
ENDBRANCH   1   2
BRANCH   1  14
ATOM     14  N   UNL d   1     -41.123-123.404 -52.525  0.00  0.00    -0.157 NA
BRANCH  14  15
ATOM     15  S   UNL d   1     -41.408-123.045 -53.216  0.00  0.00     0.285 S 
ATOM     16  O   UNL d   1     -41.266-122.294 -52.878  0.00  0.00    -0.198 OA
ATOM     17  O   UNL d   1     -41.550-123.791 -53.555  0.00  0.00    -0.198 OA
BRANCH  15  18
ATOM     18  C   UNL d   1     -41.690-122.679 -53.901  0.00  0.00     0.105 A 
ATOM     19  C   UNL d   1     -42.075-121.954 -53.838  0.00  0.00     0.015 A 
ATOM     20  C   UNL d   1     -42.361-121.582 -54.528  0.00  0.00     0.025 A 
ATOM     21  C   UNL d   1     -42.258-121.937 -55.259  0.00  0.00     0.094 A 
ATOM     22  C   UNL d   1     -41.873-122.660 -55.313  0.00  0.00     0.025 A 
ATOM     23  C   UNL d   1     -41.585-123.040 -54.643  0.00  0.00     0.015 A 
BRANCH  21  24
ATOM     24  O   UNL d   1     -42.541-121.571 -55.944  0.00  0.00    -0.328 OA
ATOM     25  C   UNL d   1     -42.073-121.556 -56.623  0.00  0.00     0.181 C 
ENDBRANCH  21  24
ENDBRANCH  15  18
ENDBRANCH  14  15
ENDBRANCH   1  14
TORSDOF 7
ENDMDL
MODEL 2
REMARK VINA RESULT:      -4.4      1.953      6.131
REMARK  7 active torsions:
REMARK  status: ('A' for Active; 'I' for Inactive)
REMARK    1  A    between atoms: C_7  and  S_1 
REMARK    2  A    between atoms: N_11  and  S_1 
REMARK    3  A    between atoms: C_5  and  C_2 
REMARK    4  A    between atoms: C_6  and  C_15 
REMARK    5  A    between atoms: C_18  and  N_11 
REMARK    6  A    between atoms: C_15  and  C_18 
REMARK    7  A    between atoms: O_21  and  C_17 
ROOT
ATOM      1  C   UNL d   1     -41.457-122.581 -51.260  0.00  0.00     0.114 C 
ENDROOT
BRANCH   1   2
ATOM      2  C   UNL d   1     -41.123-122.220 -51.920  0.00  0.00     0.041 C 
BRANCH   2   3
ATOM      3  C   UNL d   1     -41.293-122.493 -52.684  0.00  0.00     0.090 A 
ATOM      4  N   UNL d   1     -41.638-122.041 -53.290  0.00  0.00    -0.238 NA
ATOM      5  C   UNL d   1     -41.708-122.531 -53.958  0.00  0.00     0.112 A 
ATOM      6  S   UNL d   1     -41.409-123.279 -53.767  0.00  0.00    -0.066 SA
ATOM      7  C   UNL d   1     -41.152-123.256 -52.975  0.00  0.00     0.056 A 
BRANCH   5   8
ATOM      8  C   UNL d   1     -42.024-122.313 -54.699  0.00  0.00     0.043 A 
ATOM      9  C   UNL d   1     -42.836-122.376 -54.836  0.00  0.00     0.101 A 
ATOM     10  N   UNL d   1     -43.145-122.162 -55.560  0.00  0.00    -0.242 NA
ATOM     11  C   UNL d   1     -42.647-121.885 -56.152  0.00  0.00     0.099 A 
ATOM     12  C   UNL d   1     -41.820-121.822 -56.010  0.00  0.00     0.021 A 
ATOM     13  C   UNL d   1     -41.511-122.036 -55.282  0.00  0.00     0.005 A 
ENDBRANCH   5   8
ENDBRANCH   2   3
ENDBRANCH   1   2
BRANCH   1  14
ATOM     14  N   UNL d   1     -41.834-122.110 -50.673  0.00  0.00    -0.157 NA
BRANCH  14  15
ATOM     15  S   UNL d   1     -42.039-122.456 -49.947  0.00  0.00     0.285 S 
ATOM     16  O   UNL d   1     -41.274-122.285 -49.657  0.00  0.00    -0.198 OA
ATOM     17  O   UNL d   1     -42.801-122.627 -50.233  0.00  0.00    -0.198 OA
BRANCH  15  18
ATOM     18  C   UNL d   1     -42.234-122.798 -49.221  0.00  0.00     0.105 A 
ATOM     19  C   UNL d   1     -41.970-122.442 -48.527  0.00  0.00     0.015 A 
ATOM     20  C   UNL d   1     -42.165-122.786 -47.791  0.00  0.00     0.025 A 
ATOM     21  C   UNL d   1     -42.616-123.469 -47.764  0.00  0.00     0.094 A 
ATOM     22  C   UNL d   1     -42.875-123.817 -48.461  0.00  0.00     0.025 A 
ATOM     23  C   UNL d   1     -42.692-123.492 -49.193  0.00  0.00     0.015 A 
BRANCH  21  24
ATOM     24  O   UNL d   1     -42.811-123.811 -47.037  0.00  0.00    -0.328 OA
ATOM     25  C   UNL d   1     -43.579-123.741 -46.744  0.00  0.00     0.181 C 
ENDBRANCH  21  24
ENDBRANCH  15  18
ENDBRANCH  14  15
ENDBRANCH   1  14
TORSDOF 7
ENDMDL
