MODEL 1
REMARK VINA RESULT:      -4.6      0.000      0.000
REMARK  4 active torsions:
REMARK  status: ('A' for Active; 'I' for Inactive)
REMARK    1  A    between atoms: C_14  and  C_4 
REMARK       I    between atoms: C_6  and  N_8 
REMARK    2  A    between atoms: C_9  and  C_6 
REMARK    3  A    between atoms: N_8  and  C_14 
REMARK    4  A    between atoms: O_16  and  C_15 
ROOT
ATOM      1  C   UNL d   1      56.636  -0.670  32.229  0.00  0.00     0.279 C 
ATOM      2  N   UNL d   1      57.071  -0.297  31.638  0.00  0.00    -0.205 NA
ATOM      3  O   UNL d   1      56.506  -1.485  32.190  0.00  0.00    -0.265 OA
ENDROOT
BRANCH   1   4
ATOM      4  C   UNL d   1      56.333  -0.231  32.853  0.00  0.00     0.060 A 
ATOM      5  C   UNL d   1      55.517  -0.187  32.968  0.00  0.00     0.029 A 
ATOM      6  C   UNL d   1      55.221   0.258  33.600  0.00  0.00     0.094 A 
ATOM      7  C   UNL d   1      55.735   0.659  34.115  0.00  0.00     0.024 A 
ATOM      8  C   UNL d   1      56.545   0.612  33.995  0.00  0.00     0.002 A 
ATOM      9  C   UNL d   1      56.856   0.170  33.367  0.00  0.00     0.005 A 
BRANCH   6  10
ATOM     10  O   UNL d   1      54.410   0.300  33.713  0.00  0.00    -0.328 OA
ATOM     11  C   UNL d   1      54.107   0.682  34.388  0.00  0.00     0.181 C 
ENDBRANCH   6  10
ENDBRANCH   1   4
BRANCH   2  12
ATOM     12  C   UNL d   1      57.375  -0.735  31.012  0.00  0.00     0.123 C 
BRANCH  12  13
ATOM     13  C   UNL d   1      57.893  -0.388  30.475  0.00  0.00     0.120 A 
ATOM     14  N   UNL d   1      57.686  -0.027  29.764  0.00  0.00    -0.219 NA
ATOM     15  C   UNL d   1      58.377   0.245  29.401  0.00  0.00     0.180 A 
ATOM     16  N   UNL d   1      59.021   0.050  29.896  0.00  0.00    -0.282 N 
ATOM     17  S   UNL d   1      58.678   0.635  28.741  0.00  0.00    -0.048 SA
ATOM     18  C   UNL d   1      58.715  -0.341  30.559  0.00  0.00     0.103 A 
ATOM     19  C   UNL d   1      59.704   0.322  29.534  0.00  0.00     0.089 A 
ATOM     20  C   UNL d   1      59.501   0.681  28.826  0.00  0.00     0.057 A 
ENDBRANCH  12  13
ENDBRANCH   2  12
TORSDOF 4
ENDMDL
MODEL 2
REMARK VINA RESULT:      -4.6      1.505      2.069
REMARK  4 active torsions:
REMARK  status: ('A' for Active; 'I' for Inactive)
REMARK    1  A    between atoms: C_14  and  C_4 
REMARK       I    between atoms: C_6  and  N_8 
REMARK    2  A    between atoms: C_9  and  C_6 
REMARK    3  A    between atoms: N_8  and  C_14 
REMARK    4  A    between atoms: O_16  and  C_15 
ROOT
ATOM      1  C   UNL d   1      57.419   0.182  30.795  0.00  0.00     0.279 C 
ATOM      2  N   UNL d   1      58.120  -0.172  30.546  0.00  0.00    -0.205 NA
ATOM      3  O   UNL d   1      57.006   0.681  30.281  0.00  0.00    -0.265 OA
ENDROOT
BRANCH   1   4
ATOM      4  C   UNL d   1      57.133   0.036  31.550  0.00  0.00     0.060 A 
ATOM      5  C   UNL d   1      56.738  -0.670  31.713  0.00  0.00     0.029 A 
ATOM      6  C   UNL d   1      56.454  -0.807  32.478  0.00  0.00     0.094 A 
ATOM      7  C   UNL d   1      56.562  -0.245  33.080  0.00  0.00     0.024 A 
ATOM      8  C   UNL d   1      56.956   0.455  32.911  0.00  0.00     0.002 A 
ATOM      9  C   UNL d   1      57.246   0.606  32.150  0.00  0.00     0.005 A 
BRANCH   6  10
ATOM     10  O   UNL d   1      56.061  -1.510  32.637  0.00  0.00    -0.328 OA
ATOM     11  C   UNL d   1      55.574  -1.566  33.309  0.00  0.00     0.181 C 
ENDBRANCH   6  10
ENDBRANCH   1   4
BRANCH   2  12
ATOM     12  C   UNL d   1      58.407  -0.027  29.789  0.00  0.00     0.123 C 
BRANCH  12  13
ATOM     13  C   UNL d   1      59.073  -0.426  29.515  0.00  0.00     0.120 A 
ATOM     14  N   UNL d   1      59.081  -1.167  29.155  0.00  0.00    -0.219 NA
ATOM     15  C   UNL d   1      59.864  -1.356  28.969  0.00  0.00     0.180 A 
ATOM     16  N   UNL d   1      60.346  -0.721  29.217  0.00  0.00    -0.282 N 
ATOM     17  S   UNL d   1      60.354  -1.926  28.633  0.00  0.00    -0.048 SA
ATOM     18  C   UNL d   1      59.852  -0.149  29.554  0.00  0.00     0.103 A 
ATOM     19  C   UNL d   1      61.122  -0.911  29.031  0.00  0.00     0.089 A 
ATOM     20  C   UNL d   1      61.133  -1.648  28.673  0.00  0.00     0.057 A 
ENDBRANCH  12  13
ENDBRANCH   2  12
TORSDOF 4
ENDMDL
MODEL 3
REMARK VINA RESULT:      -4.3      2.235      5.039
REMARK  4 active torsions:
REMARK  status: ('A' for Active; 'I' for Inactive)
REMARK    1  A    between atoms: C_14  and  C_4 
REMARK       I    between atoms: C_6  and  N_8 
REMARK    2  A    between atoms: C_9  and  C_6 
REMARK    3  A    between atoms: N_8  and  C_14 
REMARK    4  A    between atoms: O_16  and  C_15 
ROOT
ATOM      1  C   UNL d   1      58.346  -0.142  29.633  0.00  0.00     0.279 C 
ATOM      2  N   UNL d   1      58.036  -0.281  30.383  0.00  0.00    -0.205 NA
ATOM      3  O   UNL d   1      58.017   0.447  29.156  0.00  0.00    -0.265 OA
ENDROOT
BRANCH   1   4
ATOM      4  C   UNL d   1      58.979  -0.589  29.363  0.00  0.00     0.060 A 
ATOM      5  C   UNL d   1      58.848  -1.338  29.043  0.00  0.00     0.029 A 
ATOM      6  C   UNL d   1      59.493  -1.781  28.774  0.00  0.00     0.094 A 
ATOM      7  C   UNL d   1      60.266  -1.481  28.822  0.00  0.00     0.024 A 
ATOM      8  C   UNL d   1      60.389  -0.735  29.142  0.00  0.00     0.002 A 
ATOM      9  C   UNL d   1      59.753  -0.280  29.416  0.00  0.00     0.005 A 
BRANCH   6  10
ATOM     10  O   UNL d   1      59.360  -2.526  28.455  0.00  0.00    -0.328 OA
ATOM     11  C   UNL d   1      59.724  -3.191  28.798  0.00  0.00     0.181 C 
ENDBRANCH   6  10
ENDBRANCH   1   4
BRANCH   2  12
ATOM     12  C   UNL d   1      57.401   0.166  30.655  0.00  0.00     0.123 C 
BRANCH  12  13
ATOM     13  C   UNL d   1      57.032  -0.027  31.365  0.00  0.00     0.120 A 
ATOM     14  N   UNL d   1      56.717  -0.761  31.565  0.00  0.00    -0.219 NA
ATOM     15  C   UNL d   1      56.401  -0.709  32.326  0.00  0.00     0.180 A 
ATOM     16  N   UNL d   1      56.523   0.070  32.602  0.00  0.00    -0.282 N 
ATOM     17  S   UNL d   1      56.012  -1.126  32.921  0.00  0.00    -0.048 SA
ATOM     18  C   UNL d   1      56.914   0.488  32.003  0.00  0.00     0.103 A 
ATOM     19  C   UNL d   1      56.209   0.119  33.357  0.00  0.00     0.089 A 
ATOM     20  C   UNL d   1      55.895  -0.610  33.559  0.00  0.00     0.057 A 
ENDBRANCH  12  13
ENDBRANCH   2  12
TORSDOF 4
ENDMDL
MODEL 4
REMARK VINA RESULT:      -3.0      9.245      9.910
REMARK  4 active torsions:
REMARK  status: ('A' for Active; 'I' for Inactive)
REMARK    1  A    between atoms: C_14  and  C_4 
REMARK       I    between atoms: C_6  and  N_8 
REMARK    2  A    between atoms: C_9  and  C_6 
REMARK    3  A    between atoms: N_8  and  C_14 
REMARK    4  A    between atoms: O_16  and  C_15 
ROOT
ATOM      1  C   UNL d   1      59.959  -9.362  33.918  0.00  0.00     0.279 C 
ATOM      2  N   UNL d   1      59.330  -9.537  33.417  0.00  0.00    -0.205 NA
ATOM      3  O   UNL d   1      60.735  -9.468  33.656  0.00  0.00    -0.265 OA
ENDROOT
BRANCH   1   4
ATOM      4  C   UNL d   1      59.812  -9.082  34.676  0.00  0.00     0.060 A 
ATOM      5  C   UNL d   1      59.712  -8.273  34.804  0.00  0.00     0.029 A 
ATOM      6  C   UNL d   1      59.564  -8.000  35.571  0.00  0.00     0.094 A 
ATOM      7  C   UNL d   1      59.516  -8.530  36.209  0.00  0.00     0.024 A 
ATOM      8  C   UNL d   1      59.617  -9.333  36.075  0.00  0.00     0.002 A 
ATOM      9  C   UNL d   1      59.765  -9.620  35.312  0.00  0.00     0.005 A 
BRANCH   6  10
ATOM     10  O   UNL d   1      59.465  -7.195  35.696  0.00  0.00    -0.328 OA
ATOM     11  C   UNL d   1      59.871  -6.822  36.319  0.00  0.00     0.181 C 
ENDBRANCH   6  10
ENDBRANCH   1   4
BRANCH   2  12
ATOM     12  C   UNL d   1      59.475  -9.818  32.657  0.00  0.00     0.123 C 
BRANCH  12  13
ATOM     13  C   UNL d   1      58.877  -9.815  32.093  0.00  0.00     0.120 A 
ATOM     14  N   UNL d   1      58.980  -9.810  31.275  0.00  0.00    -0.219 NA
ATOM     15  C   UNL d   1      58.233  -9.809  30.921  0.00  0.00     0.180 A 
ATOM     16  N   UNL d   1      57.661  -9.814  31.528  0.00  0.00    -0.282 N 
ATOM     17  S   UNL d   1      57.834  -9.805  30.200  0.00  0.00    -0.048 SA
ATOM     18  C   UNL d   1      58.064  -9.818  32.251  0.00  0.00     0.103 A 
ATOM     19  C   UNL d   1      56.922  -9.813  31.173  0.00  0.00     0.089 A 
ATOM     20  C   UNL d   1      57.021  -9.807  30.360  0.00  0.00     0.057 A 
ENDBRANCH  12  13
ENDBRANCH   2  12
TORSDOF 4
ENDMDL
MODEL 5
REMARK VINA RESULT:      -2.0      9.731      9.990
REMARK  4 active torsions:
REMARK  status: ('A' for Active; 'I' for Inactive)
REMARK    1  A    between atoms: C_14  and  C_4 
REMARK       I    between atoms: C_6  and  N_8 
REMARK    2  A    between atoms: C_9  and  C_6 
REMARK    3  A    between atoms: N_8  and  C_14 
REMARK    4  A    between atoms: O_16  and  C_15 
ROOT
ATOM      1  C   UNL d   1      58.550  -9.593  33.191  0.00  0.00     0.279 C 
ATOM      2  N   UNL d   1      58.554  -9.539  32.370  0.00  0.00    -0.205 NA
ATOM      3  O   UNL d   1      57.858  -9.817  33.585  0.00  0.00    -0.265 OA
ENDROOT
BRANCH   1   4
ATOM      4  C   UNL d   1      59.232  -9.425  33.615  0.00  0.00     0.060 A 
ATOM      5  C   UNL d   1      59.204  -8.894  34.247  0.00  0.00     0.029 A 
ATOM      6  C   UNL d   1      59.897  -8.731  34.668  0.00  0.00     0.094 A 
ATOM      7  C   UNL d   1      60.616  -9.093  34.463  0.00  0.00     0.024 A 
ATOM      8  C   UNL d   1      60.637  -9.620  33.834  0.00  0.00     0.002 A 
ATOM      9  C   UNL d   1      59.951  -9.793  33.403  0.00  0.00     0.005 A 
BRANCH   6  10
ATOM     10  O   UNL d   1      59.868  -8.203  35.296  0.00  0.00    -0.328 OA
ATOM     11  C   UNL d   1      60.069  -8.461  36.061  0.00  0.00     0.181 C 
ENDBRANCH   6  10
ENDBRANCH   1   4
BRANCH   2  12
ATOM     12  C   UNL d   1      57.870  -9.708  31.943  0.00  0.00     0.123 C 
BRANCH  12  13
ATOM     13  C   UNL d   1      57.891  -9.734  31.121  0.00  0.00     0.120 A 
ATOM     14  N   UNL d   1      58.568  -9.764  30.652  0.00  0.00    -0.219 NA
ATOM     15  C   UNL d   1      58.333  -9.785  29.861  0.00  0.00     0.180 A 
ATOM     16  N   UNL d   1      57.499  -9.767  29.839  0.00  0.00    -0.282 N 
ATOM     17  S   UNL d   1      58.603  -9.816  29.083  0.00  0.00    -0.048 SA
ATOM     18  C   UNL d   1      57.230  -9.736  30.622  0.00  0.00     0.103 A 
ATOM     19  C   UNL d   1      57.270  -9.787  29.052  0.00  0.00     0.089 A 
ATOM     20  C   UNL d   1      57.941  -9.817  28.584  0.00  0.00     0.057 A 
ENDBRANCH  12  13
ENDBRANCH   2  12
TORSDOF 4
ENDMDL
