MODEL 1
REMARK VINA RESULT:      71.9      0.000      0.000
REMARK  6 active torsions:
REMARK  status: ('A' for Active; 'I' for Inactive)
REMARK    1  A    between atoms: C_5  and  C_1 
REMARK    2  A    between atoms: O_8  and  C_5 
REMARK    3  A    between atoms: C_9  and  O_8 
REMARK    4  A    between atoms: C_14  and  C_10 
REMARK    5  A    between atoms: O_20  and  C_11 
REMARK    6  A    between atoms: O_21  and  C_16 
ROOT
ATOM      1  C   UNL d   1     -55.312-101.861 -42.369  0.00  0.00     0.305 C 
ATOM      2  O   UNL d   1     -55.741-102.566 -42.329  0.00  0.00    -0.259 OA
ENDROOT
BRANCH   1   3
ATOM      3  C   UNL d   1     -55.481-101.307 -42.966  0.00  0.00     0.127 A 
ATOM      4  C   UNL d   1     -56.135-101.437 -43.469  0.00  0.00     0.305 A 
ATOM      5  O   UNL d   1     -56.306-100.890 -44.062  0.00  0.00    -0.271 OA
ATOM      6  O   UNL d   1     -56.603-102.104 -43.372  0.00  0.00    -0.259 OA
ATOM      7  C   UNL d   1     -55.832-100.221 -44.154  0.00  0.00     0.125 A 
ATOM      8  C   UNL d   1     -55.184-100.093 -43.656  0.00  0.00     0.025 A 
ATOM      9  C   UNL d   1     -56.003 -99.674 -44.748  0.00  0.00     0.117 A 
ATOM     10  C   UNL d   1     -55.008-100.645 -43.054  0.00  0.00     0.013 A 
ATOM     11  C   UNL d   1     -54.713 -99.425 -43.751  0.00  0.00     0.002 A 
ATOM     12  C   UNL d   1     -54.886 -98.885 -44.341  0.00  0.00     0.002 A 
ATOM     13  C   UNL d   1     -55.532 -99.006 -44.842  0.00  0.00     0.026 A 
BRANCH   9  14
ATOM     14  O   UNL d   1     -56.643 -99.799 -45.243  0.00  0.00    -0.326 OA
ATOM     15  C   UNL d   1     -57.194 -99.193 -45.373  0.00  0.00     0.181 C 
ENDBRANCH   9  14
ENDBRANCH   1   3
BRANCH   1  16
ATOM     16  O   UNL d   1     -54.717-101.708 -41.818  0.00  0.00    -0.271 OA
BRANCH  16  17
ATOM     17  C   UNL d   1     -54.863-101.821 -41.014  0.00  0.00     0.126 A 
ATOM     18  C   UNL d   1     -54.927-101.169 -40.512  0.00  0.00     0.117 A 
ATOM     19  C   UNL d   1     -55.072-101.275 -39.711  0.00  0.00     0.029 A 
ATOM     20  C   UNL d   1     -55.154-102.047 -39.405  0.00  0.00     0.041 A 
ATOM     21  C   UNL d   1     -55.090-102.699 -39.907  0.00  0.00     0.005 A 
ATOM     22  C   UNL d   1     -54.944-102.586 -40.711  0.00  0.00     0.027 A 
BRANCH  18  23
ATOM     23  O   UNL d   1     -54.844-100.407 -40.822  0.00  0.00    -0.326 OA
ATOM     24  C   UNL d   1     -54.718 -99.764 -40.317  0.00  0.00     0.181 C 
ENDBRANCH  18  23
BRANCH  20  25
ATOM     25  C   UNL d   1     -55.301-102.156 -38.590  0.00  0.00     0.196 C 
ATOM     26  O   UNL d   1     -55.121-101.549 -38.058  0.00  0.00    -0.287 OA
ATOM     27  C   UNL d   1     -55.627-102.870 -38.321  0.00  0.00     0.045 C 
ENDBRANCH  20  25
ENDBRANCH  16  17
ENDBRANCH   1  16
TORSDOF 6
ENDMDL
