MODEL 1
REMARK VINA RESULT:      52.2      0.000      0.000
REMARK  6 active torsions:
REMARK  status: ('A' for Active; 'I' for Inactive)
REMARK       I    between atoms: C_2  and  N_1 
REMARK    1  A    between atoms: C_8  and  C_2 
REMARK    2  A    between atoms: C_11  and  C_3 
REMARK       I    between atoms: C_4  and  N_6 
REMARK    3  A    between atoms: C_5  and  C_4 
REMARK       I    between atoms: N_7  and  C_5 
REMARK    4  A    between atoms: N_6  and  C_11 
REMARK    5  A    between atoms: C_17  and  N_7 
REMARK    6  A    between atoms: C_20  and  C_17 
ROOT
ATOM      1  C   UNL d   1      14.765  15.703  -2.587  0.00  0.00     0.146 C 
ENDROOT
BRANCH   1   2
ATOM      2  N   UNL d   1      15.177  16.380  -2.360  0.00  0.00    -0.199 NA
ATOM      3  C   UNL d   1      15.226  16.580  -1.566  0.00  0.00     0.337 C 
ATOM      4  O   UNL d   1      15.637  17.258  -1.339  0.00  0.00    -0.260 OA
BRANCH   3   5
ATOM      5  C   UNL d   1      14.866  16.109  -0.989  0.00  0.00     0.337 C 
ATOM      6  N   UNL d   1      15.295  15.538  -0.598  0.00  0.00    -0.202 NA
ATOM      7  O   UNL d   1      14.069  16.221  -0.811  0.00  0.00    -0.260 OA
BRANCH   6   8
ATOM      8  C   UNL d   1      14.935  15.066  -0.021  0.00  0.00     0.102 C 
BRANCH   8   9
ATOM      9  C   UNL d   1      15.034  14.252  -0.025  0.00  0.00     0.019 A 
ATOM     10  C   UNL d   1      15.779  13.915  -0.029  0.00  0.00     0.002 A 
ATOM     11  C   UNL d   1      15.889  13.108  -0.033  0.00  0.00     0.011 A 
ATOM     12  C   UNL d   1      15.219  12.607  -0.033  0.00  0.00     0.058 A 
ATOM     13  C   UNL d   1      14.462  12.931  -0.029  0.00  0.00     0.011 A 
ATOM     14 CL   UNL d   1      15.322  11.779  -0.037  0.00  0.00    -0.082 Cl
ATOM     15  C   UNL d   1      14.364  13.751  -0.025  0.00  0.00     0.002 A 
ENDBRANCH   8   9
ENDBRANCH   6   8
ENDBRANCH   3   5
ENDBRANCH   1   2
BRANCH   1  16
ATOM     16  C   UNL d   1      14.310  15.707  -3.272  0.00  0.00     0.190 A 
ATOM     17  N   UNL d   1      14.014  15.041  -3.655  0.00  0.00    -0.250 N 
ATOM     18  C   UNL d   1      14.118  14.252  -3.422  0.00  0.00     0.266 C 
ATOM     19  C   UNL d   1      13.593  15.304  -4.313  0.00  0.00     0.112 A 
ATOM     20  O   UNL d   1      14.553  14.073  -2.749  0.00  0.00    -0.267 OA
ATOM     21  C   UNL d   1      13.626  16.132  -4.343  0.00  0.00     0.144 A 
ATOM     22  O   UNL d   1      14.071  16.382  -3.698  0.00  0.00    -0.285 OA
BRANCH  18  23
ATOM     23  C   UNL d   1      13.777  13.634  -3.875  0.00  0.00     0.057 A 
ATOM     24  C   UNL d   1      13.367  13.031  -3.504  0.00  0.00     0.006 A 
ATOM     25  C   UNL d   1      13.032  12.423  -3.951  0.00  0.00     0.012 A 
ATOM     26  C   UNL d   1      13.111  12.424  -4.769  0.00  0.00     0.058 A 
ATOM     27  C   UNL d   1      13.526  13.035  -5.144  0.00  0.00     0.012 A 
ATOM     28 CL   UNL d   1      12.771  11.808  -5.220  0.00  0.00    -0.082 Cl
ATOM     29  C   UNL d   1      13.854  13.632  -4.697  0.00  0.00     0.006 A 
ENDBRANCH  18  23
ENDBRANCH   1  16
TORSDOF 6
ENDMDL
MODEL 2
REMARK VINA RESULT:      53.9      1.761      3.833
REMARK  6 active torsions:
REMARK  status: ('A' for Active; 'I' for Inactive)
REMARK       I    between atoms: C_2  and  N_1 
REMARK    1  A    between atoms: C_8  and  C_2 
REMARK    2  A    between atoms: C_11  and  C_3 
REMARK       I    between atoms: C_4  and  N_6 
REMARK    3  A    between atoms: C_5  and  C_4 
REMARK       I    between atoms: N_7  and  C_5 
REMARK    4  A    between atoms: N_6  and  C_11 
REMARK    5  A    between atoms: C_17  and  N_7 
REMARK    6  A    between atoms: C_20  and  C_17 
ROOT
ATOM      1  C   UNL d   1      13.831  14.485  -4.139  0.00  0.00     0.146 C 
ENDROOT
BRANCH   1   2
ATOM      2  N   UNL d   1      14.006  13.959  -4.748  0.00  0.00    -0.199 NA
ATOM      3  C   UNL d   1      13.804  13.167  -4.674  0.00  0.00     0.337 C 
ATOM      4  O   UNL d   1      13.980  12.640  -5.284  0.00  0.00    -0.260 OA
BRANCH   3   5
ATOM      5  C   UNL d   1      13.425  12.890  -3.993  0.00  0.00     0.337 C 
ATOM      6  N   UNL d   1      13.696  12.224  -3.612  0.00  0.00    -0.202 NA
ATOM      7  O   UNL d   1      12.769  13.295  -3.701  0.00  0.00    -0.260 OA
BRANCH   6   8
ATOM      8  C   UNL d   1      13.316  11.948  -2.931  0.00  0.00     0.102 C 
BRANCH   8   9
ATOM      9  C   UNL d   1      13.718  11.906  -2.216  0.00  0.00     0.019 A 
ATOM     10  C   UNL d   1      13.316  11.879  -1.504  0.00  0.00     0.002 A 
ATOM     11  C   UNL d   1      13.705  11.838  -0.790  0.00  0.00     0.011 A 
ATOM     12  C   UNL d   1      14.542  11.822  -0.783  0.00  0.00     0.058 A 
ATOM     13  C   UNL d   1      14.960  11.848  -1.491  0.00  0.00     0.011 A 
ATOM     14 CL   UNL d   1      14.947  11.779  -0.055  0.00  0.00    -0.082 Cl
ATOM     15  C   UNL d   1      14.555  11.890  -2.209  0.00  0.00     0.002 A 
ENDBRANCH   8   9
ENDBRANCH   6   8
ENDBRANCH   3   5
ENDBRANCH   1   2
BRANCH   1  16
ATOM     16  C   UNL d   1      14.148  15.244  -4.147  0.00  0.00     0.190 A 
ATOM     17  N   UNL d   1      14.419  15.656  -3.487  0.00  0.00    -0.250 N 
ATOM     18  C   UNL d   1      14.422  15.385  -2.704  0.00  0.00     0.266 C 
ATOM     19  C   UNL d   1      14.687  16.389  -3.751  0.00  0.00     0.112 A 
ATOM     20  O   UNL d   1      14.135  14.637  -2.523  0.00  0.00    -0.267 OA
ATOM     21  C   UNL d   1      14.585  16.437  -4.572  0.00  0.00     0.144 A 
ATOM     22  O   UNL d   1      14.251  15.727  -4.818  0.00  0.00    -0.285 OA
BRANCH  18  23
ATOM     23  C   UNL d   1      14.719  15.876  -2.093  0.00  0.00     0.057 A 
ATOM     24  C   UNL d   1      14.849  16.672  -2.231  0.00  0.00     0.006 A 
ATOM     25  C   UNL d   1      15.141  17.155  -1.628  0.00  0.00     0.012 A 
ATOM     26  C   UNL d   1      15.302  16.835  -0.888  0.00  0.00     0.058 A 
ATOM     27  C   UNL d   1      15.171  16.029  -0.749  0.00  0.00     0.012 A 
ATOM     28 CL   UNL d   1      15.598  17.324  -0.279  0.00  0.00    -0.082 Cl
ATOM     29  C   UNL d   1      14.882  15.558  -1.348  0.00  0.00     0.006 A 
ENDBRANCH  18  23
ENDBRANCH   1  16
TORSDOF 6
ENDMDL
