MODEL 1
REMARK VINA RESULT:      -5.8      0.000      0.000
REMARK  9 active torsions:
REMARK  status: ('A' for Active; 'I' for Inactive)
REMARK    1  A    between atoms: N_2  and  S_1 
REMARK    2  A    between atoms: C_9  and  S_1 
REMARK    3  A    between atoms: C_4  and  N_2 
REMARK    4  A    between atoms: O_24  and  C_6 
REMARK    5  A    between atoms: O_26  and  C_7 
REMARK       I    between atoms: C_12  and  N_15 
REMARK    6  A    between atoms: C_22  and  C_12 
REMARK    7  A    between atoms: C_14  and  O_16 
REMARK    8  A    between atoms: N_15  and  C_23 
REMARK    9  A    between atoms: O_16  and  C_22 
ROOT
ATOM      1  C   UNL d   1     -45.554  12.706  22.662  0.00  0.00     0.105 A 
ATOM      2  C   UNL d   1     -45.432  13.279  22.090  0.00  0.00     0.015 A 
ATOM      3  C   UNL d   1     -44.973  12.128  22.804  0.00  0.00     0.015 A 
ATOM      4  C   UNL d   1     -44.163  12.717  21.793  0.00  0.00     0.085 A 
ATOM      5  C   UNL d   1     -44.740  13.306  21.640  0.00  0.00     0.020 A 
ATOM      6  C   UNL d   1     -44.283  12.146  22.362  0.00  0.00     0.020 A 
ENDROOT
BRANCH   1   7
ATOM      7  S   UNL d   1     -46.245  12.686  23.106  0.00  0.00     0.287 S 
ATOM      8  O   UNL d   1     -46.015  13.413  23.492  0.00  0.00    -0.198 OA
ATOM      9  O   UNL d   1     -46.487  11.980  22.743  0.00  0.00    -0.198 OA
BRANCH   7  10
ATOM     10  N   UNL d   1     -46.944  12.688  23.570  0.00  0.00    -0.139 NA
BRANCH  10  11
ATOM     11  C   UNL d   1     -47.674  12.865  23.250  0.00  0.00     0.182 A 
ATOM     12  N   UNL d   1     -47.860  13.616  23.044  0.00  0.00    -0.185 NA
ATOM     13  C   UNL d   1     -48.605  13.812  22.715  0.00  0.00     0.274 A 
ATOM     14  N   UNL d   1     -49.154  13.224  22.600  0.00  0.00    -0.181 NA
ATOM     15  C   UNL d   1     -48.987  12.456  22.801  0.00  0.00     0.185 A 
ATOM     16  C   UNL d   1     -48.216  12.270  23.139  0.00  0.00     0.084 A 
BRANCH  13  17
ATOM     17  O   UNL d   1     -48.796  14.600  22.500  0.00  0.00    -0.297 OA
ATOM     18  C   UNL d   1     -49.138  15.114  23.046  0.00  0.00     0.185 C 
ENDBRANCH  13  17
BRANCH  15  19
ATOM     19  O   UNL d   1     -49.575  11.873  22.669  0.00  0.00    -0.312 OA
ATOM     20  C   UNL d   1     -50.140  11.738  23.270  0.00  0.00     0.183 C 
ENDBRANCH  15  19
ENDBRANCH  10  11
ENDBRANCH   7  10
ENDBRANCH   1   7
BRANCH   4  21
ATOM     21  N   UNL d   1     -43.455  12.713  21.360  0.00  0.00    -0.206 NA
ATOM     22  C   UNL d   1     -42.995  13.416  21.356  0.00  0.00     0.304 C 
ATOM     23  O   UNL d   1     -43.234  14.055  21.754  0.00  0.00    -0.263 OA
BRANCH  22  24
ATOM     24  C   UNL d   1     -42.291  13.412  20.925  0.00  0.00     0.185 C 
BRANCH  24  25
ATOM     25  O   UNL d   1     -41.646  13.857  21.171  0.00  0.00    -0.300 OA
BRANCH  25  26
ATOM     26  C   UNL d   1     -41.043  14.028  20.612  0.00  0.00     0.100 A 
ATOM     27  C   UNL d   1     -40.263  14.169  20.830  0.00  0.00     0.023 A 
ATOM     28  C   UNL d   1     -39.687  14.334  20.278  0.00  0.00     0.002 A 
ATOM     29  C   UNL d   1     -40.032  14.145  21.650  0.00  0.00     0.002 C 
ATOM     30  C   UNL d   1     -39.881  14.362  19.496  0.00  0.00     0.000 A 
ATOM     31  C   UNL d   1     -40.662  14.226  19.236  0.00  0.00     0.002 A 
ATOM     32  C   UNL d   1     -39.305  14.531  18.916  0.00  0.00     0.000 C 
ATOM     33  C   UNL d   1     -41.237  14.060  19.789  0.00  0.00     0.025 A 
ENDBRANCH  25  26
ENDBRANCH  24  25
ENDBRANCH  22  24
ENDBRANCH   4  21
TORSDOF 9
ENDMDL
MODEL 2
REMARK VINA RESULT:      -5.2      2.641      7.532
REMARK  9 active torsions:
REMARK  status: ('A' for Active; 'I' for Inactive)
REMARK    1  A    between atoms: N_2  and  S_1 
REMARK    2  A    between atoms: C_9  and  S_1 
REMARK    3  A    between atoms: C_4  and  N_2 
REMARK    4  A    between atoms: O_24  and  C_6 
REMARK    5  A    between atoms: O_26  and  C_7 
REMARK       I    between atoms: C_12  and  N_15 
REMARK    6  A    between atoms: C_22  and  C_12 
REMARK    7  A    between atoms: C_14  and  O_16 
REMARK    8  A    between atoms: N_15  and  C_23 
REMARK    9  A    between atoms: O_16  and  C_22 
ROOT
ATOM      1  C   UNL d   1     -41.097  14.288  20.389  0.00  0.00     0.105 A 
ATOM      2  C   UNL d   1     -41.706  14.796  20.593  0.00  0.00     0.015 A 
ATOM      3  C   UNL d   1     -41.102  13.501  20.659  0.00  0.00     0.015 A 
ATOM      4  C   UNL d   1     -42.330  13.757  21.331  0.00  0.00     0.085 A 
ATOM      5  C   UNL d   1     -42.337  14.553  21.066  0.00  0.00     0.020 A 
ATOM      6  C   UNL d   1     -41.726  13.250  21.129  0.00  0.00     0.020 A 
ENDROOT
BRANCH   1   7
ATOM      7  S   UNL d   1     -40.472  14.538  19.918  0.00  0.00     0.287 S 
ATOM      8  O   UNL d   1     -40.677  15.351  20.083  0.00  0.00    -0.198 OA
ATOM      9  O   UNL d   1     -40.256  13.755  19.745  0.00  0.00    -0.198 OA
BRANCH   7  10
ATOM     10  N   UNL d   1     -39.840  14.818  19.442  0.00  0.00    -0.139 NA
BRANCH  10  11
ATOM     11  C   UNL d   1     -39.889  14.834  18.628  0.00  0.00     0.182 A 
ATOM     12  N   UNL d   1     -40.387  15.340  18.257  0.00  0.00    -0.185 NA
ATOM     13  C   UNL d   1     -40.447  15.367  17.422  0.00  0.00     0.274 A 
ATOM     14  N   UNL d   1     -39.988  14.867  16.975  0.00  0.00    -0.181 NA
ATOM     15  C   UNL d   1     -39.477  14.347  17.329  0.00  0.00     0.185 A 
ATOM     16  C   UNL d   1     -39.426  14.331  18.189  0.00  0.00     0.084 A 
BRANCH  13  17
ATOM     17  O   UNL d   1     -40.971  15.898  17.037  0.00  0.00    -0.297 OA
ATOM     18  C   UNL d   1     -41.599  15.617  16.583  0.00  0.00     0.185 C 
ENDBRANCH  13  17
BRANCH  15  19
ATOM     19  O   UNL d   1     -39.017  13.845  16.840  0.00  0.00    -0.312 OA
ATOM     20  C   UNL d   1     -38.274  14.122  16.575  0.00  0.00     0.183 C 
ENDBRANCH  15  19
ENDBRANCH  10  11
ENDBRANCH   7  10
ENDBRANCH   1   7
BRANCH   4  21
ATOM     21  N   UNL d   1     -42.949  13.477  21.808  0.00  0.00    -0.206 NA
ATOM     22  C   UNL d   1     -43.538  13.001  21.445  0.00  0.00     0.304 C 
ATOM     23  O   UNL d   1     -43.498  12.829  20.675  0.00  0.00    -0.263 OA
BRANCH  22  24
ATOM     24  C   UNL d   1     -44.153  12.723  21.919  0.00  0.00     0.185 C 
BRANCH  24  25
ATOM     25  O   UNL d   1     -44.802  13.198  22.087  0.00  0.00    -0.300 OA
BRANCH  25  26
ATOM     26  C   UNL d   1     -45.453  12.857  22.493  0.00  0.00     0.100 A 
ATOM     27  C   UNL d   1     -46.150  13.268  22.637  0.00  0.00     0.023 A 
ATOM     28  C   UNL d   1     -46.775  12.925  23.032  0.00  0.00     0.002 A 
ATOM     29  C   UNL d   1     -46.240  14.074  22.375  0.00  0.00     0.002 C 
ATOM     30  C   UNL d   1     -46.714  12.164  23.290  0.00  0.00     0.000 A 
ATOM     31  C   UNL d   1     -46.023  11.716  23.162  0.00  0.00     0.002 A 
ATOM     32  C   UNL d   1     -47.344  11.796  23.697  0.00  0.00     0.000 C 
ATOM     33  C   UNL d   1     -45.398  12.059  22.767  0.00  0.00     0.025 A 
ENDBRANCH  25  26
ENDBRANCH  24  25
ENDBRANCH  22  24
ENDBRANCH   4  21
TORSDOF 9
ENDMDL
MODEL 3
REMARK VINA RESULT:      -4.9      2.622      7.565
REMARK  9 active torsions:
REMARK  status: ('A' for Active; 'I' for Inactive)
REMARK    1  A    between atoms: N_2  and  S_1 
REMARK    2  A    between atoms: C_9  and  S_1 
REMARK    3  A    between atoms: C_4  and  N_2 
REMARK    4  A    between atoms: O_24  and  C_6 
REMARK    5  A    between atoms: O_26  and  C_7 
REMARK       I    between atoms: C_12  and  N_15 
REMARK    6  A    between atoms: C_22  and  C_12 
REMARK    7  A    between atoms: C_14  and  O_16 
REMARK    8  A    between atoms: N_15  and  C_23 
REMARK    9  A    between atoms: O_16  and  C_22 
ROOT
ATOM      1  C   UNL d   1     -41.239  14.439  20.464  0.00  0.00     0.105 A 
ATOM      2  C   UNL d   1     -41.216  13.657  20.708  0.00  0.00     0.015 A 
ATOM      3  C   UNL d   1     -41.882  14.923  20.675  0.00  0.00     0.015 A 
ATOM      4  C   UNL d   1     -42.460  13.824  21.370  0.00  0.00     0.085 A 
ATOM      5  C   UNL d   1     -41.818  13.325  21.164  0.00  0.00     0.020 A 
ATOM      6  C   UNL d   1     -42.485  14.601  21.128  0.00  0.00     0.020 A 
ENDROOT
BRANCH   1   7
ATOM      7  S   UNL d   1     -40.636  14.762  20.010  0.00  0.00     0.287 S 
ATOM      8  O   UNL d   1     -40.232  14.010  20.016  0.00  0.00    -0.198 OA
ATOM      9  O   UNL d   1     -41.012  15.502  19.992  0.00  0.00    -0.198 OA
BRANCH   7  10
ATOM     10  N   UNL d   1     -40.008  15.070  19.547  0.00  0.00    -0.139 NA
BRANCH  10  11
ATOM     11  C   UNL d   1     -39.961  14.938  18.743  0.00  0.00     0.182 A 
ATOM     12  N   UNL d   1     -39.295  14.639  18.414  0.00  0.00    -0.185 NA
ATOM     13  C   UNL d   1     -39.233  14.499  17.591  0.00  0.00     0.274 A 
ATOM     14  N   UNL d   1     -39.866  14.671  17.111  0.00  0.00    -0.181 NA
ATOM     15  C   UNL d   1     -40.551  14.975  17.422  0.00  0.00     0.185 A 
ATOM     16  C   UNL d   1     -40.599  15.114  18.271  0.00  0.00     0.084 A 
BRANCH  13  17
ATOM     17  O   UNL d   1     -38.533  14.186  17.250  0.00  0.00    -0.297 OA
ATOM     18  C   UNL d   1     -38.528  13.433  16.915  0.00  0.00     0.185 C 
ENDBRANCH  13  17
BRANCH  15  19
ATOM     19  O   UNL d   1     -41.185  15.142  16.900  0.00  0.00    -0.312 OA
ATOM     20  C   UNL d   1     -41.231  15.906  16.563  0.00  0.00     0.183 C 
ENDBRANCH  15  19
ENDBRANCH  10  11
ENDBRANCH   7  10
ENDBRANCH   1   7
BRANCH   4  21
ATOM     21  N   UNL d   1     -43.084  13.523  21.828  0.00  0.00    -0.206 NA
ATOM     22  C   UNL d   1     -43.614  12.984  21.461  0.00  0.00     0.304 C 
ATOM     23  O   UNL d   1     -43.515  12.774  20.706  0.00  0.00    -0.263 OA
BRANCH  22  24
ATOM     24  C   UNL d   1     -44.233  12.685  21.917  0.00  0.00     0.185 C 
BRANCH  24  25
ATOM     25  O   UNL d   1     -44.875  13.158  22.114  0.00  0.00    -0.300 OA
BRANCH  25  26
ATOM     26  C   UNL d   1     -45.524  12.804  22.513  0.00  0.00     0.100 A 
ATOM     27  C   UNL d   1     -46.217  13.215  22.683  0.00  0.00     0.023 A 
ATOM     28  C   UNL d   1     -46.840  12.860  23.071  0.00  0.00     0.002 A 
ATOM     29  C   UNL d   1     -46.303  14.031  22.457  0.00  0.00     0.002 C 
ATOM     30  C   UNL d   1     -46.782  12.088  23.295  0.00  0.00     0.000 A 
ATOM     31  C   UNL d   1     -46.096  11.640  23.140  0.00  0.00     0.002 A 
ATOM     32  C   UNL d   1     -47.410  11.707  23.693  0.00  0.00     0.000 C 
ATOM     33  C   UNL d   1     -45.473  11.995  22.752  0.00  0.00     0.025 A 
ENDBRANCH  25  26
ENDBRANCH  24  25
ENDBRANCH  22  24
ENDBRANCH   4  21
TORSDOF 9
ENDMDL
MODEL 4
REMARK VINA RESULT:      -3.9      1.653      7.205
REMARK  9 active torsions:
REMARK  status: ('A' for Active; 'I' for Inactive)
REMARK    1  A    between atoms: N_2  and  S_1 
REMARK    2  A    between atoms: C_9  and  S_1 
REMARK    3  A    between atoms: C_4  and  N_2 
REMARK    4  A    between atoms: O_24  and  C_6 
REMARK    5  A    between atoms: O_26  and  C_7 
REMARK       I    between atoms: C_12  and  N_15 
REMARK    6  A    between atoms: C_22  and  C_12 
REMARK    7  A    between atoms: C_14  and  O_16 
REMARK    8  A    between atoms: N_15  and  C_23 
REMARK    9  A    between atoms: O_16  and  C_22 
ROOT
ATOM      1  C   UNL d   1     -43.221  12.987  21.488  0.00  0.00     0.105 A 
ATOM      2  C   UNL d   1     -43.455  12.301  21.870  0.00  0.00     0.015 A 
ATOM      3  C   UNL d   1     -43.731  13.642  21.458  0.00  0.00     0.015 A 
ATOM      4  C   UNL d   1     -44.698  12.903  22.196  0.00  0.00     0.085 A 
ATOM      5  C   UNL d   1     -44.194  12.234  22.233  0.00  0.00     0.020 A 
ATOM      6  C   UNL d   1     -44.467  13.585  21.817  0.00  0.00     0.020 A 
ENDROOT
BRANCH   1   7
ATOM      7  S   UNL d   1     -42.484  13.044  21.129  0.00  0.00     0.287 S 
ATOM      8  O   UNL d   1     -42.109  12.997  21.895  0.00  0.00    -0.198 OA
ATOM      9  O   UNL d   1     -42.828  13.092  20.375  0.00  0.00    -0.198 OA
BRANCH   7  10
ATOM     10  N   UNL d   1     -41.721  13.102  20.785  0.00  0.00    -0.139 NA
BRANCH  10  11
ATOM     11  C   UNL d   1     -41.411  13.816  20.542  0.00  0.00     0.182 A 
ATOM     12  N   UNL d   1     -41.270  14.403  21.069  0.00  0.00    -0.185 NA
ATOM     13  C   UNL d   1     -40.952  15.141  20.834  0.00  0.00     0.274 A 
ATOM     14  N   UNL d   1     -40.782  15.267  20.049  0.00  0.00    -0.181 NA
ATOM     15  C   UNL d   1     -40.916  14.687  19.498  0.00  0.00     0.185 A 
ATOM     16  C   UNL d   1     -41.243  13.933  19.756  0.00  0.00     0.084 A 
BRANCH  13  17
ATOM     17  O   UNL d   1     -40.806  15.753  21.389  0.00  0.00    -0.297 OA
ATOM     18  C   UNL d   1     -40.039  15.921  21.639  0.00  0.00     0.185 C 
ENDBRANCH  13  17
BRANCH  15  19
ATOM     19  O   UNL d   1     -40.729  14.849  18.697  0.00  0.00    -0.312 OA
ATOM     20  C   UNL d   1     -40.170  14.359  18.314  0.00  0.00     0.183 C 
ENDBRANCH  15  19
ENDBRANCH  10  11
ENDBRANCH   7  10
ENDBRANCH   1   7
BRANCH   4  21
ATOM     21  N   UNL d   1     -45.448  12.872  22.550  0.00  0.00    -0.206 NA
ATOM     22  C   UNL d   1     -46.115  12.782  22.047  0.00  0.00     0.304 C 
ATOM     23  O   UNL d   1     -46.024  12.729  21.264  0.00  0.00    -0.263 OA
BRANCH  22  24
ATOM     24  C   UNL d   1     -46.860  12.751  22.399  0.00  0.00     0.185 C 
BRANCH  24  25
ATOM     25  O   UNL d   1     -47.543  12.789  21.943  0.00  0.00    -0.300 OA
BRANCH  25  26
ATOM     26  C   UNL d   1     -48.271  12.560  22.293  0.00  0.00     0.100 A 
ATOM     27  C   UNL d   1     -48.997  12.844  22.031  0.00  0.00     0.023 A 
ATOM     28  C   UNL d   1     -49.697  12.614  22.380  0.00  0.00     0.002 A 
ATOM     29  C   UNL d   1     -49.038  13.393  21.381  0.00  0.00     0.002 C 
ATOM     30  C   UNL d   1     -49.683  12.095  22.997  0.00  0.00     0.000 A 
ATOM     31  C   UNL d   1     -48.966  11.786  23.289  0.00  0.00     0.002 A 
ATOM     32  C   UNL d   1     -50.390  11.848  23.366  0.00  0.00     0.000 C 
ATOM     33  C   UNL d   1     -48.266  12.017  22.940  0.00  0.00     0.025 A 
ENDBRANCH  25  26
ENDBRANCH  24  25
ENDBRANCH  22  24
ENDBRANCH   4  21
TORSDOF 9
ENDMDL
