MODEL 1
REMARK VINA RESULT:      45.9      0.000      0.000
REMARK  3 active torsions:
REMARK  status: ('A' for Active; 'I' for Inactive)
REMARK    1  A    between atoms: C_2  and  C_1 
REMARK       I    between atoms: N_8  and  C_2 
REMARK    2  A    between atoms: C_12  and  C_4 
REMARK    3  A    between atoms: C_9  and  N_8 
ROOT
ATOM      1  C   UNL d   1      14.838  14.193  -1.544  0.00  0.00     0.106 A 
ATOM      2  C   UNL d   1      14.986  14.995  -1.898  0.00  0.00     0.093 A 
ATOM      3  C   UNL d   1      14.698  14.083  -0.842  0.00  0.00     0.093 A 
ATOM      4  C   UNL d   1      14.792  15.467  -0.569  0.00  0.00     0.369 A 
ATOM      5  N   UNL d   1      14.954  15.612  -1.370  0.00  0.00    -0.191 NA
ATOM      6  N   UNL d   1      14.665  14.703  -0.306  0.00  0.00    -0.191 NA
ATOM      7  O   UNL d   1      14.761  16.100  -0.037  0.00  0.00    -0.242 OA
ATOM      8  C   UNL d   1      15.142  15.093  -2.694  0.00  0.00     0.021 C 
ENDROOT
BRANCH   1   9
ATOM      9  C   UNL d   1      14.862  13.542  -2.044  0.00  0.00     0.331 C 
ATOM     10  N   UNL d   1      14.375  13.503  -2.699  0.00  0.00    -0.365 NA
ATOM     11  O   UNL d   1      15.381  12.925  -1.881  0.00  0.00    -0.251 OA
BRANCH  10  12
ATOM     12  C   UNL d   1      13.846  13.488  -3.390  0.00  0.00     0.135 A 
ATOM     13  C   UNL d   1      13.295  12.813  -3.523  0.00  0.00     0.030 A 
ATOM     14  C   UNL d   1      13.286  12.147  -2.944  0.00  0.00     0.003 C 
ATOM     15  C   UNL d   1      12.771  12.799  -4.207  0.00  0.00     0.003 A 
ATOM     16  C   UNL d   1      12.777  13.463  -4.788  0.00  0.00     0.000 A 
ATOM     17  C   UNL d   1      13.322  14.135  -4.660  0.00  0.00     0.003 A 
ATOM     18  C   UNL d   1      13.855  14.151  -3.966  0.00  0.00     0.032 A 
ENDBRANCH  10  12
ENDBRANCH   1   9
BRANCH   3  19
ATOM     19  C   UNL d   1      14.571  13.316  -0.581  0.00  0.00     0.018 A 
ATOM     20  C   UNL d   1      15.174  12.753  -0.622  0.00  0.00     0.002 A 
ATOM     21  C   UNL d   1      15.035  11.992  -0.359  0.00  0.00     0.000 A 
ATOM     22  C   UNL d   1      14.302  11.786  -0.055  0.00  0.00     0.000 A 
ATOM     23  C   UNL d   1      13.707  12.342  -0.014  0.00  0.00     0.000 A 
ATOM     24  C   UNL d   1      13.832  13.104  -0.273  0.00  0.00     0.002 A 
ENDBRANCH   3  19
TORSDOF 3
ENDMDL
MODEL 2
REMARK VINA RESULT:      47.1      1.589      3.372
REMARK  3 active torsions:
REMARK  status: ('A' for Active; 'I' for Inactive)
REMARK    1  A    between atoms: C_2  and  C_1 
REMARK       I    between atoms: N_8  and  C_2 
REMARK    2  A    between atoms: C_12  and  C_4 
REMARK    3  A    between atoms: C_9  and  N_8 
ROOT
ATOM      1  C   UNL d   1      13.369  13.248  -3.520  0.00  0.00     0.106 A 
ATOM      2  C   UNL d   1      13.010  13.598  -4.254  0.00  0.00     0.093 A 
ATOM      3  C   UNL d   1      13.589  12.560  -3.469  0.00  0.00     0.093 A 
ATOM      4  C   UNL d   1      13.201  12.299  -4.803  0.00  0.00     0.369 A 
ATOM      5  N   UNL d   1      12.943  13.084  -4.879  0.00  0.00    -0.191 NA
ATOM      6  N   UNL d   1      13.524  12.038  -4.098  0.00  0.00    -0.191 NA
ATOM      7  O   UNL d   1      13.130  11.781  -5.444  0.00  0.00    -0.242 OA
ATOM      8  C   UNL d   1      12.769  14.379  -4.287  0.00  0.00     0.021 C 
ENDROOT
BRANCH   1   9
ATOM      9  C   UNL d   1      13.455  13.735  -2.864  0.00  0.00     0.331 C 
ATOM     10  N   UNL d   1      13.852  14.446  -2.923  0.00  0.00    -0.365 NA
ATOM     11  O   UNL d   1      13.137  13.501  -2.143  0.00  0.00    -0.251 OA
BRANCH  10  12
ATOM     12  C   UNL d   1      14.280  15.199  -3.016  0.00  0.00     0.135 A 
ATOM     13  C   UNL d   1      14.579  15.637  -2.312  0.00  0.00     0.030 A 
ATOM     14  C   UNL d   1      14.439  15.304  -1.507  0.00  0.00     0.003 C 
ATOM     15  C   UNL d   1      15.003  16.383  -2.403  0.00  0.00     0.003 A 
ATOM     16  C   UNL d   1      15.144  16.720  -3.206  0.00  0.00     0.000 A 
ATOM     17  C   UNL d   1      14.849  16.288  -3.908  0.00  0.00     0.003 A 
ATOM     18  C   UNL d   1      14.418  15.531  -3.817  0.00  0.00     0.032 A 
ENDBRANCH  10  12
ENDBRANCH   1   9
BRANCH   3  19
ATOM     19  C   UNL d   1      13.912  12.301  -2.761  0.00  0.00     0.018 A 
ATOM     20  C   UNL d   1      14.730  12.302  -2.648  0.00  0.00     0.002 A 
ATOM     21  C   UNL d   1      15.041  12.041  -1.939  0.00  0.00     0.000 A 
ATOM     22  C   UNL d   1      14.545  11.780  -1.341  0.00  0.00     0.000 A 
ATOM     23  C   UNL d   1      13.737  11.779  -1.452  0.00  0.00     0.000 A 
ATOM     24  C   UNL d   1      13.415  12.036  -2.155  0.00  0.00     0.002 A 
ENDBRANCH   3  19
TORSDOF 3
ENDMDL
