MODEL 1
REMARK VINA RESULT:      -5.7      0.000      0.000
REMARK  6 active torsions:
REMARK  status: ('A' for Active; 'I' for Inactive)
REMARK    1  A    between atoms: C_2  and  N_10 
REMARK    2  A    between atoms: N_8  and  C_2 
REMARK    3  A    between atoms: C_4  and  N_8 
REMARK    4  A    between atoms: N_10  and  C_16 
REMARK    5  A    between atoms: C_22  and  C_13 
REMARK    6  A    between atoms: C_16  and  C_15 
ROOT
ATOM      1  C   UNL d   1      58.514  -0.099  29.830  0.00  0.00     0.221 C 
ATOM      2  S   UNL d   1      58.797   0.675  29.796  0.00  0.00    -0.037 SA
ENDROOT
BRANCH   1   3
ATOM      3  N   UNL d   1      58.064  -0.345  30.479  0.00  0.00    -0.216 NA
BRANCH   3   4
ATOM      4  C   UNL d   1      57.438   0.123  30.757  0.00  0.00     0.101 C 
BRANCH   4   5
ATOM      5  C   UNL d   1      57.006  -0.121  31.419  0.00  0.00     0.019 A 
ATOM      6  C   UNL d   1      56.935  -0.924  31.601  0.00  0.00     0.003 A 
ATOM      7  C   UNL d   1      56.503  -1.159  32.264  0.00  0.00     0.019 A 
ATOM      8  C   UNL d   1      56.145  -0.596  32.740  0.00  0.00     0.081 A 
ATOM      9  C   UNL d   1      56.216   0.207  32.558  0.00  0.00     0.019 A 
ATOM     10  N   UNL d   1      55.686  -0.661  33.425  0.00  0.00    -0.246 NA
ATOM     11  C   UNL d   1      56.645   0.444  31.901  0.00  0.00     0.003 A 
ATOM     12  C   UNL d   1      55.801   0.631  33.133  0.00  0.00     0.021 A 
ATOM     13  C   UNL d   1      55.479   0.105  33.660  0.00  0.00     0.082 A 
ATOM     14  C   UNL d   1      55.021   0.308  34.317  0.00  0.00     0.021 C 
ENDBRANCH   4   5
ENDBRANCH   3   4
ENDBRANCH   1   3
BRANCH   1  15
ATOM     15  N   UNL d   1      58.678  -0.625  29.218  0.00  0.00    -0.217 NA
BRANCH  15  16
ATOM     16  C   UNL d   1      59.420  -0.975  29.166  0.00  0.00     0.084 A 
ATOM     17  C   UNL d   1      60.101  -0.515  29.241  0.00  0.00     0.018 A 
ATOM     18  C   UNL d   1      60.844  -0.866  29.189  0.00  0.00     0.002 A 
ATOM     19  C   UNL d   1      60.040   0.301  29.368  0.00  0.00     0.002 C 
ATOM     20  C   UNL d   1      60.911  -1.684  29.061  0.00  0.00     0.000 A 
ATOM     21  C   UNL d   1      60.230  -2.145  28.986  0.00  0.00     0.002 A 
ATOM     22  C   UNL d   1      59.483  -1.787  29.039  0.00  0.00     0.018 A 
BRANCH  22  23
ATOM     23  C   UNL d   1      58.802  -2.247  28.965  0.00  0.00     0.002 C 
ATOM     24  C   UNL d   1      58.860  -3.047  28.808  0.00  0.00     0.000 C 
ENDBRANCH  22  23
ENDBRANCH  15  16
ENDBRANCH   1  15
TORSDOF 6
ENDMDL
MODEL 2
REMARK VINA RESULT:      -3.6      1.363      5.463
REMARK  6 active torsions:
REMARK  status: ('A' for Active; 'I' for Inactive)
REMARK    1  A    between atoms: C_2  and  N_10 
REMARK    2  A    between atoms: N_8  and  C_2 
REMARK    3  A    between atoms: C_4  and  N_8 
REMARK    4  A    between atoms: N_10  and  C_16 
REMARK    5  A    between atoms: C_22  and  C_13 
REMARK    6  A    between atoms: C_16  and  C_15 
ROOT
ATOM      1  C   UNL d   1      56.521  -0.222  32.560  0.00  0.00     0.221 C 
ATOM      2  S   UNL d   1      56.320  -0.977  32.823  0.00  0.00    -0.037 SA
ENDROOT
BRANCH   1   3
ATOM      3  N   UNL d   1      57.072  -0.131  31.950  0.00  0.00    -0.216 NA
BRANCH   3   4
ATOM      4  C   UNL d   1      57.015  -0.590  31.262  0.00  0.00     0.101 C 
BRANCH   4   5
ATOM      5  C   UNL d   1      57.622  -0.564  30.700  0.00  0.00     0.019 A 
ATOM      6  C   UNL d   1      57.922   0.160  30.439  0.00  0.00     0.003 A 
ATOM      7  C   UNL d   1      58.528   0.177  29.878  0.00  0.00     0.019 A 
ATOM      8  C   UNL d   1      58.831  -0.525  29.582  0.00  0.00     0.081 A 
ATOM      9  C   UNL d   1      58.531  -1.249  29.843  0.00  0.00     0.019 A 
ATOM     10  N   UNL d   1      59.425  -0.681  29.028  0.00  0.00    -0.246 NA
ATOM     11  C   UNL d   1      57.930  -1.270  30.399  0.00  0.00     0.003 A 
ATOM     12  C   UNL d   1      58.943  -1.847  29.448  0.00  0.00     0.021 A 
ATOM     13  C   UNL d   1      59.486  -1.503  28.953  0.00  0.00     0.082 A 
ATOM     14  C   UNL d   1      60.008  -1.911  28.460  0.00  0.00     0.021 C 
ENDBRANCH   4   5
ENDBRANCH   3   4
ENDBRANCH   1   3
BRANCH   1  15
ATOM     15  N   UNL d   1      56.172   0.441  32.903  0.00  0.00    -0.217 NA
BRANCH  15  16
ATOM     16  C   UNL d   1      56.161   0.521  33.722  0.00  0.00     0.084 A 
ATOM     17  C   UNL d   1      56.870   0.579  34.141  0.00  0.00     0.018 A 
ATOM     18  C   UNL d   1      56.859   0.659  34.961  0.00  0.00     0.002 A 
ATOM     19  C   UNL d   1      57.594   0.558  33.740  0.00  0.00     0.002 C 
ATOM     20  C   UNL d   1      56.135   0.681  35.368  0.00  0.00     0.000 A 
ATOM     21  C   UNL d   1      55.427   0.622  34.949  0.00  0.00     0.002 A 
ATOM     22  C   UNL d   1      55.442   0.542  34.123  0.00  0.00     0.018 A 
BRANCH  22  23
ATOM     23  C   UNL d   1      54.734   0.483  33.704  0.00  0.00     0.002 C 
ATOM     24  C   UNL d   1      54.018   0.533  34.094  0.00  0.00     0.000 C 
ENDBRANCH  22  23
ENDBRANCH  15  16
ENDBRANCH   1  15
TORSDOF 6
ENDMDL
