MODEL 1
REMARK VINA RESULT:      67.4      0.000      0.000
REMARK  11 active torsions:
REMARK  status: ('A' for Active; 'I' for Inactive)
REMARK    1  A    between atoms: N_5  and  S_1 
REMARK    2  A    between atoms: C_8  and  S_1 
REMARK    3  A    between atoms: C_2  and  N_10 
REMARK    4  A    between atoms: C_9  and  N_5 
REMARK    5  A    between atoms: C_18  and  N_5 
REMARK    6  A    between atoms: C_13  and  C_9 
REMARK    7  A    between atoms: N_10  and  O_14 
REMARK    8  A    between atoms: C_17  and  C_13 
REMARK    9  A    between atoms: O_14  and  C_17 
REMARK   10  A    between atoms: C_27  and  C_18 
REMARK   11  A    between atoms: C_29  and  C_27 
ROOT
ATOM      1  C   UNL d   1     -48.747  27.859  34.539  0.00  0.00     0.240 C 
ATOM      2  O   UNL d   1     -48.687  27.397  35.219  0.00  0.00    -0.283 OA
ENDROOT
BRANCH   1   3
ATOM      3  C   UNL d   1     -48.057  28.228  34.815  0.00  0.00     0.136 C 
BRANCH   3   4
ATOM      4  N   UNL d   1     -48.112  28.761  35.446  0.00  0.00    -0.226 N 
BRANCH   4   5
ATOM      5  S   UNL d   1     -48.050  29.575  35.308  0.00  0.00     0.271 S 
ATOM      6  O   UNL d   1     -48.869  29.458  35.275  0.00  0.00    -0.200 OA
ATOM      7  O   UNL d   1     -47.293  29.899  35.301  0.00  0.00    -0.200 OA
BRANCH   5   8
ATOM      8  C   UNL d   1     -47.743  30.328  35.197  0.00  0.00     0.104 A 
ATOM      9  C   UNL d   1     -47.068  30.561  35.607  0.00  0.00     0.013 A 
ATOM     10  C   UNL d   1     -46.759  31.320  35.493  0.00  0.00     0.001 A 
ATOM     11  C   UNL d   1     -47.129  31.843  34.968  0.00  0.00     0.000 A 
ATOM     12  C   UNL d   1     -47.808  31.554  34.580  0.00  0.00     0.001 A 
ATOM     13  C   UNL d   1     -46.840  32.605  34.838  0.00  0.00     0.000 C 
ATOM     14  C   UNL d   1     -48.143  30.813  34.665  0.00  0.00     0.013 A 
ENDBRANCH   5   8
ENDBRANCH   4   5
BRANCH   4  15
ATOM     15  C   UNL d   1     -48.223  28.650  36.250  0.00  0.00     0.095 C 
BRANCH  15  16
ATOM     16  C   UNL d   1     -48.989  28.549  36.548  0.00  0.00     0.065 C 
BRANCH  16  17
ATOM     17  C   UNL d   1     -49.162  28.770  37.328  0.00  0.00     0.236 C 
ATOM     18  O   UNL d   1     -49.109  28.220  37.932  0.00  0.00    -0.283 OA
ENDBRANCH  16  17
ENDBRANCH  15  16
ENDBRANCH   4  15
ENDBRANCH   3   4
ENDBRANCH   1   3
BRANCH   1  19
ATOM     19  C   UNL d   1     -49.361  27.743  34.012  0.00  0.00     0.193 C 
BRANCH  19  20
ATOM     20  O   UNL d   1     -49.608  26.976  33.834  0.00  0.00    -0.206 OA
BRANCH  20  21
ATOM     21  N   UNL d   1     -50.238  26.854  33.308  0.00  0.00    -0.126 NA
BRANCH  21  22
ATOM     22  C   UNL d   1     -50.643  26.136  33.309  0.00  0.00     0.108 A 
ATOM     23  C   UNL d   1     -51.464  26.041  33.308  0.00  0.00     0.020 A 
ATOM     24  C   UNL d   1     -51.619  25.229  33.309  0.00  0.00     0.002 A 
ATOM     25  C   UNL d   1     -52.076  26.580  33.306  0.00  0.00     0.002 A 
ATOM     26  C   UNL d   1     -52.404  24.968  33.308  0.00  0.00     0.000 A 
ATOM     27  C   UNL d   1     -50.911  24.821  33.310  0.00  0.00     0.002 A 
ATOM     28  C   UNL d   1     -53.019  25.509  33.307  0.00  0.00     0.000 A 
ATOM     29  C   UNL d   1     -52.854  26.315  33.306  0.00  0.00     0.000 A 
ATOM     30  C   UNL d   1     -50.303  25.378  33.310  0.00  0.00     0.020 A 
ATOM     31  C   UNL d   1     -50.732  24.022  33.312  0.00  0.00     0.000 A 
ATOM     32  C   UNL d   1     -49.518  25.137  33.312  0.00  0.00     0.002 A 
ATOM     33  C   UNL d   1     -49.333  24.336  33.313  0.00  0.00     0.000 A 
ATOM     34  C   UNL d   1     -49.948  23.777  33.313  0.00  0.00     0.000 A 
ENDBRANCH  21  22
ENDBRANCH  20  21
ENDBRANCH  19  20
ENDBRANCH   1  19
TORSDOF 11
ENDMDL
