MODEL 1
REMARK VINA RESULT:       8.4      0.000      0.000
REMARK  2 active torsions:
REMARK  status: ('A' for Active; 'I' for Inactive)
REMARK    1  A    between atoms: C_6  and  N_2 
REMARK    2  A    between atoms: C_8  and  C_6 
ROOT
ATOM      1  C   UNL d   1     -54.725-101.402 -38.027  0.00  0.00     0.151 A 
ATOM      2  N   UNL d   1     -54.725-102.191 -37.796  0.00  0.00    -0.286 N 
ATOM      3  S   UNL d   1     -54.723-100.949 -37.349  0.00  0.00    -0.057 SA
ATOM      4  C   UNL d   1     -54.722-102.218 -36.987  0.00  0.00     0.071 A 
ATOM      5  C   UNL d   1     -54.721-101.449 -36.710  0.00  0.00     0.048 A 
ATOM      6  S   UNL d   1     -54.727-101.105 -38.791  0.00  0.00    -0.052 SA
ATOM      7  C   UNL d   1     -54.721-102.846 -36.453  0.00  0.00     0.018 A 
ATOM      8  C   UNL d   1     -54.719-101.300 -35.897  0.00  0.00     0.008 A 
ATOM      9  C   UNL d   1     -54.719-102.704 -35.637  0.00  0.00     0.002 A 
ATOM     10  C   UNL d   1     -54.718-101.935 -35.360  0.00  0.00     0.001 A 
ENDROOT
BRANCH   2  11
ATOM     11  C   UNL d   1     -54.726-102.843 -38.323  0.00  0.00     0.152 C 
BRANCH  11  12
ATOM     12  C   UNL d   1     -55.243-102.867 -38.966  0.00  0.00     0.230 C 
ATOM     13  O   UNL d   1     -54.945-102.879 -39.740  0.00  0.00    -0.643 OA
ATOM     14  O   UNL d   1     -56.052-102.879 -38.840  0.00  0.00    -0.643 OA
ENDBRANCH  11  12
ENDBRANCH   2  11
TORSDOF 2
ENDMDL
