MODEL 1
REMARK VINA RESULT:      -1.8      0.000      0.000
REMARK  7 active torsions:
REMARK  status: ('A' for Active; 'I' for Inactive)
REMARK    1  A    between atoms: C_4  and  N_1 
REMARK    2  A    between atoms: O_2  and  C_10 
REMARK    3  A    between atoms: C_3  and  O_2 
REMARK    4  A    between atoms: C_9  and  C_4 
REMARK    5  A    between atoms: C_12  and  C_6 
REMARK    6  A    between atoms: C_7  and  C_12 
REMARK    7  A    between atoms: C_10  and  C_9 
ROOT
ATOM      1  O   UNL d   1      33.133  21.287 -22.035  0.00  0.00    -0.302 OA
ENDROOT
BRANCH   1   2
ATOM      2  C   UNL d   1      32.890  20.720 -22.585  0.00  0.00     0.166 C 
BRANCH   2   3
ATOM      3  C   UNL d   1      33.038  19.924 -22.459  0.00  0.00     0.238 C 
ATOM      4  O   UNL d   1      32.987  19.606 -21.716  0.00  0.00    -0.283 OA
BRANCH   3   5
ATOM      5  C   UNL d   1      33.241  19.452 -23.104  0.00  0.00     0.125 C 
BRANCH   5   6
ATOM      6  N   UNL d   1      32.905  18.721 -23.200  0.00  0.00    -0.296 N 
ATOM      7  C   UNL d   1      33.226  18.060 -22.824  0.00  0.00     0.107 A 
ATOM      8  C   UNL d   1      32.884  17.314 -22.921  0.00  0.00     0.142 A 
ATOM      9  O   UNL d   1      32.223  17.233 -23.394  0.00  0.00    -0.300 OA
ATOM     10  C   UNL d   1      31.903  17.875 -23.766  0.00  0.00     0.142 A 
ATOM     11  C   UNL d   1      32.245  18.621 -23.668  0.00  0.00     0.107 A 
ENDBRANCH   5   6
ENDBRANCH   3   5
ENDBRANCH   2   3
ENDBRANCH   1   2
BRANCH   1  12
ATOM     12  C   UNL d   1      33.100  22.095 -22.229  0.00  0.00     0.100 A 
ATOM     13  C   UNL d   1      33.140  22.669 -21.628  0.00  0.00     0.023 A 
ATOM     14  C   UNL d   1      33.109  23.466 -21.816  0.00  0.00     0.002 A 
ATOM     15  C   UNL d   1      33.037  23.695 -22.602  0.00  0.00     0.000 A 
ATOM     16  C   UNL d   1      32.997  23.121 -23.203  0.00  0.00     0.002 A 
ATOM     17  C   UNL d   1      33.030  22.333 -23.001  0.00  0.00     0.025 A 
BRANCH  13  18
ATOM     18  C   UNL d   1      33.213  22.443 -20.826  0.00  0.00     0.002 C 
BRANCH  18  19
ATOM     19  C   UNL d   1      32.768  22.824 -20.236  0.00  0.00     0.000 C 
ATOM     20  C   UNL d   1      32.860  22.603 -19.464  0.00  0.00     0.000 C 
ENDBRANCH  18  19
ENDBRANCH  13  18
ENDBRANCH   1  12
TORSDOF 7
ENDMDL
MODEL 2
REMARK VINA RESULT:      -1.6      1.198      1.799
REMARK  7 active torsions:
REMARK  status: ('A' for Active; 'I' for Inactive)
REMARK    1  A    between atoms: C_4  and  N_1 
REMARK    2  A    between atoms: O_2  and  C_10 
REMARK    3  A    between atoms: C_3  and  O_2 
REMARK    4  A    between atoms: C_9  and  C_4 
REMARK    5  A    between atoms: C_12  and  C_6 
REMARK    6  A    between atoms: C_7  and  C_12 
REMARK    7  A    between atoms: C_10  and  C_9 
ROOT
ATOM      1  O   UNL d   1      33.196  19.777 -22.902  0.00  0.00    -0.302 OA
ENDROOT
BRANCH   1   2
ATOM      2  C   UNL d   1      33.171  19.190 -23.482  0.00  0.00     0.166 C 
BRANCH   2   3
ATOM      3  C   UNL d   1      33.184  18.397 -23.277  0.00  0.00     0.238 C 
ATOM      4  O   UNL d   1      33.218  18.170 -22.500  0.00  0.00    -0.283 OA
BRANCH   3   5
ATOM      5  C   UNL d   1      33.163  17.831 -23.877  0.00  0.00     0.125 C 
BRANCH   5   6
ATOM      6  N   UNL d   1      32.628  17.224 -23.852  0.00  0.00    -0.296 N 
ATOM      7  C   UNL d   1      31.876  17.314 -24.180  0.00  0.00     0.107 A 
ATOM      8  C   UNL d   1      31.330  16.694 -24.154  0.00  0.00     0.142 A 
ATOM      9  O   UNL d   1      31.539  15.988 -23.800  0.00  0.00    -0.300 OA
ATOM     10  C   UNL d   1      32.273  15.892 -23.476  0.00  0.00     0.142 A 
ATOM     11  C   UNL d   1      32.819  16.511 -23.503  0.00  0.00     0.107 A 
ENDBRANCH   5   6
ENDBRANCH   3   5
ENDBRANCH   2   3
ENDBRANCH   1   2
BRANCH   1  12
ATOM     12  C   UNL d   1      33.209  20.579 -23.122  0.00  0.00     0.100 A 
ATOM     13  C   UNL d   1      33.201  21.171 -22.537  0.00  0.00     0.023 A 
ATOM     14  C   UNL d   1      33.214  21.961 -22.749  0.00  0.00     0.002 A 
ATOM     15  C   UNL d   1      33.233  22.167 -23.545  0.00  0.00     0.000 A 
ATOM     16  C   UNL d   1      33.241  21.575 -24.130  0.00  0.00     0.002 A 
ATOM     17  C   UNL d   1      33.228  20.793 -23.903  0.00  0.00     0.025 A 
BRANCH  13  18
ATOM     18  C   UNL d   1      33.181  20.968 -21.726  0.00  0.00     0.002 C 
BRANCH  18  19
ATOM     19  C   UNL d   1      33.035  21.548 -21.147  0.00  0.00     0.000 C 
ATOM     20  C   UNL d   1      33.239  21.403 -20.379  0.00  0.00     0.000 C 
ENDBRANCH  18  19
ENDBRANCH  13  18
ENDBRANCH   1  12
TORSDOF 7
ENDMDL
MODEL 3
REMARK VINA RESULT:      -1.5      2.817      4.225
REMARK  7 active torsions:
REMARK  status: ('A' for Active; 'I' for Inactive)
REMARK    1  A    between atoms: C_4  and  N_1 
REMARK    2  A    between atoms: O_2  and  C_10 
REMARK    3  A    between atoms: C_3  and  O_2 
REMARK    4  A    between atoms: C_9  and  C_4 
REMARK    5  A    between atoms: C_12  and  C_6 
REMARK    6  A    between atoms: C_7  and  C_12 
REMARK    7  A    between atoms: C_10  and  C_9 
ROOT
ATOM      1  O   UNL d   1      31.827  17.813 -23.587  0.00  0.00    -0.302 OA
ENDROOT
BRANCH   1   2
ATOM      2  C   UNL d   1      31.396  17.292 -24.062  0.00  0.00     0.166 C 
BRANCH   2   3
ATOM      3  C   UNL d   1      31.023  16.639 -23.736  0.00  0.00     0.238 C 
ATOM      4  O   UNL d   1      31.028  16.516 -22.936  0.00  0.00    -0.283 OA
BRANCH   3   5
ATOM      5  C   UNL d   1      30.642  16.108 -24.240  0.00  0.00     0.125 C 
BRANCH   5   6
ATOM      6  N   UNL d   1      29.852  15.953 -24.152  0.00  0.00    -0.296 N 
ATOM      7  C   UNL d   1      29.351  15.946 -24.808  0.00  0.00     0.107 A 
ATOM      8  C   UNL d   1      28.545  15.788 -24.719  0.00  0.00     0.142 A 
ATOM      9  O   UNL d   1      28.244  15.638 -23.974  0.00  0.00    -0.300 OA
ATOM     10  C   UNL d   1      28.728  15.644 -23.327  0.00  0.00     0.142 A 
ATOM     11  C   UNL d   1      29.534  15.802 -23.416  0.00  0.00     0.107 A 
ENDBRANCH   5   6
ENDBRANCH   3   5
ENDBRANCH   2   3
ENDBRANCH   1   2
BRANCH   1  12
ATOM     12  C   UNL d   1      32.295  18.404 -23.937  0.00  0.00     0.100 A 
ATOM     13  C   UNL d   1      32.732  18.927 -23.459  0.00  0.00     0.023 A 
ATOM     14  C   UNL d   1      33.195  19.510 -23.800  0.00  0.00     0.002 A 
ATOM     15  C   UNL d   1      33.225  19.576 -24.619  0.00  0.00     0.000 A 
ATOM     16  C   UNL d   1      32.789  19.054 -25.097  0.00  0.00     0.002 A 
ATOM     17  C   UNL d   1      32.333  18.479 -24.743  0.00  0.00     0.025 A 
BRANCH  13  18
ATOM     18  C   UNL d   1      32.705  18.864 -22.625  0.00  0.00     0.002 C 
BRANCH  18  19
ATOM     19  C   UNL d   1      32.885  19.520 -22.145  0.00  0.00     0.000 C 
ATOM     20  C   UNL d   1      33.241  19.402 -21.429  0.00  0.00     0.000 C 
ENDBRANCH  18  19
ENDBRANCH  13  18
ENDBRANCH   1  12
TORSDOF 7
ENDMDL
MODEL 4
REMARK VINA RESULT:      -1.4      1.372      5.019
REMARK  7 active torsions:
REMARK  status: ('A' for Active; 'I' for Inactive)
REMARK    1  A    between atoms: C_4  and  N_1 
REMARK    2  A    between atoms: O_2  and  C_10 
REMARK    3  A    between atoms: C_3  and  O_2 
REMARK    4  A    between atoms: C_9  and  C_4 
REMARK    5  A    between atoms: C_12  and  C_6 
REMARK    6  A    between atoms: C_7  and  C_12 
REMARK    7  A    between atoms: C_10  and  C_9 
ROOT
ATOM      1  O   UNL d   1      32.544  18.399 -23.851  0.00  0.00    -0.302 OA
ENDROOT
BRANCH   1   2
ATOM      2  C   UNL d   1      32.364  19.079 -23.418  0.00  0.00     0.166 C 
BRANCH   2   3
ATOM      3  C   UNL d   1      32.943  19.636 -23.253  0.00  0.00     0.238 C 
ATOM      4  O   UNL d   1      33.241  20.109 -23.838  0.00  0.00    -0.283 OA
BRANCH   3   5
ATOM      5  C   UNL d   1      33.216  19.705 -22.477  0.00  0.00     0.125 C 
BRANCH   5   6
ATOM      6  N   UNL d   1      33.101  20.390 -22.060  0.00  0.00    -0.296 N 
ATOM      7  C   UNL d   1      32.850  20.364 -21.274  0.00  0.00     0.107 A 
ATOM      8  C   UNL d   1      32.733  21.063 -20.849  0.00  0.00     0.142 A 
ATOM      9  O   UNL d   1      32.867  21.783 -21.211  0.00  0.00    -0.300 OA
ATOM     10  C   UNL d   1      33.113  21.816 -21.980  0.00  0.00     0.142 A 
ATOM     11  C   UNL d   1      33.230  21.117 -22.405  0.00  0.00     0.107 A 
ENDBRANCH   5   6
ENDBRANCH   3   5
ENDBRANCH   2   3
ENDBRANCH   1   2
BRANCH   1  12
ATOM     12  C   UNL d   1      31.934  17.952 -24.196  0.00  0.00     0.100 A 
ATOM     13  C   UNL d   1      31.958  17.121 -24.166  0.00  0.00     0.023 A 
ATOM     14  C   UNL d   1      31.359  16.678 -24.505  0.00  0.00     0.002 A 
ATOM     15  C   UNL d   1      30.732  17.060 -24.875  0.00  0.00     0.000 A 
ATOM     16  C   UNL d   1      30.707  17.891 -24.904  0.00  0.00     0.002 A 
ATOM     17  C   UNL d   1      31.310  18.318 -24.563  0.00  0.00     0.025 A 
BRANCH  13  18
ATOM     18  C   UNL d   1      32.594  16.727 -23.792  0.00  0.00     0.002 C 
BRANCH  18  19
ATOM     19  C   UNL d   1      32.651  15.897 -23.815  0.00  0.00     0.000 C 
ATOM     20  C   UNL d   1      33.198  15.523 -23.352  0.00  0.00     0.000 C 
ENDBRANCH  18  19
ENDBRANCH  13  18
ENDBRANCH   1  12
TORSDOF 7
ENDMDL
MODEL 5
REMARK VINA RESULT:      -1.4      2.241      5.544
REMARK  7 active torsions:
REMARK  status: ('A' for Active; 'I' for Inactive)
REMARK    1  A    between atoms: C_4  and  N_1 
REMARK    2  A    between atoms: O_2  and  C_10 
REMARK    3  A    between atoms: C_3  and  O_2 
REMARK    4  A    between atoms: C_9  and  C_4 
REMARK    5  A    between atoms: C_12  and  C_6 
REMARK    6  A    between atoms: C_7  and  C_12 
REMARK    7  A    between atoms: C_10  and  C_9 
ROOT
ATOM      1  O   UNL d   1      31.358  17.285 -24.438  0.00  0.00    -0.302 OA
ENDROOT
BRANCH   1   2
ATOM      2  C   UNL d   1      32.156  17.468 -24.328  0.00  0.00     0.166 C 
BRANCH   2   3
ATOM      3  C   UNL d   1      32.454  18.196 -24.555  0.00  0.00     0.238 C 
ATOM      4  O   UNL d   1      32.054  18.661 -25.084  0.00  0.00    -0.283 OA
BRANCH   3   5
ATOM      5  C   UNL d   1      33.171  18.449 -24.233  0.00  0.00     0.125 C 
BRANCH   5   6
ATOM      6  N   UNL d   1      33.185  19.013 -23.652  0.00  0.00    -0.296 N 
ATOM      7  C   UNL d   1      33.226  19.814 -23.846  0.00  0.00     0.107 A 
ATOM      8  C   UNL d   1      33.241  20.389 -23.253  0.00  0.00     0.142 A 
ATOM      9  O   UNL d   1      33.215  20.160 -22.469  0.00  0.00    -0.300 OA
ATOM     10  C   UNL d   1      33.175  19.377 -22.271  0.00  0.00     0.142 A 
ATOM     11  C   UNL d   1      33.160  18.803 -22.864  0.00  0.00     0.107 A 
ENDBRANCH   5   6
ENDBRANCH   3   5
ENDBRANCH   2   3
ENDBRANCH   1   2
BRANCH   1  12
ATOM     12  C   UNL d   1      31.009  16.668 -24.003  0.00  0.00     0.100 A 
ATOM     13  C   UNL d   1      30.181  16.630 -23.925  0.00  0.00     0.023 A 
ATOM     14  C   UNL d   1      29.834  16.024 -23.498  0.00  0.00     0.002 A 
ATOM     15  C   UNL d   1      30.309  15.453 -23.145  0.00  0.00     0.000 A 
ATOM     16  C   UNL d   1      31.136  15.490 -23.223  0.00  0.00     0.002 A 
ATOM     17  C   UNL d   1      31.467  16.099 -23.651  0.00  0.00     0.025 A 
BRANCH  13  18
ATOM     18  C   UNL d   1      29.693  17.208 -24.281  0.00  0.00     0.002 C 
BRANCH  18  19
ATOM     19  C   UNL d   1      28.866  17.121 -24.283  0.00  0.00     0.000 C 
ATOM     20  C   UNL d   1      28.402  17.743 -24.510  0.00  0.00     0.000 C 
ENDBRANCH  18  19
ENDBRANCH  13  18
ENDBRANCH   1  12
TORSDOF 7
ENDMDL
MODEL 6
REMARK VINA RESULT:      -0.6      4.094      5.837
REMARK  7 active torsions:
REMARK  status: ('A' for Active; 'I' for Inactive)
REMARK    1  A    between atoms: C_4  and  N_1 
REMARK    2  A    between atoms: O_2  and  C_10 
REMARK    3  A    between atoms: C_3  and  O_2 
REMARK    4  A    between atoms: C_9  and  C_4 
REMARK    5  A    between atoms: C_12  and  C_6 
REMARK    6  A    between atoms: C_7  and  C_12 
REMARK    7  A    between atoms: C_10  and  C_9 
ROOT
ATOM      1  O   UNL d   1      31.112  16.660 -24.296  0.00  0.00    -0.302 OA
ENDROOT
BRANCH   1   2
ATOM      2  C   UNL d   1      30.495  16.185 -24.018  0.00  0.00     0.166 C 
BRANCH   2   3
ATOM      3  C   UNL d   1      29.781  16.150 -24.417  0.00  0.00     0.238 C 
ATOM      4  O   UNL d   1      29.521  16.778 -24.858  0.00  0.00    -0.283 OA
BRANCH   3   5
ATOM      5  C   UNL d   1      29.329  15.461 -24.362  0.00  0.00     0.125 C 
BRANCH   5   6
ATOM      6  N   UNL d   1      28.597  15.476 -24.017  0.00  0.00    -0.296 N 
ATOM      7  C   UNL d   1      28.520  15.453 -23.196  0.00  0.00     0.107 A 
ATOM      8  C   UNL d   1      27.773  15.468 -22.844  0.00  0.00     0.142 A 
ATOM      9  O   UNL d   1      27.106  15.507 -23.315  0.00  0.00    -0.300 OA
ATOM     10  C   UNL d   1      27.173  15.530 -24.120  0.00  0.00     0.142 A 
ATOM     11  C   UNL d   1      27.920  15.515 -24.472  0.00  0.00     0.107 A 
ENDBRANCH   5   6
ENDBRANCH   3   5
ENDBRANCH   2   3
ENDBRANCH   1   2
BRANCH   1  12
ATOM     12  C   UNL d   1      31.826  16.704 -23.873  0.00  0.00     0.100 A 
ATOM     13  C   UNL d   1      32.324  17.364 -23.964  0.00  0.00     0.023 A 
ATOM     14  C   UNL d   1      33.028  17.411 -23.549  0.00  0.00     0.002 A 
ATOM     15  C   UNL d   1      33.241  16.801 -23.041  0.00  0.00     0.000 A 
ATOM     16  C   UNL d   1      32.743  16.140 -22.950  0.00  0.00     0.002 A 
ATOM     17  C   UNL d   1      32.046  16.108 -23.369  0.00  0.00     0.025 A 
BRANCH  13  18
ATOM     18  C   UNL d   1      32.113  17.989 -24.480  0.00  0.00     0.002 C 
BRANCH  18  19
ATOM     19  C   UNL d   1      32.595  18.664 -24.547  0.00  0.00     0.000 C 
ATOM     20  C   UNL d   1      32.371  19.264 -25.040  0.00  0.00     0.000 C 
ENDBRANCH  18  19
ENDBRANCH  13  18
ENDBRANCH   1  12
TORSDOF 7
ENDMDL
MODEL 7
REMARK VINA RESULT:       0.9      4.323      6.239
REMARK  7 active torsions:
REMARK  status: ('A' for Active; 'I' for Inactive)
REMARK    1  A    between atoms: C_4  and  N_1 
REMARK    2  A    between atoms: O_2  and  C_10 
REMARK    3  A    between atoms: C_3  and  O_2 
REMARK    4  A    between atoms: C_9  and  C_4 
REMARK    5  A    between atoms: C_12  and  C_6 
REMARK    6  A    between atoms: C_7  and  C_12 
REMARK    7  A    between atoms: C_10  and  C_9 
ROOT
ATOM      1  O   UNL d   1      29.968  16.209 -24.041  0.00  0.00    -0.302 OA
ENDROOT
BRANCH   1   2
ATOM      2  C   UNL d   1      30.536  15.612 -23.977  0.00  0.00     0.166 C 
BRANCH   2   3
ATOM      3  C   UNL d   1      31.276  15.700 -24.317  0.00  0.00     0.238 C 
ATOM      4  O   UNL d   1      31.352  15.921 -25.093  0.00  0.00    -0.283 OA
BRANCH   3   5
ATOM      5  C   UNL d   1      31.945  15.560 -23.854  0.00  0.00     0.125 C 
BRANCH   5   6
ATOM      6  N   UNL d   1      32.372  16.177 -23.550  0.00  0.00    -0.296 N 
ATOM      7  C   UNL d   1      32.685  16.755 -24.049  0.00  0.00     0.107 A 
ATOM      8  C   UNL d   1      33.121  17.385 -23.739  0.00  0.00     0.142 A 
ATOM      9  O   UNL d   1      33.241  17.434 -22.932  0.00  0.00    -0.300 OA
ATOM     10  C   UNL d   1      32.937  16.872 -22.438  0.00  0.00     0.142 A 
ATOM     11  C   UNL d   1      32.501  16.242 -22.748  0.00  0.00     0.107 A 
ENDBRANCH   5   6
ENDBRANCH   3   5
ENDBRANCH   2   3
ENDBRANCH   1   2
BRANCH   1  12
ATOM     12  C   UNL d   1      29.222  16.113 -23.685  0.00  0.00     0.100 A 
ATOM     13  C   UNL d   1      28.580  16.579 -23.935  0.00  0.00     0.023 A 
ATOM     14  C   UNL d   1      27.844  16.487 -23.587  0.00  0.00     0.002 A 
ATOM     15  C   UNL d   1      27.744  15.932 -22.989  0.00  0.00     0.000 A 
ATOM     16  C   UNL d   1      28.387  15.466 -22.740  0.00  0.00     0.002 A 
ATOM     17  C   UNL d   1      29.113  15.568 -23.095  0.00  0.00     0.025 A 
BRANCH  13  18
ATOM     18  C   UNL d   1      28.675  17.146 -24.542  0.00  0.00     0.002 C 
BRANCH  18  19
ATOM     19  C   UNL d   1      28.561  17.955 -24.388  0.00  0.00     0.000 C 
ATOM     20  C   UNL d   1      28.528  18.476 -25.005  0.00  0.00     0.000 C 
ENDBRANCH  18  19
ENDBRANCH  13  18
ENDBRANCH   1  12
TORSDOF 7
ENDMDL
MODEL 8
REMARK VINA RESULT:       1.1      1.086      2.079
REMARK  7 active torsions:
REMARK  status: ('A' for Active; 'I' for Inactive)
REMARK    1  A    between atoms: C_4  and  N_1 
REMARK    2  A    between atoms: O_2  and  C_10 
REMARK    3  A    between atoms: C_3  and  O_2 
REMARK    4  A    between atoms: C_9  and  C_4 
REMARK    5  A    between atoms: C_12  and  C_6 
REMARK    6  A    between atoms: C_7  and  C_12 
REMARK    7  A    between atoms: C_10  and  C_9 
ROOT
ATOM      1  O   UNL d   1      33.205  20.307 -22.709  0.00  0.00    -0.302 OA
ENDROOT
BRANCH   1   2
ATOM      2  C   UNL d   1      33.083  19.490 -22.686  0.00  0.00     0.166 C 
BRANCH   2   3
ATOM      3  C   UNL d   1      33.184  19.032 -23.358  0.00  0.00     0.238 C 
ATOM      4  O   UNL d   1      33.228  19.376 -24.090  0.00  0.00    -0.283 OA
BRANCH   3   5
ATOM      5  C   UNL d   1      33.241  18.213 -23.275  0.00  0.00     0.125 C 
BRANCH   5   6
ATOM      6  N   UNL d   1      32.782  17.722 -23.727  0.00  0.00    -0.296 N 
ATOM      7  C   UNL d   1      31.999  17.568 -23.515  0.00  0.00     0.107 A 
ATOM      8  C   UNL d   1      31.531  17.066 -23.975  0.00  0.00     0.142 A 
ATOM      9  O   UNL d   1      31.848  16.721 -24.644  0.00  0.00    -0.300 OA
ATOM     10  C   UNL d   1      32.613  16.867 -24.858  0.00  0.00     0.142 A 
ATOM     11  C   UNL d   1      33.081  17.368 -24.398  0.00  0.00     0.107 A 
ENDBRANCH   5   6
ENDBRANCH   3   5
ENDBRANCH   2   3
ENDBRANCH   1   2
BRANCH   1  12
ATOM     12  C   UNL d   1      33.121  20.759 -22.016  0.00  0.00     0.100 A 
ATOM     13  C   UNL d   1      33.139  21.590 -22.057  0.00  0.00     0.023 A 
ATOM     14  C   UNL d   1      33.056  22.039 -21.377  0.00  0.00     0.002 A 
ATOM     15  C   UNL d   1      32.955  21.663 -20.653  0.00  0.00     0.000 A 
ATOM     16  C   UNL d   1      32.937  20.832 -20.612  0.00  0.00     0.002 A 
ATOM     17  C   UNL d   1      33.021  20.399 -21.297  0.00  0.00     0.025 A 
BRANCH  13  18
ATOM     18  C   UNL d   1      33.241  21.978 -22.791  0.00  0.00     0.002 C 
BRANCH  18  19
ATOM     19  C   UNL d   1      33.013  22.773 -22.886  0.00  0.00     0.000 C 
ATOM     20  C   UNL d   1      33.149  23.144 -23.590  0.00  0.00     0.000 C 
ENDBRANCH  18  19
ENDBRANCH  13  18
ENDBRANCH   1  12
TORSDOF 7
ENDMDL
