MODEL 1
REMARK VINA RESULT:      16.6      0.000      0.000
REMARK  4 active torsions:
REMARK  status: ('A' for Active; 'I' for Inactive)
REMARK    1  A    between atoms: N_6  and  C_1 
REMARK       I    between atoms: C_7  and  N_8 
REMARK    2  A    between atoms: C_9  and  C_7 
REMARK    3  A    between atoms: O_20  and  C_10 
REMARK    4  A    between atoms: O_19  and  C_11 
ROOT
ATOM      1  C   UNL d   1      45.958 -17.228  43.681  0.00  0.00     0.180 A 
ATOM      2  N   UNL d   1      46.022 -17.871  44.195  0.00  0.00    -0.220 NA
ATOM      3  S   UNL d   1      46.134 -17.504  42.915  0.00  0.00    -0.046 SA
ATOM      4  C   UNL d   1      46.233 -18.533  43.758  0.00  0.00     0.114 A 
ATOM      5  C   UNL d   1      46.301 -18.301  42.969  0.00  0.00     0.074 A 
ATOM      6  C   UNL d   1      46.371 -19.306  43.968  0.00  0.00     0.112 A 
ATOM      7  C   UNL d   1      46.505 -18.843  42.402  0.00  0.00     0.102 A 
ATOM      8  C   UNL d   1      46.646 -19.628  42.613  0.00  0.00     0.027 A 
ATOM      9  C   UNL d   1      46.578 -19.861  43.401  0.00  0.00     0.028 A 
ENDROOT
BRANCH   1  10
ATOM     10  N   UNL d   1      45.757 -16.461  43.897  0.00  0.00    -0.281 N 
ATOM     11  C   UNL d   1      45.022 -16.315  44.246  0.00  0.00     0.101 A 
ATOM     12  C   UNL d   1      44.806 -15.550  44.469  0.00  0.00     0.102 A 
ATOM     13  N   UNL d   1      45.340 -14.930  44.335  0.00  0.00    -0.272 N 
ATOM     14  C   UNL d   1      45.125 -14.157  44.558  0.00  0.00     0.240 C 
ATOM     15  C   UNL d   1      46.075 -15.076  43.986  0.00  0.00     0.102 A 
ATOM     16  O   UNL d   1      44.398 -14.012  44.904  0.00  0.00    -0.272 OA
ATOM     17  C   UNL d   1      46.276 -15.842  43.770  0.00  0.00     0.101 A 
BRANCH  14  18
ATOM     18  C   UNL d   1      45.659 -13.541  44.425  0.00  0.00     0.072 C 
ATOM     19  C   UNL d   1      45.493 -13.003  43.829  0.00  0.00     0.009 C 
ATOM     20  C   UNL d   1      46.355 -13.448  44.871  0.00  0.00     0.009 C 
ATOM     21  C   UNL d   1      46.216 -12.937  44.319  0.00  0.00     0.009 C 
ENDBRANCH  14  18
ENDBRANCH   1  10
BRANCH   6  22
ATOM     22  O   UNL d   1      46.303 -19.536  44.753  0.00  0.00    -0.327 OA
ATOM     23  C   UNL d   1      46.396 -20.325  44.954  0.00  0.00     0.181 C 
ENDBRANCH   6  22
BRANCH   7  24
ATOM     24  O   UNL d   1      46.573 -18.614  41.616  0.00  0.00    -0.328 OA
ATOM     25  C   UNL d   1      46.579 -19.183  41.016  0.00  0.00     0.181 C 
ENDBRANCH   7  24
TORSDOF 4
ENDMDL
