MODEL 1
REMARK VINA RESULT:      23.7      0.000      0.000
REMARK  4 active torsions:
REMARK  status: ('A' for Active; 'I' for Inactive)
REMARK    1  A    between atoms: O_2  and  P_1 
REMARK    2  A    between atoms: C_6  and  P_1 
REMARK    3  A    between atoms: C_3  and  O_2 
REMARK    4  A    between atoms: C_10  and  C_4 
ROOT
ATOM      1  C   UNL d   1      45.442 -14.952  44.482  0.00  0.00     0.103 A 
ATOM      2  C   UNL d   1      45.411 -14.125  44.498  0.00  0.00     0.023 A 
ATOM      3  C   UNL d   1      44.728 -13.732  44.660  0.00  0.00     0.002 A 
ATOM      4  C   UNL d   1      44.749 -15.372  44.638  0.00  0.00     0.025 A 
ATOM      5  C   UNL d   1      44.033 -14.157  44.817  0.00  0.00     0.000 A 
ATOM      6  C   UNL d   1      44.064 -14.979  44.801  0.00  0.00     0.002 A 
ATOM      7  C   UNL d   1      43.379 -15.425  44.954  0.00  0.00     0.000 C 
ENDROOT
BRANCH   1   8
ATOM      8  O   UNL d   1      46.147 -15.351  44.314  0.00  0.00    -0.269 OA
BRANCH   8   9
ATOM      9  P   UNL d   1      46.133 -16.156  44.176  0.00  0.00     0.370 P 
ATOM     10  O   UNL d   1      46.340 -16.296  44.955  0.00  0.00    -0.257 OA
ATOM     11  N   UNL d   1      45.919 -15.998  43.373  0.00  0.00    -0.091 N 
BRANCH   9  12
ATOM     12  C   UNL d   1      46.113 -16.968  44.017  0.00  0.00     0.077 A 
ATOM     13  C   UNL d   1      46.249 -17.493  44.639  0.00  0.00     0.007 A 
ATOM     14  C   UNL d   1      46.230 -18.309  44.480  0.00  0.00     0.000 A 
ATOM     15  C   UNL d   1      46.079 -18.591  43.716  0.00  0.00     0.000 A 
ATOM     16  C   UNL d   1      45.948 -18.055  43.116  0.00  0.00     0.000 A 
ATOM     17  C   UNL d   1      45.963 -17.250  43.254  0.00  0.00     0.007 A 
ENDBRANCH   9  12
ENDBRANCH   8   9
ENDBRANCH   1   8
BRANCH   2  18
ATOM     18  C   UNL d   1      46.089 -13.692  44.345  0.00  0.00     0.002 C 
ATOM     19  C   UNL d   1      46.640 -13.562  44.937  0.00  0.00     0.000 C 
ATOM     20  C   UNL d   1      46.215 -13.386  43.591  0.00  0.00     0.000 C 
ENDBRANCH   2  18
TORSDOF 4
ENDMDL
