MODEL 1
REMARK VINA RESULT:     108.1      0.000      0.000
REMARK  5 active torsions:
REMARK  status: ('A' for Active; 'I' for Inactive)
REMARK    1  A    between atoms: C_13  and  C_4 
REMARK    2  A    between atoms: S_11  and  C_5 
REMARK    3  A    between atoms: C_10  and  C_12 
REMARK    4  A    between atoms: C_15  and  S_11 
REMARK    5  A    between atoms: C_12  and  C_15 
ROOT
ATOM      1  N   UNL d   1      61.163  47.082  50.352  0.00  0.00    -0.206 N 
ATOM      2  C   UNL d   1      61.295  46.320  50.650  0.00  0.00     0.166 A 
ATOM      3  N   UNL d   1      61.279  46.593  49.048  0.00  0.00    -0.163 NA
ATOM      4  C   UNL d   1      61.419  45.698  50.146  0.00  0.00     0.055 A 
ATOM      5  C   UNL d   1      61.039  47.700  50.882  0.00  0.00     0.116 A 
ATOM      6  C   UNL d   1      61.411  45.835  49.344  0.00  0.00     0.104 A 
ATOM      7  N   UNL d   1      61.300  46.196  51.470  0.00  0.00    -0.227 NA
ATOM      8  C   UNL d   1      61.044  47.582  51.682  0.00  0.00     0.045 A 
ATOM      9  C   UNL d   1      61.176  46.819  51.980  0.00  0.00     0.085 A 
ATOM     10  C   UNL d   1      61.535  45.214  48.830  0.00  0.00     0.023 C 
ATOM     11  C   UNL d   1      61.183  46.685  52.822  0.00  0.00     0.021 C 
ENDROOT
BRANCH   5  12
ATOM     12  S   UNL d   1      60.902  48.487  50.578  0.00  0.00    -0.064 SA
BRANCH  12  13
ATOM     13  C   UNL d   1      60.531  49.224  50.406  0.00  0.00     0.079 C 
BRANCH  13  14
ATOM     14  C   UNL d   1      59.870  49.487  50.852  0.00  0.00     0.208 C 
ATOM     15  O   UNL d   1      59.967  49.685  51.665  0.00  0.00    -0.285 OA
BRANCH  14  16
ATOM     16  C   UNL d   1      59.117  49.550  50.485  0.00  0.00     0.069 A 
ATOM     17  S   UNL d   1      58.965  49.676  49.660  0.00  0.00    -0.083 SA
ATOM     18  C   UNL d   1      58.122  49.701  49.550  0.00  0.00     0.035 A 
ATOM     19  C   UNL d   1      57.758  49.592  50.300  0.00  0.00     0.008 A 
ATOM     20  C   UNL d   1      58.369  49.498  50.879  0.00  0.00     0.010 A 
ENDBRANCH  14  16
ENDBRANCH  13  14
ENDBRANCH  12  13
ENDBRANCH   5  12
BRANCH   4  21
ATOM     21  C   UNL d   1      61.550  44.944  50.440  0.00  0.00     0.004 A 
ATOM     22  C   UNL d   1      62.312  44.629  50.412  0.00  0.00     0.001 A 
ATOM     23  C   UNL d   1      62.442  43.879  50.705  0.00  0.00     0.011 A 
ATOM     24  C   UNL d   1      61.808  43.457  51.022  0.00  0.00     0.058 A 
ATOM     25  C   UNL d   1      61.069  43.762  51.050  0.00  0.00     0.011 A 
ATOM     26 CL   UNL d   1      61.944  42.671  51.330  0.00  0.00    -0.082 Cl
ATOM     27  C   UNL d   1      60.937  44.524  50.752  0.00  0.00     0.001 A 
ENDBRANCH   4  21
TORSDOF 5
ENDMDL
MODEL 2
REMARK VINA RESULT:     109.7      3.315      5.665
REMARK  5 active torsions:
REMARK  status: ('A' for Active; 'I' for Inactive)
REMARK    1  A    between atoms: C_13  and  C_4 
REMARK    2  A    between atoms: S_11  and  C_5 
REMARK    3  A    between atoms: C_10  and  C_12 
REMARK    4  A    between atoms: C_15  and  S_11 
REMARK    5  A    between atoms: C_12  and  C_15 
ROOT
ATOM      1  N   UNL d   1      59.195  49.603  52.255  0.00  0.00    -0.206 N 
ATOM      2  C   UNL d   1      58.539  49.593  52.761  0.00  0.00     0.166 A 
ATOM      3  N   UNL d   1      60.047  49.682  53.361  0.00  0.00    -0.163 NA
ATOM      4  C   UNL d   1      58.640  49.627  53.564  0.00  0.00     0.055 A 
ATOM      5  C   UNL d   1      59.070  49.567  51.442  0.00  0.00     0.116 A 
ATOM      6  C   UNL d   1      59.395  49.672  53.864  0.00  0.00     0.104 A 
ATOM      7  N   UNL d   1      57.775  49.547  52.441  0.00  0.00    -0.227 NA
ATOM      8  C   UNL d   1      58.327  49.522  51.128  0.00  0.00     0.045 A 
ATOM      9  C   UNL d   1      57.671  49.512  51.634  0.00  0.00     0.085 A 
ATOM     10  C   UNL d   1      59.505  49.707  54.672  0.00  0.00     0.023 C 
ATOM     11  C   UNL d   1      56.883  49.465  51.311  0.00  0.00     0.021 C 
ENDROOT
BRANCH   5  12
ATOM     12  S   UNL d   1      59.745  49.577  50.917  0.00  0.00    -0.064 SA
BRANCH  12  13
ATOM     13  C   UNL d   1      60.517  49.446  50.605  0.00  0.00     0.079 C 
BRANCH  13  14
ATOM     14  C   UNL d   1      60.740  48.692  50.311  0.00  0.00     0.208 C 
ATOM     15  O   UNL d   1      60.579  48.491  49.509  0.00  0.00    -0.285 OA
BRANCH  14  16
ATOM     16  C   UNL d   1      61.121  48.142  50.819  0.00  0.00     0.069 A 
ATOM     17  S   UNL d   1      60.784  47.760  51.497  0.00  0.00    -0.083 SA
ATOM     18  C   UNL d   1      61.377  47.254  51.836  0.00  0.00     0.035 A 
ATOM     19  C   UNL d   1      62.074  47.323  51.371  0.00  0.00     0.008 A 
ATOM     20  C   UNL d   1      61.920  47.870  50.743  0.00  0.00     0.010 A 
ENDBRANCH  14  16
ENDBRANCH  13  14
ENDBRANCH  12  13
ENDBRANCH   5  12
BRANCH   4  21
ATOM     21  C   UNL d   1      57.991  49.618  54.065  0.00  0.00     0.004 A 
ATOM     22  C   UNL d   1      57.234  49.593  53.739  0.00  0.00     0.001 A 
ATOM     23  C   UNL d   1      56.588  49.583  54.238  0.00  0.00     0.011 A 
ATOM     24  C   UNL d   1      56.710  49.598  55.053  0.00  0.00     0.058 A 
ATOM     25  C   UNL d   1      57.444  49.622  55.370  0.00  0.00     0.011 A 
ATOM     26 CL   UNL d   1      56.033  49.588  55.576  0.00  0.00    -0.082 Cl
ATOM     27  C   UNL d   1      58.100  49.632  54.864  0.00  0.00     0.001 A 
ENDBRANCH   4  21
TORSDOF 5
ENDMDL
