MODEL 1
REMARK VINA RESULT:      -7.4      0.000      0.000
REMARK  3 active torsions:
REMARK  status: ('A' for Active; 'I' for Inactive)
REMARK    1  A    between atoms: C_2  and  C_1 
REMARK    2  A    between atoms: N_5  and  C_2 
REMARK    3  A    between atoms: C_9  and  C_4 
ROOT
ATOM      1  C   UNL d   1     -49.738  12.837  23.187  0.00  0.00     0.126 A 
ATOM      2  O   UNL d   1     -49.008  13.210  23.100  0.00  0.00    -0.305 OA
ATOM      3  C   UNL d   1     -48.443  12.621  22.971  0.00  0.00     0.100 A 
ATOM      4  C   UNL d   1     -49.618  12.021  23.111  0.00  0.00     0.029 A 
ATOM      5  C   UNL d   1     -48.829  11.889  22.979  0.00  0.00     0.027 A 
ENDROOT
BRANCH   1   6
ATOM      6  C   UNL d   1     -50.485  13.139  23.324  0.00  0.00     0.143 C 
ATOM      7  S   UNL d   1     -51.061  12.666  23.677  0.00  0.00    -0.057 SA
BRANCH   6   8
ATOM      8  N   UNL d   1     -50.665  13.912  23.113  0.00  0.00    -0.290 N 
ATOM      9  C   UNL d   1     -50.884  14.095  22.338  0.00  0.00     0.108 A 
ATOM     10  C   UNL d   1     -51.064  14.875  22.130  0.00  0.00     0.142 A 
ATOM     11  O   UNL d   1     -51.024  15.464  22.705  0.00  0.00    -0.300 OA
ATOM     12  C   UNL d   1     -50.806  15.283  23.479  0.00  0.00     0.142 A 
ATOM     13  C   UNL d   1     -50.628  14.507  23.677  0.00  0.00     0.108 A 
ENDBRANCH   6   8
ENDBRANCH   1   6
BRANCH   3  14
ATOM     14  C   UNL d   1     -47.646  12.747  22.856  0.00  0.00     0.023 A 
ATOM     15  C   UNL d   1     -47.389  13.134  22.174  0.00  0.00     0.003 A 
ATOM     16  C   UNL d   1     -46.593  13.265  22.050  0.00  0.00     0.007 A 
ATOM     17  C   UNL d   1     -46.035  13.011  22.607  0.00  0.00     0.035 A 
ATOM     18  C   UNL d   1     -46.290  12.623  23.292  0.00  0.00     0.007 A 
ATOM     19 BR   UNL d   1     -45.231  13.144  22.481  0.00  0.00    -0.049 Br
ATOM     20  C   UNL d   1     -47.083  12.493  23.414  0.00  0.00     0.003 A 
ENDBRANCH   3  14
TORSDOF 3
ENDMDL
MODEL 2
REMARK VINA RESULT:      -7.2      1.516      2.065
REMARK  3 active torsions:
REMARK  status: ('A' for Active; 'I' for Inactive)
REMARK    1  A    between atoms: C_2  and  C_1 
REMARK    2  A    between atoms: N_5  and  C_2 
REMARK    3  A    between atoms: C_9  and  C_4 
ROOT
ATOM      1  C   UNL d   1     -48.442  14.112  22.869  0.00  0.00     0.126 A 
ATOM      2  O   UNL d   1     -48.192  13.339  23.008  0.00  0.00    -0.305 OA
ATOM      3  C   UNL d   1     -47.367  13.350  23.054  0.00  0.00     0.100 A 
ATOM      4  C   UNL d   1     -47.770  14.594  22.831  0.00  0.00     0.029 A 
ATOM      5  C   UNL d   1     -47.115  14.130  22.944  0.00  0.00     0.027 A 
ENDROOT
BRANCH   1   6
ATOM      6  C   UNL d   1     -49.189  14.429  22.775  0.00  0.00     0.143 C 
ATOM      7  S   UNL d   1     -49.324  15.225  22.944  0.00  0.00    -0.057 SA
BRANCH   6   8
ATOM      8  N   UNL d   1     -49.810  13.958  22.512  0.00  0.00    -0.290 N 
ATOM      9  C   UNL d   1     -50.324  13.601  23.050  0.00  0.00     0.108 A 
ATOM     10  C   UNL d   1     -50.946  13.129  22.780  0.00  0.00     0.142 A 
ATOM     11  O   UNL d   1     -51.046  13.019  21.969  0.00  0.00    -0.300 OA
ATOM     12  C   UNL d   1     -50.533  13.375  21.431  0.00  0.00     0.142 A 
ATOM     13  C   UNL d   1     -49.918  13.842  21.706  0.00  0.00     0.108 A 
ENDBRANCH   6   8
ENDBRANCH   1   6
BRANCH   3  14
ATOM     14  C   UNL d   1     -46.893  12.700  23.186  0.00  0.00     0.023 A 
ATOM     15  C   UNL d   1     -47.208  12.034  23.557  0.00  0.00     0.003 A 
ATOM     16  C   UNL d   1     -46.739  11.379  23.694  0.00  0.00     0.007 A 
ATOM     17  C   UNL d   1     -45.945  11.376  23.460  0.00  0.00     0.035 A 
ATOM     18  C   UNL d   1     -45.627  12.043  23.087  0.00  0.00     0.007 A 
ATOM     19 BR   UNL d   1     -45.473  10.714  23.598  0.00  0.00    -0.049 Br
ATOM     20  C   UNL d   1     -46.094  12.695  22.952  0.00  0.00     0.003 A 
ENDBRANCH   3  14
TORSDOF 3
ENDMDL
MODEL 3
REMARK VINA RESULT:      -6.0      9.719     10.880
REMARK  3 active torsions:
REMARK  status: ('A' for Active; 'I' for Inactive)
REMARK    1  A    between atoms: C_2  and  C_1 
REMARK    2  A    between atoms: N_5  and  C_2 
REMARK    3  A    between atoms: C_9  and  C_4 
ROOT
ATOM      1  C   UNL d   1     -40.242  15.111  18.097  0.00  0.00     0.126 A 
ATOM      2  O   UNL d   1     -39.906  15.514  18.733  0.00  0.00    -0.305 OA
ATOM      3  C   UNL d   1     -40.096  15.097  19.420  0.00  0.00     0.100 A 
ATOM      4  C   UNL d   1     -40.638  14.448  18.398  0.00  0.00     0.029 A 
ATOM      5  C   UNL d   1     -40.549  14.439  19.204  0.00  0.00     0.027 A 
ENDROOT
BRANCH   1   6
ATOM      6  C   UNL d   1     -40.235  15.266  17.295  0.00  0.00     0.143 C 
ATOM      7  S   UNL d   1     -40.936  15.460  16.908  0.00  0.00    -0.057 SA
BRANCH   6   8
ATOM      8  N   UNL d   1     -39.532  15.230  16.872  0.00  0.00    -0.290 N 
ATOM      9  C   UNL d   1     -39.232  14.505  16.616  0.00  0.00     0.108 A 
ATOM     10  C   UNL d   1     -38.524  14.474  16.190  0.00  0.00     0.142 A 
ATOM     11  O   UNL d   1     -38.123  15.175  16.025  0.00  0.00    -0.300 OA
ATOM     12  C   UNL d   1     -38.421  15.900  16.280  0.00  0.00     0.142 A 
ATOM     13  C   UNL d   1     -39.124  15.922  16.702  0.00  0.00     0.108 A 
ENDBRANCH   6   8
ENDBRANCH   1   6
BRANCH   3  14
ATOM     14  C   UNL d   1     -39.873  15.304  20.176  0.00  0.00     0.023 A 
ATOM     15  C   UNL d   1     -39.113  15.122  20.441  0.00  0.00     0.003 A 
ATOM     16  C   UNL d   1     -38.881  15.326  21.197  0.00  0.00     0.007 A 
ATOM     17  C   UNL d   1     -39.405  15.717  21.705  0.00  0.00     0.035 A 
ATOM     18  C   UNL d   1     -40.168  15.900  21.442  0.00  0.00     0.007 A 
ATOM     19 BR   UNL d   1     -39.169  15.922  22.468  0.00  0.00    -0.049 Br
ATOM     20  C   UNL d   1     -40.398  15.697  20.689  0.00  0.00     0.003 A 
ENDBRANCH   3  14
TORSDOF 3
ENDMDL
MODEL 4
REMARK VINA RESULT:      -5.4      9.291     10.317
REMARK  3 active torsions:
REMARK  status: ('A' for Active; 'I' for Inactive)
REMARK    1  A    between atoms: C_2  and  C_1 
REMARK    2  A    between atoms: N_5  and  C_2 
REMARK    3  A    between atoms: C_9  and  C_4 
ROOT
ATOM      1  C   UNL d   1     -39.730  15.134  21.183  0.00  0.00     0.126 A 
ATOM      2  O   UNL d   1     -39.582  15.105  20.373  0.00  0.00    -0.305 OA
ATOM      3  C   UNL d   1     -40.309  15.175  19.986  0.00  0.00     0.100 A 
ATOM      4  C   UNL d   1     -40.546  15.221  21.290  0.00  0.00     0.029 A 
ATOM      5  C   UNL d   1     -40.900  15.246  20.561  0.00  0.00     0.027 A 
ENDROOT
BRANCH   1   6
ATOM      6  C   UNL d   1     -39.226  15.091  21.825  0.00  0.00     0.143 C 
ATOM      7  S   UNL d   1     -39.029  15.776  22.239  0.00  0.00    -0.057 SA
BRANCH   6   8
ATOM      8  N   UNL d   1     -38.914  14.368  22.060  0.00  0.00    -0.290 N 
ATOM      9  C   UNL d   1     -39.250  13.950  22.687  0.00  0.00     0.108 A 
ATOM     10  C   UNL d   1     -38.932  13.223  22.920  0.00  0.00     0.142 A 
ATOM     11  O   UNL d   1     -38.277  12.923  22.520  0.00  0.00    -0.300 OA
ATOM     12  C   UNL d   1     -37.940  13.341  21.894  0.00  0.00     0.142 A 
ATOM     13  C   UNL d   1     -38.261  14.061  21.669  0.00  0.00     0.108 A 
ENDBRANCH   6   8
ENDBRANCH   1   6
BRANCH   3  14
ATOM     14  C   UNL d   1     -40.417  15.173  19.178  0.00  0.00     0.023 A 
ATOM     15  C   UNL d   1     -40.460  15.889  18.771  0.00  0.00     0.003 A 
ATOM     16  C   UNL d   1     -40.568  15.897  17.961  0.00  0.00     0.007 A 
ATOM     17  C   UNL d   1     -40.635  15.187  17.541  0.00  0.00     0.035 A 
ATOM     18  C   UNL d   1     -40.592  14.467  17.947  0.00  0.00     0.007 A 
ATOM     19 BR   UNL d   1     -40.744  15.196  16.724  0.00  0.00    -0.049 Br
ATOM     20  C   UNL d   1     -40.485  14.460  18.753  0.00  0.00     0.003 A 
ENDBRANCH   3  14
TORSDOF 3
ENDMDL
