MODEL 1
REMARK VINA RESULT:      -2.4      0.000      0.000
REMARK  5 active torsions:
REMARK  status: ('A' for Active; 'I' for Inactive)
REMARK    1  A    between atoms: C_2  and  S_1 
REMARK    2  A    between atoms: N_3  and  S_1 
REMARK    3  A    between atoms: C_10  and  N_3 
REMARK    4  A    between atoms: C_9  and  C_5 
REMARK    5  A    between atoms: O_14  and  C_8 
ROOT
ATOM      1  C   UNL d   1      59.109  -0.544  29.415  0.00  0.00     0.127 A 
ATOM      2  C   UNL d   1      58.876  -1.335  29.405  0.00  0.00     0.011 A 
ATOM      3  C   UNL d   1      59.339  -1.896  29.019  0.00  0.00    -0.022 A 
ATOM      4  C   UNL d   1      59.802  -0.322  29.039  0.00  0.00     0.106 A 
ATOM      5  C   UNL d   1      60.034  -1.666  28.644  0.00  0.00    -0.002 A 
ATOM      6  C   UNL d   1      60.267  -0.875  28.654  0.00  0.00     0.025 A 
ENDROOT
BRANCH   1   7
ATOM      7  S   UNL d   1      58.644   0.009  29.801  0.00  0.00     0.287 S 
ATOM      8  O   UNL d   1      58.074  -0.069  29.211  0.00  0.00    -0.198 OA
ATOM      9  O   UNL d   1      59.205   0.089  30.387  0.00  0.00    -0.198 OA
BRANCH   7  10
ATOM     10  N   UNL d   1      58.171   0.565  30.183  0.00  0.00    -0.157 NA
BRANCH  10  11
ATOM     11  C   UNL d   1      57.822   0.377  30.905  0.00  0.00     0.113 A 
ATOM     12  C   UNL d   1      58.133   0.672  31.599  0.00  0.00     0.119 A 
ATOM     13  N   UNL d   1      57.783   0.484  32.321  0.00  0.00    -0.241 NA
ATOM     14  C   UNL d   1      57.112  -0.005  32.344  0.00  0.00     0.099 A 
ATOM     15  C   UNL d   1      56.803  -0.299  31.637  0.00  0.00     0.022 A 
ATOM     16  C   UNL d   1      57.153  -0.111  30.917  0.00  0.00     0.023 A 
ENDBRANCH  10  11
ENDBRANCH   7  10
ENDBRANCH   1   7
BRANCH   4  17
ATOM     17  O   UNL d   1      60.035   0.469  29.050  0.00  0.00    -0.327 OA
ATOM     18  C   UNL d   1      60.788   0.682  28.790  0.00  0.00     0.181 C 
ENDBRANCH   4  17
BRANCH   3  19
ATOM     19  C   UNL d   1      59.106  -2.687  29.008  0.00  0.00     0.019 C 
ATOM     20  C   UNL d   1      58.873  -3.479  28.998  0.00  0.00     0.004 C 
ATOM     21  C   UNL d   1      58.521  -2.508  28.455  0.00  0.00     0.004 C 
ATOM     22  C   UNL d   1      59.691  -2.867  29.562  0.00  0.00     0.004 C 
ENDBRANCH   3  19
TORSDOF 5
ENDMDL
MODEL 2
REMARK VINA RESULT:      -2.2      1.434      3.411
REMARK  5 active torsions:
REMARK  status: ('A' for Active; 'I' for Inactive)
REMARK    1  A    between atoms: C_2  and  S_1 
REMARK    2  A    between atoms: N_3  and  S_1 
REMARK    3  A    between atoms: C_10  and  N_3 
REMARK    4  A    between atoms: C_9  and  C_5 
REMARK    5  A    between atoms: O_14  and  C_8 
ROOT
ATOM      1  C   UNL d   1      58.970  -0.423  29.664  0.00  0.00     0.127 A 
ATOM      2  C   UNL d   1      58.250  -0.461  30.064  0.00  0.00     0.011 A 
ATOM      3  C   UNL d   1      58.086   0.073  30.669  0.00  0.00    -0.022 A 
ATOM      4  C   UNL d   1      59.519   0.148  29.873  0.00  0.00     0.106 A 
ATOM      5  C   UNL d   1      58.642   0.644  30.873  0.00  0.00    -0.002 A 
ATOM      6  C   UNL d   1      59.363   0.682  30.473  0.00  0.00     0.025 A 
ENDROOT
BRANCH   1   7
ATOM      7  S   UNL d   1      59.127  -0.957  29.063  0.00  0.00     0.287 S 
ATOM      8  O   UNL d   1      58.446  -0.709  28.673  0.00  0.00    -0.198 OA
ATOM      9  O   UNL d   1      59.804  -1.206  29.445  0.00  0.00    -0.198 OA
BRANCH   7  10
ATOM     10  N   UNL d   1      59.279  -1.492  28.455  0.00  0.00    -0.157 NA
BRANCH  10  11
ATOM     11  C   UNL d   1      59.114  -2.291  28.563  0.00  0.00     0.113 A 
ATOM     12  C   UNL d   1      58.354  -2.570  28.458  0.00  0.00     0.119 A 
ATOM     13  N   UNL d   1      58.190  -3.370  28.566  0.00  0.00    -0.241 NA
ATOM     14  C   UNL d   1      58.796  -3.895  28.782  0.00  0.00     0.099 A 
ATOM     15  C   UNL d   1      59.562  -3.605  28.886  0.00  0.00     0.022 A 
ATOM     16  C   UNL d   1      59.726  -2.806  28.778  0.00  0.00     0.023 A 
ENDBRANCH  10  11
ENDBRANCH   7  10
ENDBRANCH   1   7
BRANCH   4  17
ATOM     17  O   UNL d   1      60.240   0.186  29.472  0.00  0.00    -0.327 OA
ATOM     18  C   UNL d   1      60.846   0.665  29.758  0.00  0.00     0.181 C 
ENDBRANCH   4  17
BRANCH   3  19
ATOM     19  C   UNL d   1      57.366   0.036  31.069  0.00  0.00     0.019 C 
ATOM     20  C   UNL d   1      56.646  -0.002  31.469  0.00  0.00     0.004 C 
ATOM     21  C   UNL d   1      57.650  -0.593  31.521  0.00  0.00     0.004 C 
ATOM     22  C   UNL d   1      57.082   0.665  30.617  0.00  0.00     0.004 C 
ENDBRANCH   3  19
TORSDOF 5
ENDMDL
MODEL 3
REMARK VINA RESULT:      -1.4      1.125      2.337
REMARK  5 active torsions:
REMARK  status: ('A' for Active; 'I' for Inactive)
REMARK    1  A    between atoms: C_2  and  S_1 
REMARK    2  A    between atoms: N_3  and  S_1 
REMARK    3  A    between atoms: C_10  and  N_3 
REMARK    4  A    between atoms: C_9  and  C_5 
REMARK    5  A    between atoms: O_14  and  C_8 
ROOT
ATOM      1  C   UNL d   1      58.652  -0.975  29.907  0.00  0.00     0.127 A 
ATOM      2  C   UNL d   1      59.228  -0.393  30.008  0.00  0.00     0.011 A 
ATOM      3  C   UNL d   1      59.978  -0.494  29.682  0.00  0.00    -0.022 A 
ATOM      4  C   UNL d   1      58.832  -1.652  29.483  0.00  0.00     0.106 A 
ATOM      5  C   UNL d   1      60.152  -1.176  29.257  0.00  0.00    -0.002 A 
ATOM      6  C   UNL d   1      59.576  -1.759  29.157  0.00  0.00     0.025 A 
ENDROOT
BRANCH   1   7
ATOM      7  S   UNL d   1      57.909  -0.869  30.233  0.00  0.00     0.287 S 
ATOM      8  O   UNL d   1      57.828  -0.171  29.804  0.00  0.00    -0.198 OA
ATOM      9  O   UNL d   1      57.984  -1.560  30.661  0.00  0.00    -0.198 OA
BRANCH   7  10
ATOM     10  N   UNL d   1      57.160  -0.755  30.558  0.00  0.00    -0.157 NA
BRANCH  10  11
ATOM     11  C   UNL d   1      57.083  -0.573  31.357  0.00  0.00     0.113 A 
ATOM     12  C   UNL d   1      56.713  -1.096  31.862  0.00  0.00     0.119 A 
ATOM     13  N   UNL d   1      56.637  -0.914  32.662  0.00  0.00    -0.241 NA
ATOM     14  C   UNL d   1      56.936  -0.197  32.956  0.00  0.00     0.099 A 
ATOM     15  C   UNL d   1      57.309   0.327  32.438  0.00  0.00     0.022 A 
ATOM     16  C   UNL d   1      57.385   0.144  31.640  0.00  0.00     0.023 A 
ENDBRANCH  10  11
ENDBRANCH   7  10
ENDBRANCH   1   7
BRANCH   4  17
ATOM     17  O   UNL d   1      58.257  -2.234  29.382  0.00  0.00    -0.327 OA
ATOM     18  C   UNL d   1      58.418  -2.900  28.925  0.00  0.00     0.181 C 
ENDBRANCH   4  17
BRANCH   3  19
ATOM     19  C   UNL d   1      60.553   0.088  29.783  0.00  0.00     0.019 C 
ATOM     20  C   UNL d   1      61.129   0.670  29.883  0.00  0.00     0.004 C 
ATOM     21  C   UNL d   1      60.951  -0.397  30.318  0.00  0.00     0.004 C 
ATOM     22  C   UNL d   1      60.156   0.574  29.247  0.00  0.00     0.004 C 
ENDBRANCH   3  19
TORSDOF 5
ENDMDL
MODEL 4
REMARK VINA RESULT:      -1.3      1.172      3.774
REMARK  5 active torsions:
REMARK  status: ('A' for Active; 'I' for Inactive)
REMARK    1  A    between atoms: C_2  and  S_1 
REMARK    2  A    between atoms: N_3  and  S_1 
REMARK    3  A    between atoms: C_10  and  N_3 
REMARK    4  A    between atoms: C_9  and  C_5 
REMARK    5  A    between atoms: O_14  and  C_8 
ROOT
ATOM      1  C   UNL d   1      57.730  -0.009  31.108  0.00  0.00     0.127 A 
ATOM      2  C   UNL d   1      57.009  -0.207  31.457  0.00  0.00     0.011 A 
ATOM      3  C   UNL d   1      56.865  -0.012  32.244  0.00  0.00    -0.022 A 
ATOM      4  C   UNL d   1      58.299   0.381  31.549  0.00  0.00     0.106 A 
ATOM      5  C   UNL d   1      57.442   0.380  32.682  0.00  0.00    -0.002 A 
ATOM      6  C   UNL d   1      58.162   0.577  32.332  0.00  0.00     0.025 A 
ENDROOT
BRANCH   1   7
ATOM      7  S   UNL d   1      57.867  -0.205  30.325  0.00  0.00     0.287 S 
ATOM      8  O   UNL d   1      57.794  -1.002  30.519  0.00  0.00    -0.198 OA
ATOM      9  O   UNL d   1      57.940   0.583  30.128  0.00  0.00    -0.198 OA
BRANCH   7  10
ATOM     10  N   UNL d   1      58.004  -0.410  29.539  0.00  0.00    -0.157 NA
BRANCH  10  11
ATOM     11  C   UNL d   1      58.529  -1.017  29.360  0.00  0.00     0.113 A 
ATOM     12  C   UNL d   1      59.271  -0.844  29.067  0.00  0.00     0.119 A 
ATOM     13  N   UNL d   1      59.797  -1.452  28.888  0.00  0.00    -0.241 NA
ATOM     14  C   UNL d   1      59.574  -2.244  29.005  0.00  0.00     0.099 A 
ATOM     15  C   UNL d   1      58.822  -2.411  29.301  0.00  0.00     0.022 A 
ATOM     16  C   UNL d   1      58.297  -1.803  29.479  0.00  0.00     0.023 A 
ENDBRANCH  10  11
ENDBRANCH   7  10
ENDBRANCH   1   7
BRANCH   4  17
ATOM     17  O   UNL d   1      59.020   0.579  31.200  0.00  0.00    -0.327 OA
ATOM     18  C   UNL d   1      59.691   0.682  31.667  0.00  0.00     0.181 C 
ENDBRANCH   4  17
BRANCH   3  19
ATOM     19  C   UNL d   1      56.145  -0.210  32.594  0.00  0.00     0.019 C 
ATOM     20  C   UNL d   1      55.424  -0.407  32.943  0.00  0.00     0.004 C 
ATOM     21  C   UNL d   1      56.369  -1.003  32.608  0.00  0.00     0.004 C 
ATOM     22  C   UNL d   1      55.920   0.584  32.579  0.00  0.00     0.004 C 
ENDBRANCH   3  19
TORSDOF 5
ENDMDL
MODEL 5
REMARK VINA RESULT:       0.0      8.681      9.569
REMARK  5 active torsions:
REMARK  status: ('A' for Active; 'I' for Inactive)
REMARK    1  A    between atoms: C_2  and  S_1 
REMARK    2  A    between atoms: N_3  and  S_1 
REMARK    3  A    between atoms: C_10  and  N_3 
REMARK    4  A    between atoms: C_9  and  C_5 
REMARK    5  A    between atoms: O_14  and  C_8 
ROOT
ATOM      1  C   UNL d   1      59.674  -9.115  34.574  0.00  0.00     0.127 A 
ATOM      2  C   UNL d   1      60.218  -9.129  33.954  0.00  0.00     0.011 A 
ATOM      3  C   UNL d   1      60.017  -9.481  33.237  0.00  0.00    -0.022 A 
ATOM      4  C   UNL d   1      58.934  -9.453  34.470  0.00  0.00     0.106 A 
ATOM      5  C   UNL d   1      59.273  -9.818  33.140  0.00  0.00    -0.002 A 
ATOM      6  C   UNL d   1      58.729  -9.804  33.760  0.00  0.00     0.025 A 
ENDROOT
BRANCH   1   7
ATOM      7  S   UNL d   1      59.879  -8.764  35.285  0.00  0.00     0.287 S 
ATOM      8  O   UNL d   1      59.324  -8.172  35.145  0.00  0.00    -0.198 OA
ATOM      9  O   UNL d   1      60.431  -9.348  35.427  0.00  0.00    -0.198 OA
BRANCH   7  10
ATOM     10  N   UNL d   1      60.081  -8.405  35.998  0.00  0.00    -0.157 NA
BRANCH  10  11
ATOM     11  C   UNL d   1      60.218  -7.594  36.024  0.00  0.00     0.113 A 
ATOM     12  C   UNL d   1      60.981  -7.306  36.009  0.00  0.00     0.119 A 
ATOM     13  N   UNL d   1      61.117  -6.494  36.035  0.00  0.00    -0.241 NA
ATOM     14  C   UNL d   1      60.477  -5.966  36.077  0.00  0.00     0.099 A 
ATOM     15  C   UNL d   1      59.709  -6.265  36.092  0.00  0.00     0.022 A 
ATOM     16  C   UNL d   1      59.573  -7.076  36.066  0.00  0.00     0.023 A 
ENDBRANCH  10  11
ENDBRANCH   7  10
ENDBRANCH   1   7
BRANCH   4  17
ATOM     17  O   UNL d   1      58.390  -9.439  35.090  0.00  0.00    -0.327 OA
ATOM     18  C   UNL d   1      57.644  -9.775  34.992  0.00  0.00     0.181 C 
ENDBRANCH   4  17
BRANCH   3  19
ATOM     19  C   UNL d   1      60.561  -9.495  32.618  0.00  0.00     0.019 C 
ATOM     20  C   UNL d   1      61.105  -9.509  31.998  0.00  0.00     0.004 C 
ATOM     21  C   UNL d   1      61.132  -9.804  33.126  0.00  0.00     0.004 C 
ATOM     22  C   UNL d   1      59.990  -9.185  32.109  0.00  0.00     0.004 C 
ENDBRANCH   3  19
TORSDOF 5
ENDMDL
MODEL 6
REMARK VINA RESULT:       0.2      1.525      3.944
REMARK  5 active torsions:
REMARK  status: ('A' for Active; 'I' for Inactive)
REMARK    1  A    between atoms: C_2  and  S_1 
REMARK    2  A    between atoms: N_3  and  S_1 
REMARK    3  A    between atoms: C_10  and  N_3 
REMARK    4  A    between atoms: C_9  and  C_5 
REMARK    5  A    between atoms: O_14  and  C_8 
ROOT
ATOM      1  C   UNL d   1      57.653  -0.105  31.138  0.00  0.00     0.127 A 
ATOM      2  C   UNL d   1      57.364   0.286  31.805  0.00  0.00     0.011 A 
ATOM      3  C   UNL d   1      56.856  -0.103  32.323  0.00  0.00    -0.022 A 
ATOM      4  C   UNL d   1      57.431  -0.881  30.998  0.00  0.00     0.106 A 
ATOM      5  C   UNL d   1      56.637  -0.882  32.176  0.00  0.00    -0.002 A 
ATOM      6  C   UNL d   1      56.926  -1.273  31.509  0.00  0.00     0.025 A 
ENDROOT
BRANCH   1   7
ATOM      7  S   UNL d   1      58.158   0.287  30.627  0.00  0.00     0.287 S 
ATOM      8  O   UNL d   1      57.654   0.106  30.001  0.00  0.00    -0.198 OA
ATOM      9  O   UNL d   1      58.661   0.469  31.243  0.00  0.00    -0.198 OA
BRANCH   7  10
ATOM     10  N   UNL d   1      58.661   0.680  30.106  0.00  0.00    -0.157 NA
BRANCH  10  11
ATOM     11  C   UNL d   1      59.454   0.461  30.060  0.00  0.00     0.113 A 
ATOM     12  C   UNL d   1      59.723   0.032  29.420  0.00  0.00     0.119 A 
ATOM     13  N   UNL d   1      60.516  -0.187  29.375  0.00  0.00    -0.241 NA
ATOM     14  C   UNL d   1      61.044   0.029  29.979  0.00  0.00     0.099 A 
ATOM     15  C   UNL d   1      60.763   0.464  30.622  0.00  0.00     0.022 A 
ATOM     16  C   UNL d   1      59.971   0.682  30.667  0.00  0.00     0.023 A 
ENDBRANCH  10  11
ENDBRANCH   7  10
ENDBRANCH   1   7
BRANCH   4  17
ATOM     17  O   UNL d   1      57.720  -1.273  30.331  0.00  0.00    -0.327 OA
ATOM     18  C   UNL d   1      57.633  -2.089  30.262  0.00  0.00     0.181 C 
ENDBRANCH   4  17
BRANCH   3  19
ATOM     19  C   UNL d   1      56.567   0.288  32.989  0.00  0.00     0.019 C 
ATOM     20  C   UNL d   1      56.279   0.680  33.656  0.00  0.00     0.004 C 
ATOM     21  C   UNL d   1      57.332   0.332  33.295  0.00  0.00     0.004 C 
ATOM     22  C   UNL d   1      55.803   0.245  32.683  0.00  0.00     0.004 C 
ENDBRANCH   3  19
TORSDOF 5
ENDMDL
MODEL 7
REMARK VINA RESULT:       0.5      1.311      2.034
REMARK  5 active torsions:
REMARK  status: ('A' for Active; 'I' for Inactive)
REMARK    1  A    between atoms: C_2  and  S_1 
REMARK    2  A    between atoms: N_3  and  S_1 
REMARK    3  A    between atoms: C_10  and  N_3 
REMARK    4  A    between atoms: C_9  and  C_5 
REMARK    5  A    between atoms: O_14  and  C_8 
ROOT
ATOM      1  C   UNL d   1      58.433   0.133  30.085  0.00  0.00     0.127 A 
ATOM      2  C   UNL d   1      59.181  -0.199  30.194  0.00  0.00     0.011 A 
ATOM      3  C   UNL d   1      59.639  -0.406  29.542  0.00  0.00    -0.022 A 
ATOM      4  C   UNL d   1      58.152   0.254  29.325  0.00  0.00     0.106 A 
ATOM      5  C   UNL d   1      59.350  -0.282  28.781  0.00  0.00    -0.002 A 
ATOM      6  C   UNL d   1      58.603   0.050  28.672  0.00  0.00     0.025 A 
ENDROOT
BRANCH   1   7
ATOM      7  S   UNL d   1      57.983   0.337  30.737  0.00  0.00     0.287 S 
ATOM      8  O   UNL d   1      57.325  -0.009  30.383  0.00  0.00    -0.198 OA
ATOM      9  O   UNL d   1      58.632   0.682  31.092  0.00  0.00    -0.198 OA
BRANCH   7  10
ATOM     10  N   UNL d   1      57.523   0.539  31.391  0.00  0.00    -0.157 NA
BRANCH  10  11
ATOM     11  C   UNL d   1      57.136  -0.049  31.816  0.00  0.00     0.113 A 
ATOM     12  C   UNL d   1      57.058  -0.798  31.502  0.00  0.00     0.119 A 
ATOM     13  N   UNL d   1      56.671  -1.387  31.928  0.00  0.00    -0.241 NA
ATOM     14  C   UNL d   1      56.358  -1.220  32.680  0.00  0.00     0.099 A 
ATOM     15  C   UNL d   1      56.442  -0.460  32.991  0.00  0.00     0.022 A 
ATOM     16  C   UNL d   1      56.829   0.127  32.565  0.00  0.00     0.023 A 
ENDBRANCH  10  11
ENDBRANCH   7  10
ENDBRANCH   1   7
BRANCH   4  17
ATOM     17  O   UNL d   1      57.405   0.586  29.216  0.00  0.00    -0.327 OA
ATOM     18  C   UNL d   1      57.102   0.682  28.455  0.00  0.00     0.181 C 
ENDBRANCH   4  17
BRANCH   3  19
ATOM     19  C   UNL d   1      60.386  -0.738  29.651  0.00  0.00     0.019 C 
ATOM     20  C   UNL d   1      61.133  -1.070  29.760  0.00  0.00     0.004 C 
ATOM     21  C   UNL d   1      60.717   0.017  29.682  0.00  0.00     0.004 C 
ATOM     22  C   UNL d   1      60.055  -1.493  29.619  0.00  0.00     0.004 C 
ENDBRANCH   3  19
TORSDOF 5
ENDMDL
