MODEL 1
REMARK VINA RESULT:      38.9      0.000      0.000
REMARK  2 active torsions:
REMARK  status: ('A' for Active; 'I' for Inactive)
REMARK       I    between atoms: C_2  and  N_1 
REMARK       I    between atoms: N_8  and  C_2 
REMARK    1  A    between atoms: C_15  and  N_8 
REMARK    2  A    between atoms: C_9  and  C_15 
ROOT
ATOM      1  N   UNL d   1      13.986  13.416  -2.706  0.00  0.00    -0.258 N 
ATOM      2  C   UNL d   1      14.105  14.232  -2.762  0.00  0.00     0.354 C 
ATOM      3  S   UNL d   1      13.763  11.781  -2.560  0.00  0.00    -0.084 SA
ATOM      4  C   UNL d   1      14.257  13.013  -2.029  0.00  0.00     0.074 A 
ATOM      5  C   UNL d   1      13.607  13.013  -3.306  0.00  0.00     0.074 A 
ATOM      6  C   UNL d   1      14.146  12.190  -1.955  0.00  0.00     0.046 A 
ATOM      7  C   UNL d   1      13.495  12.190  -3.232  0.00  0.00     0.046 A 
ATOM      8  N   UNL d   1      14.528  14.677  -2.090  0.00  0.00    -0.189 NA
ATOM      9  O   UNL d   1      13.807  14.665  -3.501  0.00  0.00    -0.244 OA
ATOM     10  C   UNL d   1      13.341  13.410  -3.969  0.00  0.00     0.018 A 
ATOM     11  C   UNL d   1      14.636  13.421  -1.431  0.00  0.00     0.018 A 
ATOM     12  C   UNL d   1      14.412  11.798  -1.292  0.00  0.00     0.008 A 
ATOM     13  C   UNL d   1      13.114  11.779  -3.833  0.00  0.00     0.008 A 
ATOM     14  C   UNL d   1      14.903  13.024  -0.765  0.00  0.00     0.002 A 
ATOM     15  C   UNL d   1      12.958  12.998  -4.573  0.00  0.00     0.002 A 
ATOM     16  C   UNL d   1      12.843  12.176  -4.506  0.00  0.00     0.001 A 
ATOM     17  C   UNL d   1      14.791  12.198  -0.692  0.00  0.00     0.001 A 
ENDROOT
BRANCH   8  18
ATOM     18  C   UNL d   1      14.645  15.491  -2.150  0.00  0.00     0.128 C 
BRANCH  18  19
ATOM     19  C   UNL d   1      14.969  15.913  -1.516  0.00  0.00     0.119 A 
ATOM     20  O   UNL d   1      14.982  15.672  -0.726  0.00  0.00    -0.304 OA
ATOM     21  C   UNL d   1      15.358  16.259  -0.284  0.00  0.00     0.123 A 
ATOM     22  C   UNL d   1      15.578  16.864  -0.800  0.00  0.00     0.029 A 
ATOM     23  C   UNL d   1      15.338  16.650  -1.559  0.00  0.00     0.028 A 
ENDBRANCH  18  19
ENDBRANCH   8  18
TORSDOF 2
ENDMDL
