MODEL 1
REMARK VINA RESULT:      -6.4      0.000      0.000
REMARK  2 active torsions:
REMARK  status: ('A' for Active; 'I' for Inactive)
REMARK    1  A    between atoms: N_9  and  C_3 
REMARK    2  A    between atoms: C_11  and  C_4 
ROOT
ATOM      1  N   UNL d   1     -47.286  12.167  22.907  0.00  0.00    -0.196 N 
ATOM      2  C   UNL d   1     -47.900  12.746  22.794  0.00  0.00     0.167 A 
ATOM      3  C   UNL d   1     -46.530  12.422  23.026  0.00  0.00     0.152 A 
ATOM      4  C   UNL d   1     -48.666  12.508  22.672  0.00  0.00     0.057 A 
ATOM      5  N   UNL d   1     -48.254  11.133  22.770  0.00  0.00    -0.161 NA
ATOM      6  N   UNL d   1     -47.716  13.541  22.807  0.00  0.00    -0.227 NA
ATOM      7  C   UNL d   1     -46.334  13.222  23.041  0.00  0.00     0.057 A 
ATOM      8  C   UNL d   1     -48.849  11.694  22.660  0.00  0.00     0.124 A 
ATOM      9  C   UNL d   1     -46.938  13.792  22.930  0.00  0.00     0.086 A 
ATOM     10  C   UNL d   1     -46.744  14.630  22.943  0.00  0.00     0.021 C 
ENDROOT
BRANCH   4  11
ATOM     11  C   UNL d   1     -49.261  13.069  22.562  0.00  0.00     0.005 A 
ATOM     12  C   UNL d   1     -49.440  13.327  21.810  0.00  0.00     0.001 A 
ATOM     13  C   UNL d   1     -50.026  13.879  21.702  0.00  0.00     0.011 A 
ATOM     14  C   UNL d   1     -50.440  14.181  22.344  0.00  0.00     0.058 A 
ATOM     15  C   UNL d   1     -50.261  13.923  23.096  0.00  0.00     0.011 A 
ATOM     16 CL   UNL d   1     -51.064  14.770  22.228  0.00  0.00    -0.082 Cl
ATOM     17  C   UNL d   1     -49.666  13.362  23.206  0.00  0.00     0.001 A 
ENDBRANCH   4  11
BRANCH   3  18
ATOM     18  N   UNL d   1     -45.907  11.840  23.142  0.00  0.00    -0.289 N 
ATOM     19  C   UNL d   1     -45.125  11.971  22.814  0.00  0.00     0.082 A 
ATOM     20  C   UNL d   1     -44.506  11.398  22.926  0.00  0.00     0.019 A 
ATOM     21  C   UNL d   1     -44.662  10.676  23.372  0.00  0.00     0.003 A 
ATOM     22  C   UNL d   1     -45.449  10.551  23.698  0.00  0.00     0.019 A 
ATOM     23  C   UNL d   1     -46.068  11.124  23.586  0.00  0.00     0.082 A 
ENDBRANCH   3  18
TORSDOF 2
ENDMDL
MODEL 2
REMARK VINA RESULT:      -6.2      1.787      4.635
REMARK  2 active torsions:
REMARK  status: ('A' for Active; 'I' for Inactive)
REMARK    1  A    between atoms: N_9  and  C_3 
REMARK    2  A    between atoms: C_11  and  C_4 
ROOT
ATOM      1  N   UNL d   1     -48.452  13.934  22.950  0.00  0.00    -0.196 N 
ATOM      2  C   UNL d   1     -47.849  13.333  22.957  0.00  0.00     0.167 A 
ATOM      3  C   UNL d   1     -49.227  13.705  22.951  0.00  0.00     0.152 A 
ATOM      4  C   UNL d   1     -47.065  13.544  22.956  0.00  0.00     0.057 A 
ATOM      5  N   UNL d   1     -47.440  14.933  22.941  0.00  0.00    -0.161 NA
ATOM      6  N   UNL d   1     -48.060  12.544  22.964  0.00  0.00    -0.227 NA
ATOM      7  C   UNL d   1     -49.450  12.912  22.958  0.00  0.00     0.057 A 
ATOM      8  C   UNL d   1     -46.855  14.352  22.948  0.00  0.00     0.124 A 
ATOM      9  C   UNL d   1     -48.856  12.321  22.965  0.00  0.00     0.086 A 
ATOM     10  C   UNL d   1     -49.079  11.490  22.973  0.00  0.00     0.021 C 
ENDROOT
BRANCH   4  11
ATOM     11  C   UNL d   1     -46.480  12.962  22.962  0.00  0.00     0.005 A 
ATOM     12  C   UNL d   1     -46.005  12.858  22.309  0.00  0.00     0.001 A 
ATOM     13  C   UNL d   1     -45.430  12.286  22.315  0.00  0.00     0.011 A 
ATOM     14  C   UNL d   1     -45.320  11.809  22.976  0.00  0.00     0.058 A 
ATOM     15  C   UNL d   1     -45.796  11.914  23.629  0.00  0.00     0.011 A 
ATOM     16 CL   UNL d   1     -44.707  11.199  22.983  0.00  0.00    -0.082 Cl
ATOM     17  C   UNL d   1     -46.381  12.495  23.623  0.00  0.00     0.001 A 
ENDBRANCH   4  11
BRANCH   3  18
ATOM     18  N   UNL d   1     -49.839  14.309  22.944  0.00  0.00    -0.289 N 
ATOM     19  C   UNL d   1     -50.228  14.523  22.210  0.00  0.00     0.082 A 
ATOM     20  C   UNL d   1     -50.835  15.120  22.199  0.00  0.00     0.019 A 
ATOM     21  C   UNL d   1     -51.064  15.516  22.931  0.00  0.00     0.003 A 
ATOM     22  C   UNL d   1     -50.670  15.295  23.664  0.00  0.00     0.019 A 
ATOM     23  C   UNL d   1     -50.064  14.699  23.674  0.00  0.00     0.082 A 
ENDBRANCH   3  18
TORSDOF 2
ENDMDL
MODEL 3
REMARK VINA RESULT:      -6.1      8.618     10.450
REMARK  2 active torsions:
REMARK  status: ('A' for Active; 'I' for Inactive)
REMARK    1  A    between atoms: N_9  and  C_3 
REMARK    2  A    between atoms: C_11  and  C_4 
ROOT
ATOM      1  N   UNL d   1     -39.579  14.773  18.586  0.00  0.00    -0.196 N 
ATOM      2  C   UNL d   1     -39.386  14.749  17.757  0.00  0.00     0.167 A 
ATOM      3  C   UNL d   1     -40.270  15.123  18.813  0.00  0.00     0.152 A 
ATOM      4  C   UNL d   1     -38.695  14.402  17.510  0.00  0.00     0.057 A 
ATOM      5  N   UNL d   1     -38.364  14.092  18.875  0.00  0.00    -0.161 NA
ATOM      6  N   UNL d   1     -39.896  15.077  17.211  0.00  0.00    -0.227 NA
ATOM      7  C   UNL d   1     -40.792  15.457  18.270  0.00  0.00     0.057 A 
ATOM      8  C   UNL d   1     -38.177  14.068  18.072  0.00  0.00     0.124 A 
ATOM      9  C   UNL d   1     -40.602  15.433  17.454  0.00  0.00     0.086 A 
ATOM     10  C   UNL d   1     -41.140  15.779  16.879  0.00  0.00     0.021 C 
ENDROOT
BRANCH   4  11
ATOM     11  C   UNL d   1     -38.508  14.379  16.707  0.00  0.00     0.005 A 
ATOM     12  C   UNL d   1     -38.705  13.724  16.264  0.00  0.00     0.001 A 
ATOM     13  C   UNL d   1     -38.521  13.701  15.474  0.00  0.00     0.011 A 
ATOM     14  C   UNL d   1     -38.137  14.332  15.114  0.00  0.00     0.058 A 
ATOM     15  C   UNL d   1     -37.940  14.987  15.558  0.00  0.00     0.011 A 
ATOM     16 CL   UNL d   1     -37.941  14.308  14.272  0.00  0.00    -0.082 Cl
ATOM     17  C   UNL d   1     -38.128  15.011  16.361  0.00  0.00     0.001 A 
ENDBRANCH   4  11
BRANCH   3  18
ATOM     18  N   UNL d   1     -40.469  15.150  19.649  0.00  0.00    -0.289 N 
ATOM     19  C   UNL d   1     -40.411  15.886  20.086  0.00  0.00     0.082 A 
ATOM     20  C   UNL d   1     -40.607  15.915  20.914  0.00  0.00     0.019 A 
ATOM     21  C   UNL d   1     -40.866  15.201  21.322  0.00  0.00     0.003 A 
ATOM     22  C   UNL d   1     -40.921  14.466  20.878  0.00  0.00     0.019 A 
ATOM     23  C   UNL d   1     -40.726  14.436  20.050  0.00  0.00     0.082 A 
ENDBRANCH   3  18
TORSDOF 2
ENDMDL
MODEL 4
REMARK VINA RESULT:      -5.8      8.601      9.861
REMARK  2 active torsions:
REMARK  status: ('A' for Active; 'I' for Inactive)
REMARK    1  A    between atoms: N_9  and  C_3 
REMARK    2  A    between atoms: C_11  and  C_4 
ROOT
ATOM      1  N   UNL d   1     -39.750  14.976  19.429  0.00  0.00    -0.196 N 
ATOM      2  C   UNL d   1     -39.366  14.655  20.117  0.00  0.00     0.167 A 
ATOM      3  C   UNL d   1     -39.524  14.713  18.700  0.00  0.00     0.152 A 
ATOM      4  C   UNL d   1     -39.579  14.907  20.858  0.00  0.00     0.057 A 
ATOM      5  N   UNL d   1     -40.549  15.796  20.274  0.00  0.00    -0.161 NA
ATOM      6  N   UNL d   1     -38.782  14.091  20.030  0.00  0.00    -0.227 NA
ATOM      7  C   UNL d   1     -38.936  14.144  18.601  0.00  0.00     0.057 A 
ATOM      8  C   UNL d   1     -40.177  15.484  20.941  0.00  0.00     0.124 A 
ATOM      9  C   UNL d   1     -38.558  13.827  19.279  0.00  0.00     0.086 A 
ATOM     10  C   UNL d   1     -37.943  13.233  19.187  0.00  0.00     0.021 C 
ENDROOT
BRANCH   4  11
ATOM     11  C   UNL d   1     -39.207  14.595  21.524  0.00  0.00     0.005 A 
ATOM     12  C   UNL d   1     -38.578  14.990  21.859  0.00  0.00     0.001 A 
ATOM     13  C   UNL d   1     -38.211  14.683  22.515  0.00  0.00     0.011 A 
ATOM     14  C   UNL d   1     -38.469  13.977  22.847  0.00  0.00     0.058 A 
ATOM     15  C   UNL d   1     -39.098  13.582  22.511  0.00  0.00     0.011 A 
ATOM     16 CL   UNL d   1     -38.078  13.650  23.546  0.00  0.00    -0.082 Cl
ATOM     17  C   UNL d   1     -39.471  13.894  21.845  0.00  0.00     0.001 A 
ENDBRANCH   4  11
BRANCH   3  18
ATOM     18  N   UNL d   1     -39.910  15.036  18.002  0.00  0.00    -0.289 N 
ATOM     19  C   UNL d   1     -40.707  14.795  17.797  0.00  0.00     0.082 A 
ATOM     20  C   UNL d   1     -41.092  15.112  17.107  0.00  0.00     0.019 A 
ATOM     21  C   UNL d   1     -40.681  15.682  16.607  0.00  0.00     0.003 A 
ATOM     22  C   UNL d   1     -39.881  15.920  16.819  0.00  0.00     0.019 A 
ATOM     23  C   UNL d   1     -39.496  15.603  17.508  0.00  0.00     0.082 A 
ENDBRANCH   3  18
TORSDOF 2
ENDMDL
MODEL 5
REMARK VINA RESULT:      -5.5      8.477     10.083
REMARK  2 active torsions:
REMARK  status: ('A' for Active; 'I' for Inactive)
REMARK    1  A    between atoms: N_9  and  C_3 
REMARK    2  A    between atoms: C_11  and  C_4 
ROOT
ATOM      1  N   UNL d   1     -39.441  14.792  17.278  0.00  0.00    -0.196 N 
ATOM      2  C   UNL d   1     -39.691  14.833  18.090  0.00  0.00     0.167 A 
ATOM      3  C   UNL d   1     -38.718  14.475  17.110  0.00  0.00     0.152 A 
ATOM      4  C   UNL d   1     -40.415  15.148  18.278  0.00  0.00     0.057 A 
ATOM      5  N   UNL d   1     -40.670  15.391  16.883  0.00  0.00    -0.161 NA
ATOM      6  N   UNL d   1     -39.201  14.556  18.681  0.00  0.00    -0.227 NA
ATOM      7  C   UNL d   1     -38.216  14.192  17.699  0.00  0.00     0.057 A 
ATOM      8  C   UNL d   1     -40.913  15.431  17.670  0.00  0.00     0.124 A 
ATOM      9  C   UNL d   1     -38.462  14.233  18.499  0.00  0.00     0.086 A 
ATOM     10  C   UNL d   1     -37.945  13.941  19.121  0.00  0.00     0.021 C 
ENDROOT
BRANCH   4  11
ATOM     11  C   UNL d   1     -40.657  15.188  19.065  0.00  0.00     0.005 A 
ATOM     12  C   UNL d   1     -41.017  14.545  19.412  0.00  0.00     0.001 A 
ATOM     13  C   UNL d   1     -41.256  14.584  20.187  0.00  0.00     0.011 A 
ATOM     14  C   UNL d   1     -41.138  15.268  20.627  0.00  0.00     0.058 A 
ATOM     15  C   UNL d   1     -40.777  15.912  20.280  0.00  0.00     0.011 A 
ATOM     16 CL   UNL d   1     -41.392  15.310  21.453  0.00  0.00    -0.082 Cl
ATOM     17  C   UNL d   1     -40.535  15.872  19.492  0.00  0.00     0.001 A 
ENDBRANCH   4  11
BRANCH   3  18
ATOM     18  N   UNL d   1     -38.462  14.432  16.290  0.00  0.00    -0.289 N 
ATOM     19  C   UNL d   1     -38.194  15.137  15.882  0.00  0.00     0.082 A 
ATOM     20  C   UNL d   1     -37.940  15.097  15.070  0.00  0.00     0.019 A 
ATOM     21  C   UNL d   1     -37.950  14.344  14.650  0.00  0.00     0.003 A 
ATOM     22  C   UNL d   1     -38.221  13.640  15.066  0.00  0.00     0.019 A 
ATOM     23  C   UNL d   1     -38.475  13.680  15.878  0.00  0.00     0.082 A 
ENDBRANCH   3  18
TORSDOF 2
ENDMDL
MODEL 6
REMARK VINA RESULT:      -5.4      1.920      4.378
REMARK  2 active torsions:
REMARK  status: ('A' for Active; 'I' for Inactive)
REMARK    1  A    between atoms: N_9  and  C_3 
REMARK    2  A    between atoms: C_11  and  C_4 
ROOT
ATOM      1  N   UNL d   1     -48.790  13.601  23.196  0.00  0.00    -0.196 N 
ATOM      2  C   UNL d   1     -48.051  13.181  23.169  0.00  0.00     0.167 A 
ATOM      3  C   UNL d   1     -48.805  14.376  22.968  0.00  0.00     0.152 A 
ATOM      4  C   UNL d   1     -48.017  12.402  23.393  0.00  0.00     0.057 A 
ATOM      5  N   UNL d   1     -49.428  12.423  23.676  0.00  0.00    -0.161 NA
ATOM      6  N   UNL d   1     -47.375  13.563  22.917  0.00  0.00    -0.227 NA
ATOM      7  C   UNL d   1     -48.128  14.771  22.712  0.00  0.00     0.057 A 
ATOM      8  C   UNL d   1     -48.711  12.016  23.650  0.00  0.00     0.124 A 
ATOM      9  C   UNL d   1     -47.400  14.357  22.686  0.00  0.00     0.086 A 
ATOM     10  C   UNL d   1     -46.688  14.760  22.420  0.00  0.00     0.021 C 
ENDROOT
BRANCH   4  11
ATOM     11  C   UNL d   1     -47.300  11.995  23.368  0.00  0.00     0.005 A 
ATOM     12  C   UNL d   1     -47.265  11.258  23.021  0.00  0.00     0.001 A 
ATOM     13  C   UNL d   1     -46.560  10.857  22.996  0.00  0.00     0.011 A 
ATOM     14  C   UNL d   1     -45.878  11.187  23.316  0.00  0.00     0.058 A 
ATOM     15  C   UNL d   1     -45.914  11.924  23.663  0.00  0.00     0.011 A 
ATOM     16 CL   UNL d   1     -45.127  10.760  23.289  0.00  0.00    -0.082 Cl
ATOM     17  C   UNL d   1     -46.631  12.331  23.688  0.00  0.00     0.001 A 
ENDBRANCH   4  11
BRANCH   3  18
ATOM     18  N   UNL d   1     -49.551  14.804  22.994  0.00  0.00    -0.289 N 
ATOM     19  C   UNL d   1     -49.721  15.340  23.641  0.00  0.00     0.082 A 
ATOM     20  C   UNL d   1     -50.457  15.765  23.670  0.00  0.00     0.019 A 
ATOM     21  C   UNL d   1     -51.042  15.659  23.044  0.00  0.00     0.003 A 
ATOM     22  C   UNL d   1     -50.865  15.119  22.397  0.00  0.00     0.019 A 
ATOM     23  C   UNL d   1     -50.128  14.694  22.369  0.00  0.00     0.082 A 
ENDBRANCH   3  18
TORSDOF 2
ENDMDL
