MODEL 1
REMARK VINA RESULT:      -4.5      0.000      0.000
REMARK  12 active torsions:
REMARK  status: ('A' for Active; 'I' for Inactive)
REMARK    1  A    between atoms: C_7  and  C_1 
REMARK    2  A    between atoms: C_8  and  N_2 
REMARK    3  A    between atoms: C_6  and  C_5 
REMARK    4  A    between atoms: C_9  and  C_7 
REMARK    5  A    between atoms: C_24  and  C_8 
REMARK    6  A    between atoms: C_12  and  C_9 
REMARK    7  A    between atoms: C_11  and  C_12 
REMARK    8  A    between atoms: O_27  and  C_13 
REMARK    9  A    between atoms: N_14  and  C_24 
REMARK   10  A    between atoms: O_28  and  C_18 
REMARK   11  A    between atoms: C_33  and  O_28 
REMARK   12  A    between atoms: C_35  and  C_33 
ROOT
ATOM      1  C   UNL d   1     -46.395  13.635  22.843  0.00  0.00     0.099 A 
ATOM      2  N   UNL d   1     -47.507  14.368  22.949  0.00  0.00    -0.269 N 
ATOM      3  C   UNL d   1     -46.185  14.434  22.840  0.00  0.00     0.256 A 
ATOM      4  C   UNL d   1     -46.867  14.887  22.906  0.00  0.00     0.304 A 
ATOM      5  C   UNL d   1     -47.216  13.595  22.911  0.00  0.00     0.073 A 
ATOM      6  O   UNL d   1     -46.907  15.710  22.924  0.00  0.00    -0.263 OA
ATOM      7  O   UNL d   1     -45.418  14.726  22.782  0.00  0.00    -0.281 OA
ENDROOT
BRANCH   5   8
ATOM      8  C   UNL d   1     -47.669  12.909  22.936  0.00  0.00     0.018 A 
ATOM      9  C   UNL d   1     -47.970  12.591  22.247  0.00  0.00     0.028 A 
ATOM     10  C   UNL d   1     -48.423  11.906  22.272  0.00  0.00     0.117 A 
ATOM     11  C   UNL d   1     -48.575  11.537  23.003  0.00  0.00     0.122 A 
ATOM     12  C   UNL d   1     -48.269  11.862  23.696  0.00  0.00     0.027 A 
ATOM     13  C   UNL d   1     -47.813  12.553  23.666  0.00  0.00     0.004 A 
BRANCH  10  14
ATOM     14  O   UNL d   1     -48.725  11.585  21.580  0.00  0.00    -0.326 OA
ATOM     15  C   UNL d   1     -48.401  11.799  20.849  0.00  0.00     0.181 C 
ENDBRANCH  10  14
BRANCH  11  16
ATOM     16  O   UNL d   1     -49.028  10.851  23.028  0.00  0.00    -0.303 OA
BRANCH  16  17
ATOM     17  C   UNL d   1     -49.797  10.880  23.334  0.00  0.00     0.123 C 
BRANCH  17  18
ATOM     18  C   UNL d   1     -50.294  11.508  23.137  0.00  0.00     0.027 C 
ATOM     19  C   UNL d   1     -50.839  11.782  23.686  0.00  0.00     0.002 C 
ENDBRANCH  17  18
ENDBRANCH  16  17
ENDBRANCH  11  16
ENDBRANCH   5   8
BRANCH   2  20
ATOM     20  C   UNL d   1     -48.301  14.582  23.019  0.00  0.00     0.102 C 
BRANCH  20  21
ATOM     21  C   UNL d   1     -48.613  15.181  22.544  0.00  0.00     0.100 C 
BRANCH  21  22
ATOM     22  N   UNL d   1     -49.413  15.359  22.580  0.00  0.00    -0.298 N 
ATOM     23  C   UNL d   1     -49.900  15.155  21.958  0.00  0.00     0.107 A 
ATOM     24  C   UNL d   1     -50.707  15.333  21.993  0.00  0.00     0.142 A 
ATOM     25  O   UNL d   1     -51.016  15.717  22.655  0.00  0.00    -0.300 OA
ATOM     26  C   UNL d   1     -50.519  15.922  23.282  0.00  0.00     0.142 A 
ATOM     27  C   UNL d   1     -49.721  15.745  23.246  0.00  0.00     0.107 A 
ENDBRANCH  21  22
ENDBRANCH  20  21
ENDBRANCH   2  20
BRANCH   1  28
ATOM     28  C   UNL d   1     -45.884  12.998  22.788  0.00  0.00     0.200 C 
ATOM     29  O   UNL d   1     -45.952  12.364  23.314  0.00  0.00    -0.286 OA
BRANCH  28  30
ATOM     30  C   UNL d   1     -45.295  12.989  22.205  0.00  0.00     0.044 C 
BRANCH  30  31
ATOM     31  C   UNL d   1     -44.608  12.539  22.318  0.00  0.00     0.028 C 
BRANCH  31  32
ATOM     32  C   UNL d   1     -43.959  12.662  21.839  0.00  0.00     0.100 A 
ATOM     33  O   UNL d   1     -43.785  13.346  21.422  0.00  0.00    -0.305 OA
ATOM     34  C   UNL d   1     -43.076  13.230  21.009  0.00  0.00     0.123 A 
ATOM     35  C   UNL d   1     -42.811  12.471  21.172  0.00  0.00     0.029 A 
ATOM     36  C   UNL d   1     -43.355  12.113  21.686  0.00  0.00     0.027 A 
ENDBRANCH  31  32
ENDBRANCH  30  31
ENDBRANCH  28  30
ENDBRANCH   1  28
TORSDOF 12
ENDMDL
MODEL 2
REMARK VINA RESULT:      -2.7      1.037      4.459
REMARK  12 active torsions:
REMARK  status: ('A' for Active; 'I' for Inactive)
REMARK    1  A    between atoms: C_7  and  C_1 
REMARK    2  A    between atoms: C_8  and  N_2 
REMARK    3  A    between atoms: C_6  and  C_5 
REMARK    4  A    between atoms: C_9  and  C_7 
REMARK    5  A    between atoms: C_24  and  C_8 
REMARK    6  A    between atoms: C_12  and  C_9 
REMARK    7  A    between atoms: C_11  and  C_12 
REMARK    8  A    between atoms: O_27  and  C_13 
REMARK    9  A    between atoms: N_14  and  C_24 
REMARK   10  A    between atoms: O_28  and  C_18 
REMARK   11  A    between atoms: C_33  and  O_28 
REMARK   12  A    between atoms: C_35  and  C_33 
ROOT
ATOM      1  C   UNL d   1     -47.270  14.509  22.791  0.00  0.00     0.099 A 
ATOM      2  N   UNL d   1     -46.105  13.869  22.660  0.00  0.00    -0.269 N 
ATOM      3  C   UNL d   1     -46.672  15.069  22.696  0.00  0.00     0.256 A 
ATOM      4  C   UNL d   1     -45.953  14.679  22.615  0.00  0.00     0.304 A 
ATOM      5  C   UNL d   1     -46.918  13.763  22.769  0.00  0.00     0.073 A 
ATOM      6  O   UNL d   1     -45.216  15.030  22.509  0.00  0.00    -0.263 OA
ATOM      7  O   UNL d   1     -46.778  15.886  22.684  0.00  0.00    -0.281 OA
ENDROOT
BRANCH   5   8
ATOM      8  C   UNL d   1     -47.303  13.040  22.841  0.00  0.00     0.018 A 
ATOM      9  C   UNL d   1     -47.705  12.725  22.206  0.00  0.00     0.028 A 
ATOM     10  C   UNL d   1     -48.090  12.002  22.278  0.00  0.00     0.117 A 
ATOM     11  C   UNL d   1     -48.068  11.592  23.004  0.00  0.00     0.122 A 
ATOM     12  C   UNL d   1     -47.660  11.916  23.642  0.00  0.00     0.027 A 
ATOM     13  C   UNL d   1     -47.273  12.644  23.565  0.00  0.00     0.004 A 
BRANCH  10  14
ATOM     14  O   UNL d   1     -48.495  11.684  21.640  0.00  0.00    -0.326 OA
ATOM     15  C   UNL d   1     -48.517  12.092  20.919  0.00  0.00     0.181 C 
ENDBRANCH  10  14
BRANCH  11  16
ATOM     16  O   UNL d   1     -48.453  10.870  23.076  0.00  0.00    -0.303 OA
BRANCH  16  17
ATOM     17  C   UNL d   1     -49.188  10.833  23.456  0.00  0.00     0.123 C 
BRANCH  17  18
ATOM     18  C   UNL d   1     -49.790  11.353  23.236  0.00  0.00     0.027 C 
ATOM     19  C   UNL d   1     -50.468  11.406  23.696  0.00  0.00     0.002 C 
ENDBRANCH  17  18
ENDBRANCH  16  17
ENDBRANCH  11  16
ENDBRANCH   5   8
BRANCH   2  20
ATOM     20  C   UNL d   1     -45.542  13.267  22.606  0.00  0.00     0.102 C 
BRANCH  20  21
ATOM     21  C   UNL d   1     -45.128  13.148  21.902  0.00  0.00     0.100 C 
BRANCH  21  22
ATOM     22  N   UNL d   1     -44.421  12.730  21.907  0.00  0.00    -0.298 N 
ATOM     23  C   UNL d   1     -44.364  12.044  22.346  0.00  0.00     0.107 A 
ATOM     24  C   UNL d   1     -43.653  11.620  22.352  0.00  0.00     0.142 A 
ATOM     25  O   UNL d   1     -43.007  11.893  21.917  0.00  0.00    -0.300 OA
ATOM     26  C   UNL d   1     -43.071  12.588  21.475  0.00  0.00     0.142 A 
ATOM     27  C   UNL d   1     -43.775  13.005  21.470  0.00  0.00     0.107 A 
ENDBRANCH  21  22
ENDBRANCH  20  21
ENDBRANCH   2  20
BRANCH   1  28
ATOM     28  C   UNL d   1     -48.068  14.662  22.890  0.00  0.00     0.200 C 
ATOM     29  O   UNL d   1     -48.448  14.455  23.595  0.00  0.00    -0.286 OA
BRANCH  28  30
ATOM     30  C   UNL d   1     -48.498  15.026  22.281  0.00  0.00     0.044 C 
BRANCH  30  31
ATOM     31  C   UNL d   1     -49.234  15.370  22.445  0.00  0.00     0.028 C 
BRANCH  31  32
ATOM     32  C   UNL d   1     -49.899  15.115  22.046  0.00  0.00     0.100 A 
ATOM     33  O   UNL d   1     -50.449  14.571  22.318  0.00  0.00    -0.305 OA
ATOM     34  C   UNL d   1     -51.033  14.474  21.737  0.00  0.00     0.123 A 
ATOM     35  C   UNL d   1     -50.842  14.961  21.105  0.00  0.00     0.029 A 
ATOM     36  C   UNL d   1     -50.140  15.361  21.291  0.00  0.00     0.027 A 
ENDBRANCH  31  32
ENDBRANCH  30  31
ENDBRANCH  28  30
ENDBRANCH   1  28
TORSDOF 12
ENDMDL
