MODEL 1
REMARK VINA RESULT:      48.0      0.000      0.000
REMARK  4 active torsions:
REMARK  status: ('A' for Active; 'I' for Inactive)
REMARK    1  A    between atoms: C_2  and  N_1 
REMARK       I    between atoms: C_3  and  N_1 
REMARK    2  A    between atoms: C_4  and  C_3 
REMARK    3  A    between atoms: C_6  and  C_4 
REMARK    4  A    between atoms: C_10  and  C_6 
ROOT
ATOM      1  N   UNL d   1     -51.400  25.665  33.690  0.00  0.00    -0.208 NA
ATOM      2  C   UNL d   1     -50.633  25.915  33.500  0.00  0.00     0.279 C 
ATOM      3  O   UNL d   1     -50.059  25.356  33.306  0.00  0.00    -0.265 OA
ENDROOT
BRANCH   1   4
ATOM      4  C   UNL d   1     -51.583  24.858  33.683  0.00  0.00     0.085 A 
ATOM      5  C   UNL d   1     -52.358  24.630  33.564  0.00  0.00     0.021 A 
ATOM      6  C   UNL d   1     -52.553  23.822  33.556  0.00  0.00     0.021 A 
ATOM      7  C   UNL d   1     -52.953  25.190  33.451  0.00  0.00     0.022 A 
ATOM      8  C   UNL d   1     -53.325  23.591  33.437  0.00  0.00     0.099 A 
ATOM      9  C   UNL d   1     -51.958  23.262  33.668  0.00  0.00     0.002 A 
ATOM     10  N   UNL d   1     -53.914  24.145  33.325  0.00  0.00    -0.242 NA
ATOM     11  C   UNL d   1     -53.730  24.951  33.332  0.00  0.00     0.099 A 
ATOM     12  C   UNL d   1     -51.176  23.501  33.789  0.00  0.00     0.002 A 
ATOM     13  C   UNL d   1     -50.994  24.304  33.795  0.00  0.00     0.019 A 
ENDBRANCH   1   4
BRANCH   2  14
ATOM     14  C   UNL d   1     -50.443  26.717  33.505  0.00  0.00     0.062 C 
BRANCH  14  15
ATOM     15  C   UNL d   1     -49.665  26.954  33.383  0.00  0.00     0.005 C 
BRANCH  15  16
ATOM     16  C   UNL d   1     -49.358  27.583  33.825  0.00  0.00     0.000 A 
ATOM     17  C   UNL d   1     -49.558  28.358  33.624  0.00  0.00     0.000 A 
ATOM     18  C   UNL d   1     -49.256  28.989  34.059  0.00  0.00     0.000 A 
ATOM     19  C   UNL d   1     -48.749  28.845  34.701  0.00  0.00     0.000 A 
ATOM     20  C   UNL d   1     -48.548  28.072  34.902  0.00  0.00     0.000 A 
ATOM     21  C   UNL d   1     -48.851  27.439  34.466  0.00  0.00     0.000 A 
ENDBRANCH  15  16
ENDBRANCH  14  15
ENDBRANCH   2  14
TORSDOF 4
ENDMDL
MODEL 2
REMARK VINA RESULT:      48.9      1.164      1.945
REMARK  4 active torsions:
REMARK  status: ('A' for Active; 'I' for Inactive)
REMARK    1  A    between atoms: C_2  and  N_1 
REMARK       I    between atoms: C_3  and  N_1 
REMARK    2  A    between atoms: C_4  and  C_3 
REMARK    3  A    between atoms: C_6  and  C_4 
REMARK    4  A    between atoms: C_10  and  C_6 
ROOT
ATOM      1  N   UNL d   1     -50.127  26.239  33.665  0.00  0.00    -0.208 NA
ATOM      2  C   UNL d   1     -50.085  27.058  33.553  0.00  0.00     0.279 C 
ATOM      3  O   UNL d   1     -50.761  27.473  33.325  0.00  0.00    -0.265 OA
ENDROOT
BRANCH   1   4
ATOM      4  C   UNL d   1     -50.844  25.843  33.547  0.00  0.00     0.085 A 
ATOM      5  C   UNL d   1     -50.842  25.029  33.487  0.00  0.00     0.021 A 
ATOM      6  C   UNL d   1     -51.557  24.622  33.369  0.00  0.00     0.021 A 
ATOM      7  C   UNL d   1     -50.139  24.602  33.541  0.00  0.00     0.022 A 
ATOM      8  C   UNL d   1     -51.558  23.810  33.308  0.00  0.00     0.099 A 
ATOM      9  C   UNL d   1     -52.260  25.049  33.315  0.00  0.00     0.002 A 
ATOM     10  N   UNL d   1     -50.862  23.387  33.362  0.00  0.00    -0.242 NA
ATOM     11  C   UNL d   1     -50.145  23.782  33.479  0.00  0.00     0.099 A 
ATOM     12  C   UNL d   1     -52.255  25.874  33.377  0.00  0.00     0.002 A 
ATOM     13  C   UNL d   1     -51.541  26.266  33.493  0.00  0.00     0.019 A 
ENDBRANCH   1   4
BRANCH   2  14
ATOM     14  C   UNL d   1     -49.375  27.459  33.668  0.00  0.00     0.062 C 
BRANCH  14  15
ATOM     15  C   UNL d   1     -49.382  28.243  33.919  0.00  0.00     0.005 C 
BRANCH  15  16
ATOM     16  C   UNL d   1     -48.871  28.480  34.525  0.00  0.00     0.000 A 
ATOM     17  C   UNL d   1     -48.317  29.076  34.381  0.00  0.00     0.000 A 
ATOM     18  C   UNL d   1     -47.806  29.317  34.980  0.00  0.00     0.000 A 
ATOM     19  C   UNL d   1     -47.847  28.962  35.729  0.00  0.00     0.000 A 
ATOM     20  C   UNL d   1     -48.398  28.368  35.873  0.00  0.00     0.000 A 
ATOM     21  C   UNL d   1     -48.912  28.125  35.274  0.00  0.00     0.000 A 
ENDBRANCH  15  16
ENDBRANCH  14  15
ENDBRANCH   2  14
TORSDOF 4
ENDMDL
