MODEL 1
REMARK VINA RESULT:      71.6      0.000      0.000
REMARK  5 active torsions:
REMARK  status: ('A' for Active; 'I' for Inactive)
REMARK    1  A    between atoms: N_5  and  S_1 
REMARK    2  A    between atoms: C_7  and  S_1 
REMARK       I    between atoms: C_4  and  N_2 
REMARK    3  A    between atoms: C_3  and  N_11 
REMARK    4  A    between atoms: C_6  and  C_4 
REMARK    5  A    between atoms: N_11  and  C_19 
ROOT
ATOM      1  C   UNL d   1     -49.259  28.235  34.167  0.00  0.00     0.104 A 
ATOM      2  C   UNL d   1     -48.717  28.219  34.805  0.00  0.00     0.014 A 
ATOM      3  C   UNL d   1     -49.387  28.960  33.749  0.00  0.00     0.014 A 
ATOM      4  C   UNL d   1     -48.444  29.628  34.599  0.00  0.00     0.084 A 
ATOM      5  C   UNL d   1     -48.306  28.920  35.023  0.00  0.00     0.020 A 
ATOM      6  C   UNL d   1     -48.985  29.647  33.962  0.00  0.00     0.020 A 
ENDROOT
BRANCH   4   7
ATOM      7  N   UNL d   1     -48.036  30.324  34.815  0.00  0.00    -0.217 NA
BRANCH   7   8
ATOM      8  C   UNL d   1     -47.575  30.319  35.441  0.00  0.00     0.224 C 
ATOM      9  N   UNL d   1     -46.954  31.445  35.783  0.00  0.00    -0.178 NA
ATOM     10  C   UNL d   1     -47.048  32.100  35.366  0.00  0.00     0.287 C 
ATOM     11  O   UNL d   1     -46.678  32.768  35.571  0.00  0.00    -0.265 OA
ATOM     12  S   UNL d   1     -47.472  29.662  35.872  0.00  0.00    -0.037 SA
BRANCH  10  13
ATOM     13  C   UNL d   1     -47.523  32.089  34.728  0.00  0.00     0.087 A 
ATOM     14  S   UNL d   1     -47.313  31.936  33.991  0.00  0.00    -0.082 SA
ATOM     15  C   UNL d   1     -47.964  31.987  33.540  0.00  0.00     0.036 A 
ATOM     16  C   UNL d   1     -48.552  32.167  33.993  0.00  0.00     0.008 A 
ATOM     17  C   UNL d   1     -48.295  32.233  34.730  0.00  0.00     0.012 A 
ENDBRANCH  10  13
ENDBRANCH   7   8
ENDBRANCH   4   7
BRANCH   1  18
ATOM     18  S   UNL d   1     -49.671  27.533  33.949  0.00  0.00     0.271 S 
ATOM     19  O   UNL d   1     -50.039  27.939  33.338  0.00  0.00    -0.200 OA
ATOM     20  O   UNL d   1     -49.292  27.117  34.576  0.00  0.00    -0.200 OA
BRANCH  18  21
ATOM     21  N   UNL d   1     -50.071  26.849  33.737  0.00  0.00    -0.229 N 
ATOM     22  C   UNL d   1     -50.930  26.861  33.667  0.00  0.00     0.092 A 
ATOM     23  C   UNL d   1     -51.333  26.173  33.454  0.00  0.00     0.020 A 
ATOM     24  C   UNL d   1     -50.886  25.458  33.306  0.00  0.00     0.003 A 
ATOM     25  C   UNL d   1     -50.068  25.457  33.375  0.00  0.00     0.020 A 
ATOM     26  C   UNL d   1     -49.660  26.154  33.591  0.00  0.00     0.092 A 
ENDBRANCH  18  21
ENDBRANCH   1  18
TORSDOF 5
ENDMDL
