MODEL 1
REMARK VINA RESULT:      15.1      0.000      0.000
REMARK  3 active torsions:
REMARK  status: ('A' for Active; 'I' for Inactive)
REMARK    1  A    between atoms: C_2  and  C_1 
REMARK    2  A    between atoms: C_5  and  C_2 
REMARK    3  A    between atoms: C_4  and  C_3 
ROOT
ATOM      1  C   UNL d   1     -51.588  24.745  33.345  0.00  0.00     0.045 A 
ATOM      2  C   UNL d   1     -52.095  24.095  33.377  0.00  0.00     0.068 A 
ATOM      3  C   UNL d   1     -50.772  24.638  33.317  0.00  0.00     0.003 A 
ATOM      4  C   UNL d   1     -51.780  23.330  33.382  0.00  0.00     0.006 A 
ATOM      5  C   UNL d   1     -50.457  23.880  33.321  0.00  0.00     0.000 A 
ATOM      6  C   UNL d   1     -50.966  23.218  33.354  0.00  0.00     0.000 A 
ENDROOT
BRANCH   1   7
ATOM      7  C   UNL d   1     -51.902  25.515  33.341  0.00  0.00     0.196 C 
ATOM      8  O   UNL d   1     -52.717  25.622  33.311  0.00  0.00    -0.287 OA
BRANCH   7   9
ATOM      9  C   UNL d   1     -51.398  26.170  33.366  0.00  0.00     0.039 A 
ATOM     10  C   UNL d   1     -50.579  26.063  33.452  0.00  0.00     0.005 A 
ATOM     11  C   UNL d   1     -50.078  26.722  33.477  0.00  0.00     0.030 A 
ATOM     12  C   UNL d   1     -50.390  27.479  33.417  0.00  0.00     0.140 A 
ATOM     13  C   UNL d   1     -51.201  27.585  33.332  0.00  0.00     0.030 A 
ATOM     14  F   UNL d   1     -49.878  28.133  33.444  0.00  0.00    -0.204 F 
ATOM     15  C   UNL d   1     -51.709  26.935  33.306  0.00  0.00     0.005 A 
ENDBRANCH   7   9
ENDBRANCH   1   7
BRANCH   2  16
ATOM     16  C   UNL d   1     -52.908  24.215  33.405  0.00  0.00     0.211 C 
ATOM     17  O   UNL d   1     -53.424  23.568  33.375  0.00  0.00    -0.644 OA
ATOM     18  O   UNL d   1     -53.198  24.981  33.462  0.00  0.00    -0.644 OA
ENDBRANCH   2  16
TORSDOF 3
ENDMDL
