MODEL 1
REMARK VINA RESULT:      -5.3      0.000      0.000
REMARK  2 active torsions:
REMARK  status: ('A' for Active; 'I' for Inactive)
REMARK    1  A    between atoms: C_9  and  N_1 
REMARK    2  A    between atoms: C_11  and  C_9 
ROOT
ATOM      1  N   UNL d   1     -41.484-122.502 -53.836  0.00  0.00    -0.287 N 
ATOM      2  N   UNL d   1     -41.193-123.817 -53.703  0.00  0.00    -0.224 NA
ATOM      3  C   UNL d   1     -41.417-122.673 -53.015  0.00  0.00     0.083 A 
ATOM      4  C   UNL d   1     -41.345-123.210 -54.258  0.00  0.00     0.183 A 
ATOM      5  C   UNL d   1     -41.239-123.481 -52.935  0.00  0.00     0.099 A 
ATOM      6  C   UNL d   1     -41.496-122.199 -52.343  0.00  0.00     0.019 A 
ATOM      7  C   UNL d   1     -41.141-123.809 -52.185  0.00  0.00     0.021 A 
ATOM      8  C   UNL d   1     -41.398-122.529 -51.594  0.00  0.00     0.002 A 
ATOM      9  C   UNL d   1     -41.220-123.337 -51.515  0.00  0.00     0.002 A 
ATOM     10  C   UNL d   1     -41.477-122.055 -50.919  0.00  0.00     0.000 C 
ATOM     11  C   UNL d   1     -41.123-123.662 -50.764  0.00  0.00     0.000 C 
ENDROOT
BRANCH   1  12
ATOM     12  C   UNL d   1     -41.642-121.851 -54.314  0.00  0.00     0.082 C 
BRANCH  12  13
ATOM     13  C   UNL d   1     -42.126-121.935 -54.977  0.00  0.00     0.018 C 
ATOM     14  C   UNL d   1     -41.789-122.008 -55.727  0.00  0.00     0.002 C 
ATOM     15  C   UNL d   1     -42.946-121.945 -54.890  0.00  0.00     0.002 C 
ENDBRANCH  12  13
ENDBRANCH   1  12
TORSDOF 2
ENDMDL
MODEL 2
REMARK VINA RESULT:      -4.6      0.828      3.133
REMARK  2 active torsions:
REMARK  status: ('A' for Active; 'I' for Inactive)
REMARK    1  A    between atoms: C_9  and  N_1 
REMARK    2  A    between atoms: C_11  and  C_9 
ROOT
ATOM      1  N   UNL d   1     -41.420-122.590 -52.083  0.00  0.00    -0.287 N 
ATOM      2  N   UNL d   1     -41.123-123.817 -52.572  0.00  0.00    -0.224 NA
ATOM      3  C   UNL d   1     -41.561-122.582 -52.913  0.00  0.00     0.083 A 
ATOM      4  C   UNL d   1     -41.150-123.353 -51.876  0.00  0.00     0.183 A 
ATOM      5  C   UNL d   1     -41.378-123.337 -53.211  0.00  0.00     0.099 A 
ATOM      6  C   UNL d   1     -41.829-121.991 -53.423  0.00  0.00     0.019 A 
ATOM      7  C   UNL d   1     -41.464-123.493 -54.016  0.00  0.00     0.021 A 
ATOM      8  C   UNL d   1     -41.915-122.149 -54.227  0.00  0.00     0.002 A 
ATOM      9  C   UNL d   1     -41.731-122.904 -54.525  0.00  0.00     0.002 A 
ATOM     10  C   UNL d   1     -42.183-121.557 -54.740  0.00  0.00     0.000 C 
ATOM     11  C   UNL d   1     -41.818-123.058 -55.329  0.00  0.00     0.000 C 
ENDROOT
BRANCH   1  12
ATOM     12  C   UNL d   1     -41.475-122.069 -51.449  0.00  0.00     0.082 C 
BRANCH  12  13
ATOM     13  C   UNL d   1     -41.694-122.347 -50.705  0.00  0.00     0.018 C 
ATOM     14  C   UNL d   1     -41.124-122.667 -50.200  0.00  0.00     0.002 C 
ATOM     15  C   UNL d   1     -42.483-122.308 -50.464  0.00  0.00     0.002 C 
ENDBRANCH  12  13
ENDBRANCH   1  12
TORSDOF 2
ENDMDL
MODEL 3
REMARK VINA RESULT:      -4.4      2.308      3.558
REMARK  2 active torsions:
REMARK  status: ('A' for Active; 'I' for Inactive)
REMARK    1  A    between atoms: C_9  and  N_1 
REMARK    2  A    between atoms: C_11  and  C_9 
ROOT
ATOM      1  N   UNL d   1     -41.751-122.527 -50.495  0.00  0.00    -0.287 N 
ATOM      2  N   UNL d   1     -43.069-122.426 -50.206  0.00  0.00    -0.224 NA
ATOM      3  C   UNL d   1     -41.875-122.847 -49.727  0.00  0.00     0.083 A 
ATOM      4  C   UNL d   1     -42.489-122.268 -50.788  0.00  0.00     0.183 A 
ATOM      5  C   UNL d   1     -42.686-122.783 -49.551  0.00  0.00     0.099 A 
ATOM      6  C   UNL d   1     -41.358-123.181 -49.176  0.00  0.00     0.019 A 
ATOM      7  C   UNL d   1     -42.972-123.055 -48.827  0.00  0.00     0.021 A 
ATOM      8  C   UNL d   1     -41.647-123.452 -48.453  0.00  0.00     0.002 A 
ATOM      9  C   UNL d   1     -42.457-123.388 -48.278  0.00  0.00     0.002 A 
ATOM     10  C   UNL d   1     -41.129-123.787 -47.900  0.00  0.00     0.000 C 
ATOM     11  C   UNL d   1     -42.741-123.660 -47.554  0.00  0.00     0.000 C 
ENDROOT
BRANCH   1  12
ATOM     12  C   UNL d   1     -41.123-122.407 -51.013  0.00  0.00     0.082 C 
BRANCH  12  13
ATOM     13  C   UNL d   1     -41.211-122.579 -51.814  0.00  0.00     0.018 C 
ATOM     14  C   UNL d   1     -41.387-121.975 -52.349  0.00  0.00     0.002 C 
ATOM     15  C   UNL d   1     -41.123-123.355 -52.082  0.00  0.00     0.002 C 
ENDBRANCH  12  13
ENDBRANCH   1  12
TORSDOF 2
ENDMDL
MODEL 4
REMARK VINA RESULT:      -3.8      0.825      1.616
REMARK  2 active torsions:
REMARK  status: ('A' for Active; 'I' for Inactive)
REMARK    1  A    between atoms: C_9  and  N_1 
REMARK    2  A    between atoms: C_11  and  C_9 
ROOT
ATOM      1  N   UNL d   1     -41.264-122.668 -53.220  0.00  0.00    -0.287 N 
ATOM      2  N   UNL d   1     -41.519-121.413 -52.779  0.00  0.00    -0.224 NA
ATOM      3  C   UNL d   1     -41.316-122.692 -52.380  0.00  0.00     0.083 A 
ATOM      4  C   UNL d   1     -41.389-121.878 -53.463  0.00  0.00     0.183 A 
ATOM      5  C   UNL d   1     -41.473-121.920 -52.111  0.00  0.00     0.099 A 
ATOM      6  C   UNL d   1     -41.241-123.311 -51.839  0.00  0.00     0.019 A 
ATOM      7  C   UNL d   1     -41.553-121.775 -51.304  0.00  0.00     0.021 A 
ATOM      8  C   UNL d   1     -41.322-123.163 -51.032  0.00  0.00     0.002 A 
ATOM      9  C   UNL d   1     -41.479-122.391 -50.763  0.00  0.00     0.002 A 
ATOM     10  C   UNL d   1     -41.247-123.783 -50.488  0.00  0.00     0.000 C 
ATOM     11  C   UNL d   1     -41.559-122.249 -49.957  0.00  0.00     0.000 C 
ENDROOT
BRANCH   1  12
ATOM     12  C   UNL d   1     -41.128-123.192 -53.839  0.00  0.00     0.082 C 
BRANCH  12  13
ATOM     13  C   UNL d   1     -41.575-123.139 -54.529  0.00  0.00     0.018 C 
ATOM     14  C   UNL d   1     -42.180-123.683 -54.672  0.00  0.00     0.002 C 
ATOM     15  C   UNL d   1     -41.420-122.543 -55.078  0.00  0.00     0.002 C 
ENDBRANCH  12  13
ENDBRANCH   1  12
TORSDOF 2
ENDMDL
MODEL 5
REMARK VINA RESULT:      -3.0      2.100      4.179
REMARK  2 active torsions:
REMARK  status: ('A' for Active; 'I' for Inactive)
REMARK    1  A    between atoms: C_9  and  N_1 
REMARK    2  A    between atoms: C_11  and  C_9 
ROOT
ATOM      1  N   UNL d   1     -42.248-122.870 -49.755  0.00  0.00    -0.287 N 
ATOM      2  N   UNL d   1     -42.275-123.815 -50.724  0.00  0.00    -0.224 NA
ATOM      3  C   UNL d   1     -41.958-122.524 -50.466  0.00  0.00     0.083 A 
ATOM      4  C   UNL d   1     -42.443-123.666 -49.918  0.00  0.00     0.183 A 
ATOM      5  C   UNL d   1     -41.976-123.107 -51.059  0.00  0.00     0.099 A 
ATOM      6  C   UNL d   1     -41.685-121.765 -50.641  0.00  0.00     0.019 A 
ATOM      7  C   UNL d   1     -41.720-122.925 -51.822  0.00  0.00     0.021 A 
ATOM      8  C   UNL d   1     -41.431-121.585 -51.403  0.00  0.00     0.002 A 
ATOM      9  C   UNL d   1     -41.449-122.168 -51.997  0.00  0.00     0.002 A 
ATOM     10  C   UNL d   1     -41.157-120.823 -51.580  0.00  0.00     0.000 C 
ATOM     11  C   UNL d   1     -41.193-121.983 -52.758  0.00  0.00     0.000 C 
ENDROOT
BRANCH   1  12
ATOM     12  C   UNL d   1     -42.385-122.642 -48.977  0.00  0.00     0.082 C 
BRANCH  12  13
ATOM     13  C   UNL d   1     -42.407-123.210 -48.379  0.00  0.00     0.018 C 
ATOM     14  C   UNL d   1     -43.108-123.616 -48.221  0.00  0.00     0.002 C 
ATOM     15  C   UNL d   1     -41.728-123.372 -47.939  0.00  0.00     0.002 C 
ENDBRANCH  12  13
ENDBRANCH   1  12
TORSDOF 2
ENDMDL
