MODEL 1
REMARK VINA RESULT:     114.1      0.000      0.000
REMARK  5 active torsions:
REMARK  status: ('A' for Active; 'I' for Inactive)
REMARK    1  A    between atoms: N_11  and  C_4 
REMARK    2  A    between atoms: C_18  and  N_15 
REMARK    3  A    between atoms: C_21  and  C_18 
REMARK    4  A    between atoms: O_28  and  C_23 
REMARK    5  A    between atoms: C_31  and  O_28 
ROOT
ATOM      1  N   UNL d   1      61.219  46.095  50.886  0.00  0.00    -0.195 N 
ATOM      2  C   UNL d   1      61.548  45.430  50.565  0.00  0.00     0.168 A 
ATOM      3  C   UNL d   1      61.441  44.717  50.906  0.00  0.00     0.073 A 
ATOM      4  C   UNL d   1      61.336  46.798  50.533  0.00  0.00     0.153 A 
ATOM      5  N   UNL d   1      60.673  45.338  51.892  0.00  0.00    -0.143 NA
ATOM      6  C   UNL d   1      61.002  44.673  51.571  0.00  0.00     0.185 A 
ATOM      7  N   UNL d   1      61.986  45.486  49.898  0.00  0.00    -0.227 NA
ATOM      8  C   UNL d   1      61.767  44.059  50.588  0.00  0.00     0.007 A 
ATOM      9  N   UNL d   1      60.885  43.959  51.927  0.00  0.00    -0.225 NA
ATOM     10  C   UNL d   1      61.770  46.858  49.872  0.00  0.00     0.057 A 
ATOM     11  C   UNL d   1      61.659  43.347  50.930  0.00  0.00     0.019 A 
ATOM     12  C   UNL d   1      62.099  46.194  49.551  0.00  0.00     0.086 A 
ATOM     13  C   UNL d   1      61.215  43.294  51.606  0.00  0.00     0.083 A 
ATOM     14  C   UNL d   1      62.207  44.117  49.918  0.00  0.00     0.000 C 
ATOM     15  C   UNL d   1      62.554  46.255  48.856  0.00  0.00     0.021 C 
ATOM     16  C   UNL d   1      61.104  42.588  51.950  0.00  0.00     0.021 C 
ENDROOT
BRANCH   4  17
ATOM     17  N   UNL d   1      60.993  47.479  50.870  0.00  0.00    -0.286 N 
ATOM     18  C   UNL d   1      60.738  47.773  50.141  0.00  0.00     0.101 A 
ATOM     19  C   UNL d   1      60.331  48.489  50.112  0.00  0.00     0.100 A 
ATOM     20  N   UNL d   1      60.178  48.913  50.814  0.00  0.00    -0.300 N 
ATOM     21  C   UNL d   1      60.441  48.606  51.546  0.00  0.00     0.100 A 
ATOM     22  C   UNL d   1      60.851  47.884  51.571  0.00  0.00     0.101 A 
BRANCH  20  23
ATOM     23  C   UNL d   1      59.766  49.638  50.791  0.00  0.00     0.080 C 
BRANCH  23  24
ATOM     24  C   UNL d   1      58.967  49.650  50.568  0.00  0.00     0.018 A 
ATOM     25  C   UNL d   1      58.368  49.695  51.143  0.00  0.00     0.004 A 
ATOM     26  C   UNL d   1      57.561  49.707  50.917  0.00  0.00     0.025 A 
ATOM     27  C   UNL d   1      57.356  49.674  50.108  0.00  0.00     0.100 A 
ATOM     28  C   UNL d   1      57.963  49.628  49.522  0.00  0.00     0.025 A 
ATOM     29  C   UNL d   1      58.760  49.617  49.762  0.00  0.00     0.004 A 
BRANCH  27  30
ATOM     30  O   UNL d   1      56.561  49.685  49.877  0.00  0.00    -0.305 OA
BRANCH  30  31
ATOM     31  C   UNL d   1      56.036  49.098  50.157  0.00  0.00     0.123 C 
ATOM     32  C   UNL d   1      56.276  48.296  50.170  0.00  0.00     0.029 C 
ENDBRANCH  30  31
ENDBRANCH  27  30
ENDBRANCH  23  24
ENDBRANCH  20  23
ENDBRANCH   4  17
TORSDOF 5
ENDMDL
MODEL 2
REMARK VINA RESULT:     116.4      1.960      5.630
REMARK  5 active torsions:
REMARK  status: ('A' for Active; 'I' for Inactive)
REMARK    1  A    between atoms: N_11  and  C_4 
REMARK    2  A    between atoms: C_18  and  N_15 
REMARK    3  A    between atoms: C_21  and  C_18 
REMARK    4  A    between atoms: O_28  and  C_23 
REMARK    5  A    between atoms: C_31  and  O_28 
ROOT
ATOM      1  N   UNL d   1      59.830  48.895  50.671  0.00  0.00    -0.195 N 
ATOM      2  C   UNL d   1      59.270  49.163  51.189  0.00  0.00     0.168 A 
ATOM      3  C   UNL d   1      58.523  49.301  50.945  0.00  0.00     0.073 A 
ATOM      4  C   UNL d   1      60.570  48.763  50.932  0.00  0.00     0.153 A 
ATOM      5  N   UNL d   1      58.900  48.900  49.662  0.00  0.00    -0.143 NA
ATOM      6  C   UNL d   1      58.340  49.168  50.180  0.00  0.00     0.185 A 
ATOM      7  N   UNL d   1      59.465  49.292  51.954  0.00  0.00    -0.227 NA
ATOM      8  C   UNL d   1      57.969  49.566  51.457  0.00  0.00     0.007 A 
ATOM      9  N   UNL d   1      57.589  49.303  49.918  0.00  0.00    -0.225 NA
ATOM     10  C   UNL d   1      60.768  48.889  51.689  0.00  0.00     0.057 A 
ATOM     11  C   UNL d   1      57.223  49.703  51.213  0.00  0.00     0.019 A 
ATOM     12  C   UNL d   1      60.208  49.157  52.206  0.00  0.00     0.086 A 
ATOM     13  C   UNL d   1      57.028  49.572  50.436  0.00  0.00     0.083 A 
ATOM     14  C   UNL d   1      58.166  49.695  52.225  0.00  0.00     0.000 C 
ATOM     15  C   UNL d   1      60.414  49.291  53.002  0.00  0.00     0.021 C 
ATOM     16  C   UNL d   1      56.288  49.706  50.187  0.00  0.00     0.021 C 
ENDROOT
BRANCH   4  17
ATOM     17  N   UNL d   1      61.143  48.486  50.392  0.00  0.00    -0.286 N 
ATOM     18  C   UNL d   1      60.939  47.693  50.505  0.00  0.00     0.101 A 
ATOM     19  C   UNL d   1      61.344  47.107  50.090  0.00  0.00     0.100 A 
ATOM     20  N   UNL d   1      61.953  47.314  49.559  0.00  0.00    -0.300 N 
ATOM     21  C   UNL d   1      62.150  48.119  49.452  0.00  0.00     0.100 A 
ATOM     22  C   UNL d   1      61.740  48.707  49.873  0.00  0.00     0.101 A 
BRANCH  20  23
ATOM     23  C   UNL d   1      62.366  46.725  49.136  0.00  0.00     0.080 C 
BRANCH  23  24
ATOM     24  C   UNL d   1      62.313  45.933  49.376  0.00  0.00     0.018 A 
ATOM     25  C   UNL d   1      62.099  45.741  50.156  0.00  0.00     0.004 A 
ATOM     26  C   UNL d   1      62.045  44.940  50.398  0.00  0.00     0.025 A 
ATOM     27  C   UNL d   1      62.208  44.330  49.852  0.00  0.00     0.100 A 
ATOM     28  C   UNL d   1      62.425  44.522  49.059  0.00  0.00     0.025 A 
ATOM     29  C   UNL d   1      62.474  45.322  48.833  0.00  0.00     0.004 A 
BRANCH  27  30
ATOM     30  O   UNL d   1      62.157  43.537  50.083  0.00  0.00    -0.305 OA
BRANCH  30  31
ATOM     31  C   UNL d   1      62.008  43.343  50.883  0.00  0.00     0.123 C 
ATOM     32  C   UNL d   1      62.127  42.559  51.151  0.00  0.00     0.029 C 
ENDBRANCH  30  31
ENDBRANCH  27  30
ENDBRANCH  23  24
ENDBRANCH  20  23
ENDBRANCH   4  17
TORSDOF 5
ENDMDL
