MODEL 1
REMARK VINA RESULT:      14.5      0.000      0.000
REMARK  4 active torsions:
REMARK  status: ('A' for Active; 'I' for Inactive)
REMARK    1  A    between atoms: N_3  and  S_1 
REMARK    2  A    between atoms: N_5  and  S_1 
REMARK    3  A    between atoms: S_2  and  N_4 
REMARK    4  A    between atoms: C_14  and  S_2 
ROOT
ATOM      1  N   UNL d   1      45.724 -15.459  44.336  0.00  0.00    -0.213 N 
ATOM      2  N   UNL d   1      46.030 -17.052  44.111  0.00  0.00    -0.226 N 
ATOM      3  C   UNL d   1      45.702 -16.794  44.842  0.00  0.00     0.111 A 
ATOM      4  C   UNL d   1      46.194 -16.513  43.521  0.00  0.00     0.111 A 
ATOM      5  C   UNL d   1      46.039 -15.711  43.634  0.00  0.00     0.113 A 
ATOM      6  C   UNL d   1      45.548 -15.992  44.955  0.00  0.00     0.113 A 
ENDROOT
BRANCH   2   7
ATOM      7  S   UNL d   1      46.184 -17.854  43.998  0.00  0.00     0.271 S 
ATOM      8  O   UNL d   1      46.269 -18.355  44.655  0.00  0.00    -0.200 OA
ATOM      9  O   UNL d   1      46.254 -18.158  43.236  0.00  0.00    -0.200 OA
BRANCH   7  10
ATOM     10  C   UNL d   1      46.339 -18.657  43.885  0.00  0.00     0.104 A 
ATOM     11  C   UNL d   1      46.391 -18.958  43.118  0.00  0.00     0.013 A 
ATOM     12  C   UNL d   1      46.545 -19.760  43.005  0.00  0.00     0.001 A 
ATOM     13  C   UNL d   1      46.647 -20.258  43.658  0.00  0.00     0.000 A 
ATOM     14  C   UNL d   1      46.593 -19.944  44.430  0.00  0.00     0.001 A 
ATOM     15  C   UNL d   1      46.440 -19.148  44.534  0.00  0.00     0.013 A 
ENDBRANCH   7  10
ENDBRANCH   2   7
BRANCH   1  16
ATOM     16  S   UNL d   1      45.567 -14.644  44.451  0.00  0.00     0.337 S 
ATOM     17  O   UNL d   1      46.044 -14.078  44.093  0.00  0.00    -0.181 OA
ATOM     18  O   UNL d   1      44.928 -14.411  44.928  0.00  0.00    -0.181 OA
BRANCH  16  19
ATOM     19  N   UNL d   1      45.582 -13.817  44.438  0.00  0.00    -0.213 N 
ATOM     20  C   UNL d   1      46.152 -13.403  44.878  0.00  0.00     0.113 C 
ATOM     21  C   UNL d   1      45.033 -13.406  43.988  0.00  0.00     0.113 C 
ENDBRANCH  16  19
ENDBRANCH   1  16
TORSDOF 4
ENDMDL
MODEL 2
REMARK VINA RESULT:      14.7      1.134      4.592
REMARK  4 active torsions:
REMARK  status: ('A' for Active; 'I' for Inactive)
REMARK    1  A    between atoms: N_3  and  S_1 
REMARK    2  A    between atoms: N_5  and  S_1 
REMARK    3  A    between atoms: S_2  and  N_4 
REMARK    4  A    between atoms: C_14  and  S_2 
ROOT
ATOM      1  N   UNL d   1      46.175 -18.142  43.900  0.00  0.00    -0.213 N 
ATOM      2  N   UNL d   1      45.885 -16.568  44.246  0.00  0.00    -0.226 N 
ATOM      3  C   UNL d   1      46.089 -17.096  44.868  0.00  0.00     0.111 A 
ATOM      4  C   UNL d   1      45.832 -16.838  43.478  0.00  0.00     0.111 A 
ATOM      5  C   UNL d   1      45.978 -17.631  43.304  0.00  0.00     0.113 A 
ATOM      6  C   UNL d   1      46.235 -17.889  44.694  0.00  0.00     0.113 A 
ENDROOT
BRANCH   2   7
ATOM      7  S   UNL d   1      45.739 -15.775  44.420  0.00  0.00     0.271 S 
ATOM      8  O   UNL d   1      46.228 -15.185  44.100  0.00  0.00    -0.200 OA
ATOM      9  O   UNL d   1      45.110 -15.569  44.910  0.00  0.00    -0.200 OA
BRANCH   7  10
ATOM     10  C   UNL d   1      45.593 -14.982  44.594  0.00  0.00     0.104 A 
ATOM     11  C   UNL d   1      44.823 -14.736  44.761  0.00  0.00     0.013 A 
ATOM     12  C   UNL d   1      44.677 -13.943  44.935  0.00  0.00     0.001 A 
ATOM     13  C   UNL d   1      45.301 -13.400  44.942  0.00  0.00     0.000 A 
ATOM     14  C   UNL d   1      46.077 -13.657  44.772  0.00  0.00     0.001 A 
ATOM     15  C   UNL d   1      46.213 -14.445  44.601  0.00  0.00     0.013 A 
ENDBRANCH   7  10
ENDBRANCH   2   7
BRANCH   1  16
ATOM     16  S   UNL d   1      46.323 -18.947  43.723  0.00  0.00     0.337 S 
ATOM     17  O   UNL d   1      46.266 -19.516  44.314  0.00  0.00    -0.181 OA
ATOM     18  O   UNL d   1      46.527 -19.168  42.949  0.00  0.00    -0.181 OA
BRANCH  16  19
ATOM     19  N   UNL d   1      46.426 -19.768  43.756  0.00  0.00    -0.213 N 
ATOM     20  C   UNL d   1      46.646 -20.132  44.469  0.00  0.00     0.113 C 
ATOM     21  C   UNL d   1      46.311 -20.221  43.082  0.00  0.00     0.113 C 
ENDBRANCH  16  19
ENDBRANCH   1  16
TORSDOF 4
ENDMDL
