MODEL 1
REMARK VINA RESULT:      -4.4      0.000      0.000
REMARK  4 active torsions:
REMARK  status: ('A' for Active; 'I' for Inactive)
REMARK    1  A    between atoms: C_6  and  C_1 
REMARK    2  A    between atoms: C_7  and  C_4 
REMARK    3  A    between atoms: O_10  and  C_6 
REMARK    4  A    between atoms: C_13  and  O_10 
ROOT
ATOM      1  C   UNL d   1     -41.589-122.862 -51.271  0.00  0.00     0.112 A 
ATOM      2  S   UNL d   1     -41.701-123.101 -52.066  0.00  0.00    -0.080 SA
ATOM      3  C   UNL d   1     -41.311-122.086 -51.283  0.00  0.00     0.115 A 
ATOM      4  C   UNL d   1     -41.488-122.459 -52.548  0.00  0.00     0.031 A 
ATOM      5  C   UNL d   1     -41.252-121.847 -52.057  0.00  0.00     0.028 A 
ATOM      6  N   UNL d   1     -41.123-121.622 -50.608  0.00  0.00    -0.147 N 
ENDROOT
BRANCH   4   7
ATOM      7  C   UNL d   1     -41.545-122.542 -53.369  0.00  0.00     0.006 A 
ATOM      8  C   UNL d   1     -42.038-122.022 -53.790  0.00  0.00     0.001 A 
ATOM      9  C   UNL d   1     -42.094-122.106 -54.608  0.00  0.00     0.000 A 
ATOM     10  C   UNL d   1     -41.672-122.691 -55.002  0.00  0.00     0.000 A 
ATOM     11  C   UNL d   1     -41.187-123.200 -54.582  0.00  0.00     0.000 A 
ATOM     12  C   UNL d   1     -41.123-123.127 -53.762  0.00  0.00     0.001 A 
ENDBRANCH   4   7
BRANCH   1  13
ATOM     13  C   UNL d   1     -41.731-123.325 -50.587  0.00  0.00     0.308 C 
ATOM     14  O   UNL d   1     -41.124-123.772 -50.222  0.00  0.00    -0.258 OA
BRANCH  13  15
ATOM     15  O   UNL d   1     -42.500-123.337 -50.264  0.00  0.00    -0.271 OA
BRANCH  15  16
ATOM     16  C   UNL d   1     -42.669-123.815 -49.596  0.00  0.00     0.126 C 
ATOM     17  C   UNL d   1     -43.421-123.778 -49.261  0.00  0.00     0.029 C 
ENDBRANCH  15  16
ENDBRANCH  13  15
ENDBRANCH   1  13
TORSDOF 4
ENDMDL
MODEL 2
REMARK VINA RESULT:      -3.7      1.104      1.442
REMARK  4 active torsions:
REMARK  status: ('A' for Active; 'I' for Inactive)
REMARK    1  A    between atoms: C_6  and  C_1 
REMARK    2  A    between atoms: C_7  and  C_4 
REMARK    3  A    between atoms: O_10  and  C_6 
REMARK    4  A    between atoms: C_13  and  O_10 
ROOT
ATOM      1  C   UNL d   1     -41.653-122.490 -51.888  0.00  0.00     0.112 A 
ATOM      2  S   UNL d   1     -41.805-122.110 -52.620  0.00  0.00    -0.080 SA
ATOM      3  C   UNL d   1     -41.355-123.240 -52.057  0.00  0.00     0.115 A 
ATOM      4  C   UNL d   1     -41.594-122.642 -53.222  0.00  0.00     0.031 A 
ATOM      5  C   UNL d   1     -41.321-123.327 -52.864  0.00  0.00     0.028 A 
ATOM      6  N   UNL d   1     -41.126-123.815 -51.489  0.00  0.00    -0.147 N 
ENDROOT
BRANCH   4   7
ATOM      7  C   UNL d   1     -41.687-122.408 -54.010  0.00  0.00     0.006 A 
ATOM      8  C   UNL d   1     -41.141-122.680 -54.575  0.00  0.00     0.001 A 
ATOM      9  C   UNL d   1     -41.235-122.447 -55.359  0.00  0.00     0.000 A 
ATOM     10  C   UNL d   1     -41.856-121.955 -55.581  0.00  0.00     0.000 A 
ATOM     11  C   UNL d   1     -42.391-121.691 -55.021  0.00  0.00     0.000 A 
ATOM     12  C   UNL d   1     -42.307-121.917 -54.231  0.00  0.00     0.001 A 
ENDBRANCH   4   7
BRANCH   1  13
ATOM     13  C   UNL d   1     -41.781-122.169 -51.124  0.00  0.00     0.308 C 
ATOM     14  O   UNL d   1     -41.278-121.581 -50.804  0.00  0.00    -0.258 OA
BRANCH  13  15
ATOM     15  O   UNL d   1     -42.426-122.447 -50.676  0.00  0.00    -0.271 OA
BRANCH  15  16
ATOM     16  C   UNL d   1     -42.374-122.480 -49.840  0.00  0.00     0.126 C 
ATOM     17  C   UNL d   1     -43.041-122.702 -49.408  0.00  0.00     0.029 C 
ENDBRANCH  15  16
ENDBRANCH  13  15
ENDBRANCH   1  13
TORSDOF 4
ENDMDL
MODEL 3
REMARK VINA RESULT:      -3.3      1.326      3.888
REMARK  4 active torsions:
REMARK  status: ('A' for Active; 'I' for Inactive)
REMARK    1  A    between atoms: C_6  and  C_1 
REMARK    2  A    between atoms: C_7  and  C_4 
REMARK    3  A    between atoms: O_10  and  C_6 
REMARK    4  A    between atoms: C_13  and  O_10 
ROOT
ATOM      1  C   UNL d   1     -41.579-122.597 -51.981  0.00  0.00     0.112 A 
ATOM      2  S   UNL d   1     -41.821-123.099 -51.354  0.00  0.00    -0.080 SA
ATOM      3  C   UNL d   1     -41.392-121.864 -51.652  0.00  0.00     0.115 A 
ATOM      4  C   UNL d   1     -41.776-122.657 -50.653  0.00  0.00     0.031 A 
ATOM      5  C   UNL d   1     -41.512-121.906 -50.850  0.00  0.00     0.028 A 
ATOM      6  N   UNL d   1     -41.123-121.191 -52.076  0.00  0.00    -0.147 N 
ENDROOT
BRANCH   4   7
ATOM      7  C   UNL d   1     -41.985-123.019 -49.940  0.00  0.00     0.006 A 
ATOM      8  C   UNL d   1     -41.394-123.396 -49.493  0.00  0.00     0.001 A 
ATOM      9  C   UNL d   1     -41.604-123.756 -48.783  0.00  0.00     0.000 A 
ATOM     10  C   UNL d   1     -42.383-123.745 -48.519  0.00  0.00     0.000 A 
ATOM     11  C   UNL d   1     -42.962-123.373 -48.963  0.00  0.00     0.000 A 
ATOM     12  C   UNL d   1     -42.764-123.008 -49.677  0.00  0.00     0.001 A 
ENDBRANCH   4   7
BRANCH   1  13
ATOM     13  C   UNL d   1     -41.534-122.799 -52.793  0.00  0.00     0.308 C 
ATOM     14  O   UNL d   1     -41.123-123.479 -53.056  0.00  0.00    -0.258 OA
BRANCH  13  15
ATOM     15  O   UNL d   1     -41.912-122.307 -53.350  0.00  0.00    -0.271 OA
BRANCH  15  16
ATOM     16  C   UNL d   1     -42.032-122.574 -54.135  0.00  0.00     0.126 C 
ATOM     17  C   UNL d   1     -42.322-122.044 -54.696  0.00  0.00     0.029 C 
ENDBRANCH  15  16
ENDBRANCH  13  15
ENDBRANCH   1  13
TORSDOF 4
ENDMDL
MODEL 4
REMARK VINA RESULT:      -2.4      1.917      4.715
REMARK  4 active torsions:
REMARK  status: ('A' for Active; 'I' for Inactive)
REMARK    1  A    between atoms: C_6  and  C_1 
REMARK    2  A    between atoms: C_7  and  C_4 
REMARK    3  A    between atoms: O_10  and  C_6 
REMARK    4  A    between atoms: C_13  and  O_10 
ROOT
ATOM      1  C   UNL d   1     -42.311-122.634 -50.156  0.00  0.00     0.112 A 
ATOM      2  S   UNL d   1     -41.885-122.884 -49.479  0.00  0.00    -0.080 SA
ATOM      3  C   UNL d   1     -43.111-122.619 -49.953  0.00  0.00     0.115 A 
ATOM      4  C   UNL d   1     -42.438-123.017 -48.875  0.00  0.00     0.031 A 
ATOM      5  C   UNL d   1     -43.182-122.852 -49.178  0.00  0.00     0.028 A 
ATOM      6  N   UNL d   1     -43.742-122.401 -50.462  0.00  0.00    -0.147 N 
ENDROOT
BRANCH   4   7
ATOM      7  C   UNL d   1     -42.167-123.271 -48.136  0.00  0.00     0.006 A 
ATOM      8  C   UNL d   1     -41.392-123.564 -48.073  0.00  0.00     0.001 A 
ATOM      9  C   UNL d   1     -41.123-123.817 -47.337  0.00  0.00     0.000 A 
ATOM     10  C   UNL d   1     -41.610-123.782 -46.676  0.00  0.00     0.000 A 
ATOM     11  C   UNL d   1     -42.373-123.492 -46.743  0.00  0.00     0.000 A 
ATOM     12  C   UNL d   1     -42.655-123.236 -47.475  0.00  0.00     0.001 A 
ENDBRANCH   4   7
BRANCH   1  13
ATOM     13  C   UNL d   1     -41.988-122.434 -50.903  0.00  0.00     0.308 C 
ATOM     14  O   UNL d   1     -41.624-121.693 -51.042  0.00  0.00    -0.258 OA
BRANCH  13  15
ATOM     15  O   UNL d   1     -42.034-122.992 -51.522  0.00  0.00    -0.271 OA
BRANCH  15  16
ATOM     16  C   UNL d   1     -41.527-122.926 -52.186  0.00  0.00     0.126 C 
ATOM     17  C   UNL d   1     -41.624-123.452 -52.814  0.00  0.00     0.029 C 
ENDBRANCH  15  16
ENDBRANCH  13  15
ENDBRANCH   1  13
TORSDOF 4
ENDMDL
