MODEL 1
REMARK VINA RESULT:      -2.4      0.000      0.000
REMARK  8 active torsions:
REMARK  status: ('A' for Active; 'I' for Inactive)
REMARK    1  A    between atoms: N_9  and  C_1 
REMARK    2  A    between atoms: C_4  and  S_15 
REMARK    3  A    between atoms: C_18  and  C_8 
REMARK       I    between atoms: C_13  and  N_9 
REMARK       I    between atoms: C_10  and  N_14 
REMARK    4  A    between atoms: C_16  and  C_10 
REMARK    5  A    between atoms: C_22  and  C_13 
REMARK    6  A    between atoms: N_14  and  C_18 
REMARK    7  A    between atoms: S_15  and  C_22 
REMARK    8  A    between atoms: O_26  and  C_23 
ROOT
ATOM      1  O   UNL d   1      32.691  18.500 -23.615  0.00  0.00    -0.262 OA
ATOM      2  C   UNL d   1      32.950  19.206 -23.974  0.00  0.00     0.236 A 
ATOM      3  N   UNL d   1      33.063  19.054 -24.772  0.00  0.00    -0.114 NA
ATOM      4  N   UNL d   1      32.877  18.262 -24.910  0.00  0.00    -0.119 NA
ATOM      5  C   UNL d   1      32.648  17.922 -24.198  0.00  0.00     0.224 A 
ENDROOT
BRANCH   2   6
ATOM      6  S   UNL d   1      33.069  19.927 -23.588  0.00  0.00    -0.036 SA
BRANCH   6   7
ATOM      7  C   UNL d   1      32.462  20.274 -23.167  0.00  0.00     0.101 C 
BRANCH   7   8
ATOM      8  C   UNL d   1      32.629  20.861 -22.589  0.00  0.00     0.288 C 
ATOM      9  N   UNL d   1      32.176  20.896 -21.898  0.00  0.00    -0.182 NA
ATOM     10  O   UNL d   1      33.238  21.395 -22.711  0.00  0.00    -0.265 OA
BRANCH   9  11
ATOM     11  C   UNL d   1      32.334  21.473 -21.320  0.00  0.00     0.197 A 
ATOM     12  N   UNL d   1      31.988  22.229 -21.289  0.00  0.00    -0.221 NA
ATOM     13  C   UNL d   1      32.298  22.622 -20.631  0.00  0.00     0.090 A 
ATOM     14  C   UNL d   1      32.166  23.369 -20.324  0.00  0.00     0.020 A 
ATOM     15  C   UNL d   1      32.838  22.106 -20.254  0.00  0.00     0.050 A 
ATOM     16  C   UNL d   1      32.563  23.624 -19.641  0.00  0.00     0.002 A 
ATOM     17  C   UNL d   1      33.100  23.107 -19.270  0.00  0.00     0.001 A 
ATOM     18  C   UNL d   1      33.231  22.359 -19.577  0.00  0.00     0.008 A 
ATOM     19  S   UNL d   1      32.860  21.395 -20.682  0.00  0.00    -0.047 SA
ENDBRANCH   9  11
ENDBRANCH   7   8
ENDBRANCH   6   7
ENDBRANCH   2   6
BRANCH   5  20
ATOM     20  C   UNL d   1      32.416  17.137 -24.088  0.00  0.00     0.149 C 
BRANCH  20  21
ATOM     21  N   UNL d   1      31.630  16.953 -23.931  0.00  0.00    -0.203 NA
ATOM     22  C   UNL d   1      31.328  16.211 -24.148  0.00  0.00     0.279 C 
ATOM     23  O   UNL d   1      31.809  15.657 -24.520  0.00  0.00    -0.265 OA
BRANCH  22  24
ATOM     24  C   UNL d   1      30.535  16.032 -23.986  0.00  0.00     0.058 A 
ATOM     25  C   UNL d   1      30.324  15.698 -23.260  0.00  0.00     0.007 A 
ATOM     26  C   UNL d   1      29.534  15.522 -23.106  0.00  0.00     0.024 A 
ATOM     27  C   UNL d   1      28.967  15.682 -23.681  0.00  0.00     0.094 A 
ATOM     28  C   UNL d   1      29.174  16.009 -24.392  0.00  0.00     0.024 A 
ATOM     29  C   UNL d   1      29.964  16.185 -24.546  0.00  0.00     0.007 A 
BRANCH  27  30
ATOM     30  O   UNL d   1      28.172  15.505 -23.525  0.00  0.00    -0.328 OA
ATOM     31  C   UNL d   1      27.602  16.113 -23.479  0.00  0.00     0.181 C 
ENDBRANCH  27  30
ENDBRANCH  22  24
ENDBRANCH  20  21
ENDBRANCH   5  20
TORSDOF 8
ENDMDL
MODEL 2
REMARK VINA RESULT:      -1.2      1.341      2.183
REMARK  8 active torsions:
REMARK  status: ('A' for Active; 'I' for Inactive)
REMARK    1  A    between atoms: N_9  and  C_1 
REMARK    2  A    between atoms: C_4  and  S_15 
REMARK    3  A    between atoms: C_18  and  C_8 
REMARK       I    between atoms: C_13  and  N_9 
REMARK       I    between atoms: C_10  and  N_14 
REMARK    4  A    between atoms: C_16  and  C_10 
REMARK    5  A    between atoms: C_22  and  C_13 
REMARK    6  A    between atoms: N_14  and  C_18 
REMARK    7  A    between atoms: S_15  and  C_22 
REMARK    8  A    between atoms: O_26  and  C_23 
ROOT
ATOM      1  O   UNL d   1      33.237  19.911 -23.011  0.00  0.00    -0.262 OA
ATOM      2  C   UNL d   1      33.117  20.711 -22.812  0.00  0.00     0.236 A 
ATOM      3  N   UNL d   1      32.857  21.099 -23.485  0.00  0.00    -0.114 NA
ATOM      4  N   UNL d   1      32.814  20.549 -24.098  0.00  0.00    -0.119 NA
ATOM      5  C   UNL d   1      33.048  19.819 -23.806  0.00  0.00     0.224 A 
ENDROOT
BRANCH   2   6
ATOM      6  S   UNL d   1      33.241  21.045 -22.066  0.00  0.00    -0.036 SA
BRANCH   6   7
ATOM      7  C   UNL d   1      32.644  21.039 -21.508  0.00  0.00     0.101 C 
BRANCH   7   8
ATOM      8  C   UNL d   1      32.792  21.311 -20.727  0.00  0.00     0.288 C 
ATOM      9  N   UNL d   1      32.516  22.054 -20.492  0.00  0.00    -0.182 NA
ATOM     10  O   UNL d   1      33.209  20.841 -20.201  0.00  0.00    -0.265 OA
BRANCH   9  11
ATOM     11  C   UNL d   1      32.658  22.332 -19.721  0.00  0.00     0.197 A 
ATOM     12  N   UNL d   1      32.535  21.895 -19.024  0.00  0.00    -0.221 NA
ATOM     13  C   UNL d   1      32.745  22.377 -18.385  0.00  0.00     0.090 A 
ATOM     14  C   UNL d   1      32.742  22.250 -17.576  0.00  0.00     0.020 A 
ATOM     15  C   UNL d   1      32.998  23.114 -18.690  0.00  0.00     0.050 A 
ATOM     16  C   UNL d   1      32.987  22.844 -17.051  0.00  0.00     0.002 A 
ATOM     17  C   UNL d   1      33.237  23.576 -17.360  0.00  0.00     0.001 A 
ATOM     18  C   UNL d   1      33.241  23.702 -18.169  0.00  0.00     0.008 A 
ATOM     19  S   UNL d   1      32.944  23.084 -19.517  0.00  0.00    -0.047 SA
ENDBRANCH   9  11
ENDBRANCH   7   8
ENDBRANCH   6   7
ENDBRANCH   2   6
BRANCH   5  20
ATOM     20  C   UNL d   1      33.087  19.114 -24.236  0.00  0.00     0.149 C 
BRANCH  20  21
ATOM     21  N   UNL d   1      32.516  18.530 -24.133  0.00  0.00    -0.203 NA
ATOM     22  C   UNL d   1      32.590  17.806 -24.531  0.00  0.00     0.279 C 
ATOM     23  O   UNL d   1      33.230  17.667 -25.029  0.00  0.00    -0.265 OA
BRANCH  22  24
ATOM     24  C   UNL d   1      32.011  17.223 -24.423  0.00  0.00     0.058 A 
ATOM     25  C   UNL d   1      31.336  17.213 -24.900  0.00  0.00     0.007 A 
ATOM     26  C   UNL d   1      30.765  16.630 -24.787  0.00  0.00     0.024 A 
ATOM     27  C   UNL d   1      30.878  16.065 -24.199  0.00  0.00     0.094 A 
ATOM     28  C   UNL d   1      31.541  16.074 -23.733  0.00  0.00     0.024 A 
ATOM     29  C   UNL d   1      32.111  16.657 -23.845  0.00  0.00     0.007 A 
BRANCH  27  30
ATOM     30  O   UNL d   1      30.304  15.478 -24.086  0.00  0.00    -0.328 OA
ATOM     31  C   UNL d   1      29.725  15.559 -23.491  0.00  0.00     0.181 C 
ENDBRANCH  27  30
ENDBRANCH  22  24
ENDBRANCH  20  21
ENDBRANCH   5  20
TORSDOF 8
ENDMDL
MODEL 3
REMARK VINA RESULT:      -0.4      2.104      7.196
REMARK  8 active torsions:
REMARK  status: ('A' for Active; 'I' for Inactive)
REMARK    1  A    between atoms: N_9  and  C_1 
REMARK    2  A    between atoms: C_4  and  S_15 
REMARK    3  A    between atoms: C_18  and  C_8 
REMARK       I    between atoms: C_13  and  N_9 
REMARK       I    between atoms: C_10  and  N_14 
REMARK    4  A    between atoms: C_16  and  C_10 
REMARK    5  A    between atoms: C_22  and  C_13 
REMARK    6  A    between atoms: N_14  and  C_18 
REMARK    7  A    between atoms: S_15  and  C_22 
REMARK    8  A    between atoms: O_26  and  C_23 
ROOT
ATOM      1  O   UNL d   1      32.717  21.954 -21.486  0.00  0.00    -0.262 OA
ATOM      2  C   UNL d   1      32.944  21.724 -22.254  0.00  0.00     0.236 A 
ATOM      3  N   UNL d   1      32.820  22.362 -22.753  0.00  0.00    -0.114 NA
ATOM      4  N   UNL d   1      32.519  22.984 -22.303  0.00  0.00    -0.119 NA
ATOM      5  C   UNL d   1      32.456  22.733 -21.525  0.00  0.00     0.224 A 
ENDROOT
BRANCH   2   6
ATOM      6  S   UNL d   1      33.241  20.982 -22.466  0.00  0.00    -0.036 SA
BRANCH   6   7
ATOM      7  C   UNL d   1      32.905  20.566 -23.084  0.00  0.00     0.101 C 
BRANCH   7   8
ATOM      8  C   UNL d   1      32.848  19.728 -23.048  0.00  0.00     0.288 C 
ATOM      9  N   UNL d   1      32.579  19.307 -23.706  0.00  0.00    -0.182 NA
ATOM     10  O   UNL d   1      33.058  19.332 -22.362  0.00  0.00    -0.265 OA
BRANCH   9  11
ATOM     11  C   UNL d   1      32.519  18.478 -23.680  0.00  0.00     0.197 A 
ATOM     12  N   UNL d   1      31.877  18.053 -23.364  0.00  0.00    -0.221 NA
ATOM     13  C   UNL d   1      32.042  17.247 -23.449  0.00  0.00     0.090 A 
ATOM     14  C   UNL d   1      31.622  16.575 -23.244  0.00  0.00     0.020 A 
ATOM     15  C   UNL d   1      32.789  17.175 -23.818  0.00  0.00     0.050 A 
ATOM     16  C   UNL d   1      31.928  15.819 -23.398  0.00  0.00     0.002 A 
ATOM     17  C   UNL d   1      32.672  15.752 -23.765  0.00  0.00     0.001 A 
ATOM     18  C   UNL d   1      33.092  16.425 -23.970  0.00  0.00     0.008 A 
ATOM     19  S   UNL d   1      33.083  17.937 -23.960  0.00  0.00    -0.047 SA
ENDBRANCH   9  11
ENDBRANCH   7   8
ENDBRANCH   6   7
ENDBRANCH   2   6
BRANCH   5  20
ATOM     20  C   UNL d   1      32.178  23.184 -20.890  0.00  0.00     0.149 C 
BRANCH  20  21
ATOM     21  N   UNL d   1      32.471  23.062 -20.131  0.00  0.00    -0.203 NA
ATOM     22  C   UNL d   1      32.036  23.322 -19.474  0.00  0.00     0.279 C 
ATOM     23  O   UNL d   1      31.314  23.702 -19.575  0.00  0.00    -0.265 OA
BRANCH  22  24
ATOM     24  C   UNL d   1      32.336  23.195 -18.712  0.00  0.00     0.058 A 
ATOM     25  C   UNL d   1      32.125  23.700 -18.093  0.00  0.00     0.007 A 
ATOM     26  C   UNL d   1      32.427  23.568 -17.338  0.00  0.00     0.024 A 
ATOM     27  C   UNL d   1      32.936  22.933 -17.213  0.00  0.00     0.094 A 
ATOM     28  C   UNL d   1      33.143  22.438 -17.821  0.00  0.00     0.024 A 
ATOM     29  C   UNL d   1      32.841  22.570 -18.575  0.00  0.00     0.007 A 
BRANCH  27  30
ATOM     30  O   UNL d   1      33.240  22.801 -16.453  0.00  0.00    -0.328 OA
ATOM     31  C   UNL d   1      32.731  22.753 -15.794  0.00  0.00     0.181 C 
ENDBRANCH  27  30
ENDBRANCH  22  24
ENDBRANCH  20  21
ENDBRANCH   5  20
TORSDOF 8
ENDMDL
