MODEL 1
REMARK VINA RESULT:      43.3      0.000      0.000
REMARK  3 active torsions:
REMARK  status: ('A' for Active; 'I' for Inactive)
REMARK    1  A    between atoms: N_3  and  C_2 
REMARK       I    between atoms: C_4  and  N_3 
REMARK    2  A    between atoms: C_10  and  N_3 
REMARK    3  A    between atoms: C_12  and  C_4 
ROOT
ATOM      1  N   UNL d   1      58.133  49.393  50.942  0.00  0.00    -0.274 N 
ATOM      2  C   UNL d   1      57.545  49.614  52.027  0.00  0.00     0.265 C 
ATOM      3  O   UNL d   1      58.059  49.708  52.635  0.00  0.00    -0.267 OA
ENDROOT
BRANCH   1   4
ATOM      4  C   UNL d   1      57.667  49.293  50.314  0.00  0.00     0.079 A 
ATOM      5  C   UNL d   1      56.908  49.493  50.266  0.00  0.00     0.116 A 
ATOM      6  S   UNL d   1      56.654  49.299  49.549  0.00  0.00     0.213 S 
ATOM      7  C   UNL d   1      57.258  48.981  49.160  0.00  0.00     0.100 A 
ATOM      8  O   UNL d   1      56.399  49.106  48.832  0.00  0.00    -0.217 OA
ATOM      9  O   UNL d   1      56.033  49.610  49.906  0.00  0.00    -0.217 OA
ATOM     10  C   UNL d   1      57.879  48.978  49.630  0.00  0.00     0.030 A 
ENDBRANCH   1   4
BRANCH   1  11
ATOM     11  C   UNL d   1      58.957  49.355  50.892  0.00  0.00     0.067 A 
ATOM     12  C   UNL d   1      59.334  49.699  50.252  0.00  0.00     0.020 A 
ATOM     13  C   UNL d   1      60.176  49.663  50.196  0.00  0.00     0.031 A 
ATOM     14  C   UNL d   1      60.611  49.280  50.788  0.00  0.00     0.140 A 
ATOM     15  C   UNL d   1      60.225  48.936  51.430  0.00  0.00     0.031 A 
ATOM     16  F   UNL d   1      61.431  49.242  50.738  0.00  0.00    -0.204 F 
ATOM     17  C   UNL d   1      59.404  48.963  51.498  0.00  0.00     0.020 A 
ENDBRANCH   1  11
BRANCH   2  18
ATOM     18  C   UNL d   1      56.721  49.656  52.102  0.00  0.00     0.057 C 
ATOM     19  C   UNL d   1      56.360  49.648  52.859  0.00  0.00     0.005 C 
ATOM     20  C   UNL d   1      56.240  49.708  51.410  0.00  0.00     0.005 C 
ENDBRANCH   2  18
TORSDOF 3
ENDMDL
MODEL 2
REMARK VINA RESULT:      44.9      2.307      3.498
REMARK  3 active torsions:
REMARK  status: ('A' for Active; 'I' for Inactive)
REMARK    1  A    between atoms: N_3  and  C_2 
REMARK       I    between atoms: C_4  and  N_3 
REMARK    2  A    between atoms: C_10  and  N_3 
REMARK    3  A    between atoms: C_12  and  C_4 
ROOT
ATOM      1  N   UNL d   1      59.546  49.300  51.055  0.00  0.00    -0.274 N 
ATOM      2  C   UNL d   1      59.700  49.549  52.273  0.00  0.00     0.265 C 
ATOM      3  O   UNL d   1      59.005  49.706  52.639  0.00  0.00    -0.267 OA
ENDROOT
BRANCH   1   4
ATOM      4  C   UNL d   1      60.204  49.139  50.652  0.00  0.00     0.079 A 
ATOM      5  C   UNL d   1      60.561  48.439  50.612  0.00  0.00     0.116 A 
ATOM      6  S   UNL d   1      61.195  48.518  50.156  0.00  0.00     0.213 S 
ATOM      7  C   UNL d   1      61.225  49.266  49.917  0.00  0.00     0.100 A 
ATOM      8  O   UNL d   1      61.829  48.597  49.700  0.00  0.00    -0.217 OA
ATOM      9  O   UNL d   1      61.196  47.768  50.374  0.00  0.00    -0.217 OA
ATOM     10  C   UNL d   1      60.616  49.646  50.222  0.00  0.00     0.030 A 
ENDBRANCH   1   4
BRANCH   1  11
ATOM     11  C   UNL d   1      58.800  49.306  50.699  0.00  0.00     0.067 A 
ATOM     12  C   UNL d   1      58.701  49.699  49.987  0.00  0.00     0.020 A 
ATOM     13  C   UNL d   1      57.941  49.708  49.619  0.00  0.00     0.031 A 
ATOM     14  C   UNL d   1      57.305  49.320  49.981  0.00  0.00     0.140 A 
ATOM     15  C   UNL d   1      57.411  48.927  50.698  0.00  0.00     0.031 A 
ATOM     16  F   UNL d   1      56.563  49.326  49.627  0.00  0.00    -0.204 F 
ATOM     17  C   UNL d   1      58.147  48.909  51.068  0.00  0.00     0.020 A 
ENDBRANCH   1  11
BRANCH   2  18
ATOM     18  C   UNL d   1      60.437  49.549  52.652  0.00  0.00     0.057 C 
ATOM     19  C   UNL d   1      60.494  49.394  53.475  0.00  0.00     0.005 C 
ATOM     20  C   UNL d   1      61.136  49.706  52.206  0.00  0.00     0.005 C 
ENDBRANCH   2  18
TORSDOF 3
ENDMDL
