MODEL 1
REMARK VINA RESULT:      18.1      0.000      0.000
REMARK  2 active torsions:
REMARK  status: ('A' for Active; 'I' for Inactive)
REMARK    1  A    between atoms: C_6  and  C_2 
REMARK    2  A    between atoms: O_13  and  C_10 
ROOT
ATOM      1  C   UNL d   1     -57.258 -98.784 -44.787  0.00  0.00     0.026 A 
ATOM      2  C   UNL d   1     -57.545 -98.762 -45.565  0.00  0.00     0.004 A 
ATOM      3  C   UNL d   1     -57.792 -98.800 -44.169  0.00  0.00     0.004 A 
ATOM      4  C   UNL d   1     -58.876 -98.771 -45.083  0.00  0.00     0.094 A 
ATOM      5  C   UNL d   1     -58.347 -98.755 -45.720  0.00  0.00     0.024 A 
ATOM      6  C   UNL d   1     -58.615 -98.793 -44.318  0.00  0.00     0.024 A 
ENDROOT
BRANCH   1   7
ATOM      7  C   UNL d   1     -56.446 -98.790 -44.638  0.00  0.00     0.135 A 
ATOM      8  S   UNL d   1     -56.088 -98.767 -43.898  0.00  0.00    -0.024 SA
ATOM      9  C   UNL d   1     -55.281 -98.783 -44.004  0.00  0.00     0.236 A 
ATOM     10  N   UNL d   1     -55.121 -98.817 -44.815  0.00  0.00    -0.119 NA
ATOM     11  N   UNL d   1     -54.714 -98.769 -43.404  0.00  0.00    -0.118 N 
ATOM     12  N   UNL d   1     -55.848 -98.821 -45.210  0.00  0.00    -0.139 NA
ENDBRANCH   1   7
BRANCH   4  13
ATOM     13  O   UNL d   1     -59.683 -98.765 -45.241  0.00  0.00    -0.328 OA
ATOM     14  C   UNL d   1     -59.955 -98.763 -46.017  0.00  0.00     0.181 C 
ENDBRANCH   4  13
TORSDOF 2
ENDMDL
MODEL 2
REMARK VINA RESULT:      19.4      1.034      1.635
REMARK  2 active torsions:
REMARK  status: ('A' for Active; 'I' for Inactive)
REMARK    1  A    between atoms: C_6  and  C_2 
REMARK    2  A    between atoms: O_13  and  C_10 
ROOT
ATOM      1  C   UNL d   1     -57.259 -98.892 -44.034  0.00  0.00     0.026 A 
ATOM      2  C   UNL d   1     -57.535 -98.807 -43.256  0.00  0.00     0.004 A 
ATOM      3  C   UNL d   1     -57.800 -98.930 -44.644  0.00  0.00     0.004 A 
ATOM      4  C   UNL d   1     -58.872 -98.801 -43.724  0.00  0.00     0.094 A 
ATOM      5  C   UNL d   1     -58.335 -98.761 -43.094  0.00  0.00     0.024 A 
ATOM      6  C   UNL d   1     -58.620 -98.884 -44.488  0.00  0.00     0.024 A 
ENDROOT
BRANCH   1   7
ATOM      7  C   UNL d   1     -56.450 -98.937 -44.189  0.00  0.00     0.135 A 
ATOM      8  S   UNL d   1     -56.084 -98.781 -44.909  0.00  0.00    -0.024 SA
ATOM      9  C   UNL d   1     -55.282 -98.893 -44.818  0.00  0.00     0.236 A 
ATOM     10  N   UNL d   1     -55.134 -99.122 -44.038  0.00  0.00    -0.119 NA
ATOM     11  N   UNL d   1     -54.711 -98.794 -45.406  0.00  0.00    -0.118 N 
ATOM     12  N   UNL d   1     -55.862 -99.149 -43.645  0.00  0.00    -0.139 NA
ENDBRANCH   1   7
BRANCH   4  13
ATOM     13  O   UNL d   1     -59.676 -98.755 -43.560  0.00  0.00    -0.328 OA
ATOM     14  C   UNL d   1     -59.942 -98.755 -42.781  0.00  0.00     0.181 C 
ENDBRANCH   4  13
TORSDOF 2
ENDMDL
