MODEL 1
REMARK VINA RESULT:      -6.7      0.000      0.000
REMARK  3 active torsions:
REMARK  status: ('A' for Active; 'I' for Inactive)
REMARK    1  A    between atoms: N_2  and  C_1 
REMARK    2  A    between atoms: N_4  and  C_1 
REMARK       I    between atoms: C_3  and  N_2 
REMARK    3  A    between atoms: C_5  and  C_3 
ROOT
ATOM      1  C   UNL d   1     -48.954  13.067  22.459  0.00  0.00     0.209 C 
ATOM      2  S   UNL d   1     -49.250  12.874  21.703  0.00  0.00    -0.038 SA
ENDROOT
BRANCH   1   3
ATOM      3  N   UNL d   1     -49.295  13.665  22.896  0.00  0.00    -0.179 NA
ATOM      4  C   UNL d   1     -49.864  14.153  22.558  0.00  0.00     0.287 C 
ATOM      5  O   UNL d   1     -50.090  14.035  21.770  0.00  0.00    -0.265 OA
BRANCH   4   6
ATOM      6  C   UNL d   1     -50.210  14.758  22.998  0.00  0.00     0.087 A 
ATOM      7  S   UNL d   1     -50.981  14.861  23.293  0.00  0.00    -0.082 SA
ATOM      8  C   UNL d   1     -51.006  15.582  23.698  0.00  0.00     0.036 A 
ATOM      9  C   UNL d   1     -50.259  15.921  23.653  0.00  0.00     0.008 A 
ATOM     10  C   UNL d   1     -49.764  15.415  23.220  0.00  0.00     0.012 A 
ENDBRANCH   4   6
ENDBRANCH   1   3
BRANCH   1  11
ATOM     11  N   UNL d   1     -48.307  12.647  22.768  0.00  0.00    -0.281 N 
ATOM     12  C   UNL d   1     -47.533  12.920  22.649  0.00  0.00     0.082 A 
ATOM     13  C   UNL d   1     -46.897  12.506  22.953  0.00  0.00     0.019 A 
ATOM     14  C   UNL d   1     -47.021  11.808  23.385  0.00  0.00     0.003 A 
ATOM     15  C   UNL d   1     -47.793  11.540  23.500  0.00  0.00     0.019 A 
ATOM     16  C   UNL d   1     -46.378  11.380  23.698  0.00  0.00     0.000 C 
ATOM     17  C   UNL d   1     -48.432  11.956  23.194  0.00  0.00     0.082 A 
ENDBRANCH   1  11
TORSDOF 3
ENDMDL
MODEL 2
REMARK VINA RESULT:      -6.5      1.098      3.964
REMARK  3 active torsions:
REMARK  status: ('A' for Active; 'I' for Inactive)
REMARK    1  A    between atoms: N_2  and  C_1 
REMARK    2  A    between atoms: N_4  and  C_1 
REMARK       I    between atoms: C_3  and  N_2 
REMARK    3  A    between atoms: C_5  and  C_3 
ROOT
ATOM      1  C   UNL d   1     -49.190  13.462  22.449  0.00  0.00     0.209 C 
ATOM      2  S   UNL d   1     -49.437  13.067  21.757  0.00  0.00    -0.038 SA
ENDROOT
BRANCH   1   3
ATOM      3  N   UNL d   1     -48.495  13.251  22.819  0.00  0.00    -0.179 NA
ATOM      4  C   UNL d   1     -48.071  12.595  22.563  0.00  0.00     0.287 C 
ATOM      5  O   UNL d   1     -48.353  12.148  21.927  0.00  0.00    -0.265 OA
BRANCH   4   6
ATOM      6  C   UNL d   1     -47.368  12.380  22.937  0.00  0.00     0.087 A 
ATOM      7  S   UNL d   1     -46.616  12.734  22.953  0.00  0.00    -0.082 SA
ATOM      8  C   UNL d   1     -46.122  12.266  23.423  0.00  0.00     0.036 A 
ATOM      9  C   UNL d   1     -46.565  11.630  23.695  0.00  0.00     0.008 A 
ATOM     10  C   UNL d   1     -47.336  11.697  23.397  0.00  0.00     0.012 A 
ENDBRANCH   4   6
ENDBRANCH   1   3
BRANCH   1  11
ATOM     11  N   UNL d   1     -49.657  14.074  22.762  0.00  0.00    -0.281 N 
ATOM     12  C   UNL d   1     -50.339  13.900  23.200  0.00  0.00     0.082 A 
ATOM     13  C   UNL d   1     -50.798  14.503  23.508  0.00  0.00     0.019 A 
ATOM     14  C   UNL d   1     -50.583  15.296  23.385  0.00  0.00     0.003 A 
ATOM     15  C   UNL d   1     -49.903  15.463  22.949  0.00  0.00     0.019 A 
ATOM     16  C   UNL d   1     -51.045  15.916  23.697  0.00  0.00     0.000 C 
ATOM     17  C   UNL d   1     -49.442  14.857  22.640  0.00  0.00     0.082 A 
ENDBRANCH   1  11
TORSDOF 3
ENDMDL
MODEL 3
REMARK VINA RESULT:      -6.2      1.802      4.146
REMARK  3 active torsions:
REMARK  status: ('A' for Active; 'I' for Inactive)
REMARK    1  A    between atoms: N_2  and  C_1 
REMARK    2  A    between atoms: N_4  and  C_1 
REMARK       I    between atoms: C_3  and  N_2 
REMARK    3  A    between atoms: C_5  and  C_3 
ROOT
ATOM      1  C   UNL d   1     -47.810  14.056  22.777  0.00  0.00     0.209 C 
ATOM      2  S   UNL d   1     -47.248  14.670  22.727  0.00  0.00    -0.038 SA
ENDROOT
BRANCH   1   3
ATOM      3  N   UNL d   1     -47.575  13.294  22.948  0.00  0.00    -0.179 NA
ATOM      4  C   UNL d   1     -46.789  13.132  23.123  0.00  0.00     0.287 C 
ATOM      5  O   UNL d   1     -46.234  13.747  23.126  0.00  0.00    -0.265 OA
BRANCH   4   6
ATOM      6  C   UNL d   1     -46.549  12.362  23.296  0.00  0.00     0.087 A 
ATOM      7  S   UNL d   1     -46.928  11.737  23.691  0.00  0.00    -0.082 SA
ATOM      8  C   UNL d   1     -46.414  11.089  23.697  0.00  0.00     0.036 A 
ATOM      9  C   UNL d   1     -45.725  11.312  23.310  0.00  0.00     0.008 A 
ATOM     10  C   UNL d   1     -45.804  12.099  23.060  0.00  0.00     0.012 A 
ENDBRANCH   4   6
ENDBRANCH   1   3
BRANCH   1  11
ATOM     11  N   UNL d   1     -48.615  14.223  22.653  0.00  0.00    -0.281 N 
ATOM     12  C   UNL d   1     -49.074  14.552  23.260  0.00  0.00     0.082 A 
ATOM     13  C   UNL d   1     -49.866  14.715  23.138  0.00  0.00     0.019 A 
ATOM     14  C   UNL d   1     -50.217  14.552  22.404  0.00  0.00     0.003 A 
ATOM     15  C   UNL d   1     -49.756  14.225  21.803  0.00  0.00     0.019 A 
ATOM     16  C   UNL d   1     -51.024  14.716  22.272  0.00  0.00     0.000 C 
ATOM     17  C   UNL d   1     -48.960  14.061  21.926  0.00  0.00     0.082 A 
ENDBRANCH   1  11
TORSDOF 3
ENDMDL
MODEL 4
REMARK VINA RESULT:      -6.2      1.066      1.405
REMARK  3 active torsions:
REMARK  status: ('A' for Active; 'I' for Inactive)
REMARK    1  A    between atoms: N_2  and  C_1 
REMARK    2  A    between atoms: N_4  and  C_1 
REMARK       I    between atoms: C_3  and  N_2 
REMARK    3  A    between atoms: C_5  and  C_3 
ROOT
ATOM      1  C   UNL d   1     -48.462  13.058  23.005  0.00  0.00     0.209 C 
ATOM      2  S   UNL d   1     -48.808  12.320  23.181  0.00  0.00    -0.038 SA
ENDROOT
BRANCH   1   3
ATOM      3  N   UNL d   1     -48.910  13.739  23.021  0.00  0.00    -0.179 NA
ATOM      4  C   UNL d   1     -49.682  13.720  23.303  0.00  0.00     0.287 C 
ATOM      5  O   UNL d   1     -50.004  13.007  23.571  0.00  0.00    -0.265 OA
BRANCH   4   6
ATOM      6  C   UNL d   1     -50.137  14.408  23.320  0.00  0.00     0.087 A 
ATOM      7  S   UNL d   1     -50.889  14.586  23.011  0.00  0.00    -0.082 SA
ATOM      8  C   UNL d   1     -51.064  15.371  23.201  0.00  0.00     0.036 A 
ATOM      9  C   UNL d   1     -50.428  15.675  23.622  0.00  0.00     0.008 A 
ATOM     10  C   UNL d   1     -49.852  15.083  23.698  0.00  0.00     0.012 A 
ENDBRANCH   4   6
ENDBRANCH   1   3
BRANCH   1  11
ATOM     11  N   UNL d   1     -47.654  13.099  22.812  0.00  0.00    -0.281 N 
ATOM     12  C   UNL d   1     -47.077  12.979  23.395  0.00  0.00     0.082 A 
ATOM     13  C   UNL d   1     -46.283  13.020  23.205  0.00  0.00     0.019 A 
ATOM     14  C   UNL d   1     -46.048  13.182  22.425  0.00  0.00     0.003 A 
ATOM     15  C   UNL d   1     -46.626  13.301  21.849  0.00  0.00     0.019 A 
ATOM     16  C   UNL d   1     -45.240  13.225  22.224  0.00  0.00     0.000 C 
ATOM     17  C   UNL d   1     -47.424  13.260  22.041  0.00  0.00     0.082 A 
ENDBRANCH   1  11
TORSDOF 3
ENDMDL
MODEL 5
REMARK VINA RESULT:      -5.1      9.182     10.020
REMARK  3 active torsions:
REMARK  status: ('A' for Active; 'I' for Inactive)
REMARK    1  A    between atoms: N_2  and  C_1 
REMARK    2  A    between atoms: N_4  and  C_1 
REMARK       I    between atoms: C_3  and  N_2 
REMARK    3  A    between atoms: C_5  and  C_3 
ROOT
ATOM      1  C   UNL d   1     -40.487  14.700  19.850  0.00  0.00     0.209 C 
ATOM      2  S   UNL d   1     -41.003  14.046  19.895  0.00  0.00    -0.038 SA
ENDROOT
BRANCH   1   3
ATOM      3  N   UNL d   1     -40.328  15.052  19.132  0.00  0.00    -0.179 NA
ATOM      4  C   UNL d   1     -40.551  14.684  18.431  0.00  0.00     0.287 C 
ATOM      5  O   UNL d   1     -40.939  13.953  18.458  0.00  0.00    -0.265 OA
BRANCH   4   6
ATOM      6  C   UNL d   1     -40.392  15.038  17.704  0.00  0.00     0.087 A 
ATOM      7  S   UNL d   1     -40.793  15.623  17.269  0.00  0.00    -0.082 SA
ATOM      8  C   UNL d   1     -40.371  15.759  16.572  0.00  0.00     0.036 A 
ATOM      9  C   UNL d   1     -39.715  15.264  16.575  0.00  0.00     0.008 A 
ATOM     10  C   UNL d   1     -39.724  14.816  17.274  0.00  0.00     0.012 A 
ENDBRANCH   4   6
ENDBRANCH   1   3
BRANCH   1  11
ATOM     11  N   UNL d   1     -40.132  14.994  20.541  0.00  0.00    -0.281 N 
ATOM     12  C   UNL d   1     -39.438  14.649  20.837  0.00  0.00     0.082 A 
ATOM     13  C   UNL d   1     -39.089  14.939  21.517  0.00  0.00     0.019 A 
ATOM     14  C   UNL d   1     -39.428  15.582  21.918  0.00  0.00     0.003 A 
ATOM     15  C   UNL d   1     -40.118  15.922  21.620  0.00  0.00     0.019 A 
ATOM     16  C   UNL d   1     -39.078  15.883  22.613  0.00  0.00     0.000 C 
ATOM     17  C   UNL d   1     -40.468  15.631  20.936  0.00  0.00     0.082 A 
ENDBRANCH   1  11
TORSDOF 3
ENDMDL
MODEL 6
REMARK VINA RESULT:      -5.0      9.479     10.620
REMARK  3 active torsions:
REMARK  status: ('A' for Active; 'I' for Inactive)
REMARK    1  A    between atoms: N_2  and  C_1 
REMARK    2  A    between atoms: N_4  and  C_1 
REMARK       I    between atoms: C_3  and  N_2 
REMARK    3  A    between atoms: C_5  and  C_3 
ROOT
ATOM      1  C   UNL d   1     -40.005  14.956  18.058  0.00  0.00     0.209 C 
ATOM      2  S   UNL d   1     -40.709  15.281  17.752  0.00  0.00    -0.038 SA
ENDROOT
BRANCH   1   3
ATOM      3  N   UNL d   1     -39.820  15.039  18.848  0.00  0.00    -0.179 NA
ATOM      4  C   UNL d   1     -40.278  15.520  19.332  0.00  0.00     0.287 C 
ATOM      5  O   UNL d   1     -40.929  15.922  19.014  0.00  0.00    -0.265 OA
BRANCH   4   6
ATOM      6  C   UNL d   1     -40.094  15.605  20.131  0.00  0.00     0.087 A 
ATOM      7  S   UNL d   1     -39.378  15.765  20.524  0.00  0.00    -0.082 SA
ATOM      8  C   UNL d   1     -39.530  15.787  21.336  0.00  0.00     0.036 A 
ATOM      9  C   UNL d   1     -40.332  15.644  21.445  0.00  0.00     0.008 A 
ATOM     10  C   UNL d   1     -40.684  15.531  20.702  0.00  0.00     0.012 A 
ENDBRANCH   4   6
ENDBRANCH   1   3
BRANCH   1  11
ATOM     11  N   UNL d   1     -39.487  14.545  17.554  0.00  0.00    -0.281 N 
ATOM     12  C   UNL d   1     -39.082  14.946  16.951  0.00  0.00     0.082 A 
ATOM     13  C   UNL d   1     -38.573  14.542  16.456  0.00  0.00     0.019 A 
ATOM     14  C   UNL d   1     -38.457  13.725  16.552  0.00  0.00     0.003 A 
ATOM     15  C   UNL d   1     -38.863  13.332  17.153  0.00  0.00     0.019 A 
ATOM     16  C   UNL d   1     -37.940  13.306  16.050  0.00  0.00     0.000 C 
ATOM     17  C   UNL d   1     -39.374  13.738  17.651  0.00  0.00     0.082 A 
ENDBRANCH   1  11
TORSDOF 3
ENDMDL
MODEL 7
REMARK VINA RESULT:      -4.9      9.330     10.235
REMARK  3 active torsions:
REMARK  status: ('A' for Active; 'I' for Inactive)
REMARK    1  A    between atoms: N_2  and  C_1 
REMARK    2  A    between atoms: N_4  and  C_1 
REMARK       I    between atoms: C_3  and  N_2 
REMARK    3  A    between atoms: C_5  and  C_3 
ROOT
ATOM      1  C   UNL d   1     -40.387  15.091  20.205  0.00  0.00     0.209 C 
ATOM      2  S   UNL d   1     -40.924  15.546  20.653  0.00  0.00    -0.038 SA
ENDROOT
BRANCH   1   3
ATOM      3  N   UNL d   1     -39.817  14.641  20.574  0.00  0.00    -0.179 NA
ATOM      4  C   UNL d   1     -39.634  14.771  21.365  0.00  0.00     0.287 C 
ATOM      5  O   UNL d   1     -40.031  15.363  21.786  0.00  0.00    -0.265 OA
BRANCH   4   6
ATOM      6  C   UNL d   1     -39.058  14.317  21.741  0.00  0.00     0.087 A 
ATOM      7  S   UNL d   1     -38.229  14.379  21.768  0.00  0.00    -0.082 SA
ATOM      8  C   UNL d   1     -37.940  13.762  22.235  0.00  0.00     0.036 A 
ATOM      9  C   UNL d   1     -38.583  13.322  22.496  0.00  0.00     0.008 A 
ATOM     10  C   UNL d   1     -39.277  13.662  22.192  0.00  0.00     0.012 A 
ENDBRANCH   4   6
ENDBRANCH   1   3
BRANCH   1  11
ATOM     11  N   UNL d   1     -40.435  15.098  19.375  0.00  0.00    -0.281 N 
ATOM     12  C   UNL d   1     -40.585  14.398  18.957  0.00  0.00     0.082 A 
ATOM     13  C   UNL d   1     -40.632  14.404  18.141  0.00  0.00     0.019 A 
ATOM     14  C   UNL d   1     -40.529  15.114  17.723  0.00  0.00     0.003 A 
ATOM     15  C   UNL d   1     -40.379  15.808  18.143  0.00  0.00     0.019 A 
ATOM     16  C   UNL d   1     -40.575  15.129  16.891  0.00  0.00     0.000 C 
ATOM     17  C   UNL d   1     -40.333  15.801  18.964  0.00  0.00     0.082 A 
ENDBRANCH   1  11
TORSDOF 3
ENDMDL
