MODEL 1
REMARK VINA RESULT:      -4.8      0.000      0.000
REMARK  3 active torsions:
REMARK  status: ('A' for Active; 'I' for Inactive)
REMARK    1  A    between atoms: N_2  and  C_1 
REMARK    2  A    between atoms: N_3  and  C_1 
REMARK       I    between atoms: C_4  and  N_2 
REMARK    3  A    between atoms: C_9  and  C_4 
ROOT
ATOM      1  C   UNL d   1     -41.435-122.238 -52.070  0.00  0.00     0.209 C 
ATOM      2  S   UNL d   1     -41.123-121.496 -51.900  0.00  0.00    -0.038 SA
ENDROOT
BRANCH   1   3
ATOM      3  N   UNL d   1     -41.726-122.705 -51.450  0.00  0.00    -0.180 NA
ATOM      4  C   UNL d   1     -41.719-122.404 -50.680  0.00  0.00     0.281 C 
ATOM      5  O   UNL d   1     -41.425-121.646 -50.526  0.00  0.00    -0.265 OA
BRANCH   4   6
ATOM      6  C   UNL d   1     -42.007-122.863 -50.062  0.00  0.00     0.058 A 
ATOM      7  C   UNL d   1     -41.496-123.357 -49.632  0.00  0.00     0.005 A 
ATOM      8  C   UNL d   1     -41.780-123.817 -49.014  0.00  0.00     0.000 A 
ATOM      9  C   UNL d   1     -42.588-123.787 -48.819  0.00  0.00     0.000 A 
ATOM     10  C   UNL d   1     -43.099-123.296 -49.245  0.00  0.00     0.000 A 
ATOM     11  C   UNL d   1     -42.803-122.838 -49.863  0.00  0.00     0.005 A 
ENDBRANCH   4   6
ENDBRANCH   1   3
BRANCH   1  12
ATOM     12  N   UNL d   1     -41.457-122.512 -52.841  0.00  0.00    -0.281 N 
ATOM     13  C   UNL d   1     -41.123-123.246 -53.026  0.00  0.00     0.082 A 
ATOM     14  C   UNL d   1     -41.148-123.522 -53.811  0.00  0.00     0.019 A 
ATOM     15  C   UNL d   1     -41.503-123.066 -54.398  0.00  0.00     0.003 A 
ATOM     16  C   UNL d   1     -41.833-122.338 -54.209  0.00  0.00     0.019 A 
ATOM     17  C   UNL d   1     -41.527-123.339 -55.173  0.00  0.00     0.000 C 
ATOM     18  C   UNL d   1     -41.811-122.059 -53.431  0.00  0.00     0.082 A 
ENDBRANCH   1  12
TORSDOF 3
ENDMDL
MODEL 2
REMARK VINA RESULT:      -4.3      1.382      4.352
REMARK  3 active torsions:
REMARK  status: ('A' for Active; 'I' for Inactive)
REMARK    1  A    between atoms: N_2  and  C_1 
REMARK    2  A    between atoms: N_3  and  C_1 
REMARK       I    between atoms: C_4  and  N_2 
REMARK    3  A    between atoms: C_9  and  C_4 
ROOT
ATOM      1  C   UNL d   1     -41.584-123.140 -52.262  0.00  0.00     0.209 C 
ATOM      2  S   UNL d   1     -41.127-123.817 -52.362  0.00  0.00    -0.038 SA
ENDROOT
BRANCH   1   3
ATOM      3  N   UNL d   1     -41.763-122.672 -52.923  0.00  0.00    -0.180 NA
ATOM      4  C   UNL d   1     -41.697-123.000 -53.679  0.00  0.00     0.281 C 
ATOM      5  O   UNL d   1     -41.455-123.784 -53.779  0.00  0.00    -0.265 OA
BRANCH   4   6
ATOM      6  C   UNL d   1     -41.873-122.540 -54.337  0.00  0.00     0.058 A 
ATOM      7  C   UNL d   1     -42.642-122.247 -54.451  0.00  0.00     0.005 A 
ATOM      8  C   UNL d   1     -42.822-121.787 -55.107  0.00  0.00     0.000 A 
ATOM      9  C   UNL d   1     -42.227-121.615 -55.663  0.00  0.00     0.000 A 
ATOM     10  C   UNL d   1     -41.461-121.906 -55.552  0.00  0.00     0.000 A 
ATOM     11  C   UNL d   1     -41.291-122.366 -54.889  0.00  0.00     0.005 A 
ENDBRANCH   4   6
ENDBRANCH   1   3
BRANCH   1  12
ATOM     12  N   UNL d   1     -41.858-122.930 -51.519  0.00  0.00    -0.281 N 
ATOM     13  C   UNL d   1     -42.137-123.515 -51.005  0.00  0.00     0.082 A 
ATOM     14  C   UNL d   1     -42.415-123.298 -50.250  0.00  0.00     0.019 A 
ATOM     15  C   UNL d   1     -42.412-122.507 -50.020  0.00  0.00     0.003 A 
ATOM     16  C   UNL d   1     -42.134-121.931 -50.536  0.00  0.00     0.019 A 
ATOM     17  C   UNL d   1     -42.687-122.293 -49.276  0.00  0.00     0.000 C 
ATOM     18  C   UNL d   1     -41.857-122.140 -51.286  0.00  0.00     0.082 A 
ENDBRANCH   1  12
TORSDOF 3
ENDMDL
MODEL 3
REMARK VINA RESULT:      -3.8      1.393      2.043
REMARK  3 active torsions:
REMARK  status: ('A' for Active; 'I' for Inactive)
REMARK    1  A    between atoms: N_2  and  C_1 
REMARK    2  A    between atoms: N_3  and  C_1 
REMARK       I    between atoms: C_4  and  N_2 
REMARK    3  A    between atoms: C_9  and  C_4 
ROOT
ATOM      1  C   UNL d   1     -41.580-123.043 -53.555  0.00  0.00     0.209 C 
ATOM      2  S   UNL d   1     -41.299-123.816 -53.562  0.00  0.00    -0.038 SA
ENDROOT
BRANCH   1   3
ATOM      3  N   UNL d   1     -41.687-122.658 -52.828  0.00  0.00    -0.180 NA
ATOM      4  C   UNL d   1     -41.459-123.041 -52.132  0.00  0.00     0.281 C 
ATOM      5  O   UNL d   1     -41.128-123.799 -52.156  0.00  0.00    -0.265 OA
BRANCH   4   6
ATOM      6  C   UNL d   1     -41.562-122.664 -51.409  0.00  0.00     0.058 A 
ATOM      7  C   UNL d   1     -42.107-122.960 -50.855  0.00  0.00     0.005 A 
ATOM      8  C   UNL d   1     -42.213-122.586 -50.132  0.00  0.00     0.000 A 
ATOM      9  C   UNL d   1     -41.769-121.905 -49.954  0.00  0.00     0.000 A 
ATOM     10  C   UNL d   1     -41.227-121.609 -50.503  0.00  0.00     0.000 A 
ATOM     11  C   UNL d   1     -41.128-121.992 -51.227  0.00  0.00     0.005 A 
ENDBRANCH   4   6
ENDBRANCH   1   3
BRANCH   1  12
ATOM     12  N   UNL d   1     -41.753-122.657 -54.257  0.00  0.00    -0.281 N 
ATOM     13  C   UNL d   1     -42.531-122.426 -54.417  0.00  0.00     0.082 A 
ATOM     14  C   UNL d   1     -42.703-122.034 -55.131  0.00  0.00     0.019 A 
ATOM     15  C   UNL d   1     -42.102-121.879 -55.673  0.00  0.00     0.003 A 
ATOM     16  C   UNL d   1     -41.332-122.112 -55.509  0.00  0.00     0.019 A 
ATOM     17  C   UNL d   1     -42.272-121.492 -56.377  0.00  0.00     0.000 C 
ATOM     18  C   UNL d   1     -41.155-122.501 -54.801  0.00  0.00     0.082 A 
ENDBRANCH   1  12
TORSDOF 3
ENDMDL
