MODEL 1
REMARK VINA RESULT:      -5.3      0.000      0.000
REMARK  1 active torsions:
REMARK  status: ('A' for Active; 'I' for Inactive)
REMARK    1  A    between atoms: C_13  and  N_5 
ROOT
ATOM      1  C   UNL d   1     -41.547-122.629 -51.550  0.00  0.00     0.170 A 
ATOM      2  C   UNL d   1     -41.365-122.255 -52.232  0.00  0.00     0.093 A 
ATOM      3  C   UNL d   1     -41.376-122.647 -52.927  0.00  0.00     0.172 A 
ATOM      4  N   UNL d   1     -41.572-123.421 -52.936  0.00  0.00    -0.190 N 
ATOM      5  N   UNL d   1     -41.535-122.229 -50.851  0.00  0.00    -0.212 N 
ATOM      6  N   UNL d   1     -41.744-123.407 -51.563  0.00  0.00    -0.205 NA
ATOM      7  N   UNL d   1     -41.193-122.267 -53.609  0.00  0.00    -0.206 NA
ATOM      8  N   UNL d   1     -41.337-121.449 -50.852  0.00  0.00    -0.162 NA
ATOM      9  N   UNL d   1     -41.584-123.816 -53.629  0.00  0.00    -0.143 NA
ATOM     10  C   UNL d   1     -41.754-123.795 -52.256  0.00  0.00     0.203 A 
ATOM     11  C   UNL d   1     -41.156-121.080 -51.531  0.00  0.00     0.127 A 
ATOM     12  C   UNL d   1     -41.402-123.440 -54.303  0.00  0.00     0.184 A 
ATOM     13  C   UNL d   1     -41.354-123.668 -55.135  0.00  0.00     0.044 C 
ENDROOT
BRANCH   5  14
ATOM     14  C   UNL d   1     -41.723-122.617 -50.154  0.00  0.00     0.085 A 
ATOM     15  C   UNL d   1     -42.487-122.615 -49.884  0.00  0.00     0.019 A 
ATOM     16  C   UNL d   1     -42.678-123.009 -49.176  0.00  0.00     0.002 A 
ATOM     17  C   UNL d   1     -43.487-123.015 -48.878  0.00  0.00     0.000 C 
ATOM     18  C   UNL d   1     -42.085-123.404 -48.747  0.00  0.00     0.000 A 
ATOM     19  C   UNL d   1     -41.307-123.396 -49.038  0.00  0.00     0.002 A 
ATOM     20  C   UNL d   1     -42.268-123.813 -48.019  0.00  0.00     0.000 C 
ATOM     21  C   UNL d   1     -41.127-123.006 -49.735  0.00  0.00     0.019 A 
ENDBRANCH   5  14
TORSDOF 1
ENDMDL
MODEL 2
REMARK VINA RESULT:      -4.7      1.053      4.030
REMARK  1 active torsions:
REMARK  status: ('A' for Active; 'I' for Inactive)
REMARK    1  A    between atoms: C_13  and  N_5 
ROOT
ATOM      1  C   UNL d   1     -41.753-122.526 -51.334  0.00  0.00     0.170 A 
ATOM      2  C   UNL d   1     -41.735-122.236 -50.591  0.00  0.00     0.093 A 
ATOM      3  C   UNL d   1     -42.028-122.658 -49.981  0.00  0.00     0.172 A 
ATOM      4  N   UNL d   1     -42.343-123.379 -50.119  0.00  0.00    -0.190 N 
ATOM      5  N   UNL d   1     -41.455-122.096 -51.947  0.00  0.00    -0.212 N 
ATOM      6  N   UNL d   1     -42.069-123.251 -51.471  0.00  0.00    -0.205 NA
ATOM      7  N   UNL d   1     -42.008-122.362 -49.236  0.00  0.00    -0.206 NA
ATOM      8  N   UNL d   1     -41.141-121.371 -51.797  0.00  0.00    -0.162 NA
ATOM      9  N   UNL d   1     -42.637-123.803 -49.513  0.00  0.00    -0.143 NA
ATOM     10  C   UNL d   1     -42.361-123.670 -50.862  0.00  0.00     0.203 A 
ATOM     11  C   UNL d   1     -41.124-121.084 -51.057  0.00  0.00     0.127 A 
ATOM     12  C   UNL d   1     -42.617-123.510 -48.776  0.00  0.00     0.184 A 
ATOM     13  C   UNL d   1     -42.870-123.791 -47.999  0.00  0.00     0.044 C 
ENDROOT
BRANCH   5  14
ATOM     14  C   UNL d   1     -41.476-122.399 -52.708  0.00  0.00     0.085 A 
ATOM     15  C   UNL d   1     -41.842-121.982 -53.299  0.00  0.00     0.019 A 
ATOM     16  C   UNL d   1     -41.863-122.289 -54.072  0.00  0.00     0.002 A 
ATOM     17  C   UNL d   1     -42.248-121.855 -54.710  0.00  0.00     0.000 C 
ATOM     18  C   UNL d   1     -41.510-123.024 -54.237  0.00  0.00     0.000 A 
ATOM     19  C   UNL d   1     -41.140-123.439 -53.620  0.00  0.00     0.002 A 
ATOM     20  C   UNL d   1     -41.525-123.350 -55.027  0.00  0.00     0.000 C 
ATOM     21  C   UNL d   1     -41.123-123.129 -52.862  0.00  0.00     0.019 A 
ENDBRANCH   5  14
TORSDOF 1
ENDMDL
