MODEL 1
REMARK VINA RESULT:      -4.7      0.000      0.000
REMARK  6 active torsions:
REMARK  status: ('A' for Active; 'I' for Inactive)
REMARK    1  A    between atoms: C_10  and  C_3 
REMARK    2  A    between atoms: N_12  and  C_4 
REMARK    3  A    between atoms: N_11  and  C_14 
REMARK    4  A    between atoms: C_19  and  N_12 
REMARK    5  A    between atoms: C_14  and  C_15 
REMARK    6  A    between atoms: C_15  and  C_19 
ROOT
ATOM      1  C   UNL d   1     -41.597-122.509 -53.129  0.00  0.00     0.167 A 
ATOM      2  N   UNL d   1     -41.544-123.089 -52.545  0.00  0.00    -0.195 N 
ATOM      3  C   UNL d   1     -41.749-122.885 -53.843  0.00  0.00     0.057 A 
ATOM      4  C   UNL d   1     -41.393-122.874 -51.764  0.00  0.00     0.167 A 
ATOM      5  N   UNL d   1     -41.664-123.817 -52.902  0.00  0.00    -0.161 NA
ATOM      6  N   UNL d   1     -41.499-121.715 -52.934  0.00  0.00    -0.227 NA
ATOM      7  C   UNL d   1     -41.295-122.074 -51.568  0.00  0.00     0.058 A 
ATOM      8  C   UNL d   1     -41.789-123.696 -53.695  0.00  0.00     0.124 A 
ATOM      9  C   UNL d   1     -41.347-121.501 -52.147  0.00  0.00     0.086 A 
ATOM     10  C   UNL d   1     -41.246-120.710 -51.928  0.00  0.00     0.021 C 
ENDROOT
BRANCH   4  11
ATOM     11  N   UNL d   1     -41.341-123.453 -51.179  0.00  0.00    -0.225 NA
BRANCH  11  12
ATOM     12  C   UNL d   1     -41.123-123.247 -50.412  0.00  0.00     0.102 C 
BRANCH  12  13
ATOM     13  C   UNL d   1     -41.510-123.594 -49.760  0.00  0.00     0.040 C 
BRANCH  13  14
ATOM     14  C   UNL d   1     -41.183-123.528 -49.009  0.00  0.00     0.082 C 
BRANCH  14  15
ATOM     15  N   UNL d   1     -41.674-123.569 -48.342  0.00  0.00    -0.299 N 
ATOM     16  C   UNL d   1     -42.483-123.732 -48.428  0.00  0.00     0.107 A 
ATOM     17  C   UNL d   1     -42.970-123.772 -47.764  0.00  0.00     0.142 A 
ATOM     18  O   UNL d   1     -42.652-123.650 -47.011  0.00  0.00    -0.300 OA
ATOM     19  C   UNL d   1     -41.849-123.489 -46.923  0.00  0.00     0.142 A 
ATOM     20  C   UNL d   1     -41.361-123.448 -47.587  0.00  0.00     0.107 A 
ENDBRANCH  14  15
ENDBRANCH  13  14
ENDBRANCH  12  13
ENDBRANCH  11  12
ENDBRANCH   4  11
BRANCH   3  21
ATOM     21  C   UNL d   1     -41.832-122.447 -54.540  0.00  0.00     0.004 A 
ATOM     22  C   UNL d   1     -42.549-122.099 -54.721  0.00  0.00     0.000 A 
ATOM     23  C   UNL d   1     -42.639-121.664 -55.411  0.00  0.00     0.000 A 
ATOM     24  C   UNL d   1     -41.990-121.580 -55.927  0.00  0.00     0.000 A 
ATOM     25  C   UNL d   1     -41.270-121.935 -55.735  0.00  0.00     0.000 A 
ATOM     26  C   UNL d   1     -41.193-122.364 -55.049  0.00  0.00     0.000 A 
ENDBRANCH   3  21
TORSDOF 6
ENDMDL
MODEL 2
REMARK VINA RESULT:      -2.3      2.066      5.830
REMARK  6 active torsions:
REMARK  status: ('A' for Active; 'I' for Inactive)
REMARK    1  A    between atoms: C_10  and  C_3 
REMARK    2  A    between atoms: N_12  and  C_4 
REMARK    3  A    between atoms: N_11  and  C_14 
REMARK    4  A    between atoms: C_19  and  N_12 
REMARK    5  A    between atoms: C_14  and  C_15 
REMARK    6  A    between atoms: C_15  and  C_19 
ROOT
ATOM      1  C   UNL d   1     -42.156-122.981 -49.602  0.00  0.00     0.167 A 
ATOM      2  N   UNL d   1     -41.723-123.167 -50.279  0.00  0.00    -0.195 N 
ATOM      3  C   UNL d   1     -41.818-123.382 -48.971  0.00  0.00     0.057 A 
ATOM      4  C   UNL d   1     -41.936-122.843 -51.006  0.00  0.00     0.167 A 
ATOM      5  N   UNL d   1     -41.123-123.681 -50.060  0.00  0.00    -0.161 NA
ATOM      6  N   UNL d   1     -42.801-122.471 -49.651  0.00  0.00    -0.227 NA
ATOM      7  C   UNL d   1     -42.585-122.329 -51.054  0.00  0.00     0.058 A 
ATOM      8  C   UNL d   1     -41.178-123.814 -49.262  0.00  0.00     0.124 A 
ATOM      9  C   UNL d   1     -43.013-122.145 -50.384  0.00  0.00     0.086 A 
ATOM     10  C   UNL d   1     -43.656-121.632 -50.455  0.00  0.00     0.021 C 
ENDROOT
BRANCH   4  11
ATOM     11  N   UNL d   1     -41.503-123.029 -51.683  0.00  0.00    -0.225 NA
BRANCH  11  12
ATOM     12  C   UNL d   1     -41.874-123.043 -52.419  0.00  0.00     0.102 C 
BRANCH  12  13
ATOM     13  C   UNL d   1     -41.527-122.653 -53.069  0.00  0.00     0.040 C 
BRANCH  13  14
ATOM     14  C   UNL d   1     -41.576-122.987 -53.818  0.00  0.00     0.082 C 
BRANCH  14  15
ATOM     15  N   UNL d   1     -41.789-122.515 -54.466  0.00  0.00    -0.299 N 
ATOM     16  C   UNL d   1     -42.523-122.129 -54.478  0.00  0.00     0.107 A 
ATOM     17  C   UNL d   1     -42.735-121.660 -55.122  0.00  0.00     0.142 A 
ATOM     18  O   UNL d   1     -42.214-121.574 -55.758  0.00  0.00    -0.300 OA
ATOM     19  C   UNL d   1     -41.484-121.956 -55.749  0.00  0.00     0.142 A 
ATOM     20  C   UNL d   1     -41.272-122.426 -55.105  0.00  0.00     0.107 A 
ENDBRANCH  14  15
ENDBRANCH  13  14
ENDBRANCH  12  13
ENDBRANCH  11  12
ENDBRANCH   4  11
BRANCH   3  21
ATOM     21  C   UNL d   1     -42.131-123.307 -48.208  0.00  0.00     0.004 A 
ATOM     22  C   UNL d   1     -41.826-122.751 -47.694  0.00  0.00     0.000 A 
ATOM     23  C   UNL d   1     -42.131-122.671 -46.936  0.00  0.00     0.000 A 
ATOM     24  C   UNL d   1     -42.759-123.165 -46.696  0.00  0.00     0.000 A 
ATOM     25  C   UNL d   1     -43.061-123.723 -47.223  0.00  0.00     0.000 A 
ATOM     26  C   UNL d   1     -42.750-123.793 -47.971  0.00  0.00     0.000 A 
ENDBRANCH   3  21
TORSDOF 6
ENDMDL
