MODEL 1
REMARK VINA RESULT:      25.4      0.000      0.000
REMARK  4 active torsions:
REMARK  status: ('A' for Active; 'I' for Inactive)
REMARK    1  A    between atoms: C_2  and  C_1 
REMARK    2  A    between atoms: O_6  and  C_3 
REMARK    3  A    between atoms: C_4  and  C_9 
REMARK    4  A    between atoms: C_9  and  O_6 
ROOT
ATOM      1  C   UNL d   1      58.360  49.659  50.230  0.00  0.00     0.000 A 
ATOM      2  C   UNL d   1      58.742  49.670  50.970  0.00  0.00     0.091 A 
ATOM      3  C   UNL d   1      57.518  49.622  50.207  0.00  0.00     0.004 A 
ATOM      4  C   UNL d   1      58.307  49.646  51.670  0.00  0.00     0.024 A 
ATOM      5  C   UNL d   1      57.091  49.598  50.913  0.00  0.00     0.035 A 
ATOM      6  C   UNL d   1      57.485  49.610  51.637  0.00  0.00     0.009 A 
ATOM      7 BR   UNL d   1      56.249  49.561  50.892  0.00  0.00    -0.049 Br
ENDROOT
BRANCH   2   8
ATOM      8  O   UNL d   1      59.575  49.707  50.987  0.00  0.00    -0.320 OA
BRANCH   8   9
ATOM      9  C   UNL d   1      59.994  49.642  51.716  0.00  0.00     0.246 C 
BRANCH   9  10
ATOM     10  C   UNL d   1      60.757  49.328  51.734  0.00  0.00     0.217 C 
ATOM     11  O   UNL d   1      61.140  49.149  51.018  0.00  0.00    -0.645 OA
ATOM     12  O   UNL d   1      61.118  49.201  52.464  0.00  0.00    -0.645 OA
ENDBRANCH   9  10
ENDBRANCH   8   9
ENDBRANCH   2   8
BRANCH   1  13
ATOM     13  C   UNL d   1      58.794  49.682  49.532  0.00  0.00     0.021 C 
ATOM     14  C   UNL d   1      59.230  49.707  48.830  0.00  0.00     0.004 C 
ATOM     15  C   UNL d   1      58.088  49.664  49.093  0.00  0.00     0.004 C 
ATOM     16  C   UNL d   1      59.487  49.700  49.964  0.00  0.00     0.004 C 
ENDBRANCH   1  13
TORSDOF 4
ENDMDL
MODEL 2
REMARK VINA RESULT:      25.6      1.833      2.970
REMARK  4 active torsions:
REMARK  status: ('A' for Active; 'I' for Inactive)
REMARK    1  A    between atoms: C_2  and  C_1 
REMARK    2  A    between atoms: O_6  and  C_3 
REMARK    3  A    between atoms: C_4  and  C_9 
REMARK    4  A    between atoms: C_9  and  O_6 
ROOT
ATOM      1  C   UNL d   1      60.373  49.499  50.866  0.00  0.00     0.000 A 
ATOM      2  C   UNL d   1      59.585  49.611  51.114  0.00  0.00     0.091 A 
ATOM      3  C   UNL d   1      60.983  49.485  51.446  0.00  0.00     0.004 A 
ATOM      4  C   UNL d   1      59.404  49.708  51.913  0.00  0.00     0.024 A 
ATOM      5  C   UNL d   1      60.792  49.583  52.243  0.00  0.00     0.035 A 
ATOM      6  C   UNL d   1      60.008  49.693  52.472  0.00  0.00     0.009 A 
ATOM      7 BR   UNL d   1      61.403  49.569  52.825  0.00  0.00    -0.049 Br
ENDROOT
BRANCH   2   8
ATOM      8  O   UNL d   1      58.984  49.624  50.536  0.00  0.00    -0.320 OA
BRANCH   8   9
ATOM      9  C   UNL d   1      58.175  49.706  50.758  0.00  0.00     0.246 C 
BRANCH   9  10
ATOM     10  C   UNL d   1      57.584  49.305  50.344  0.00  0.00     0.217 C 
ATOM     11  O   UNL d   1      57.210  48.652  50.699  0.00  0.00    -0.645 OA
ATOM     12  O   UNL d   1      57.381  49.565  49.588  0.00  0.00    -0.645 OA
ENDBRANCH   9  10
ENDBRANCH   8   9
ENDBRANCH   2   8
BRANCH   1  13
ATOM     13  C   UNL d   1      60.553  49.402  50.070  0.00  0.00     0.021 C 
ATOM     14  C   UNL d   1      60.735  49.305  49.269  0.00  0.00     0.004 C 
ATOM     15  C   UNL d   1      59.808  49.707  49.864  0.00  0.00     0.004 C 
ATOM     16  C   UNL d   1      61.286  49.103  50.273  0.00  0.00     0.004 C 
ENDBRANCH   1  13
TORSDOF 4
ENDMDL
