MODEL 1
REMARK VINA RESULT:       0.2      0.000      0.000
REMARK  5 active torsions:
REMARK  status: ('A' for Active; 'I' for Inactive)
REMARK    1  A    between atoms: C_13  and  C_4 
REMARK    2  A    between atoms: S_11  and  C_5 
REMARK    3  A    between atoms: C_10  and  C_12 
REMARK    4  A    between atoms: C_15  and  S_11 
REMARK    5  A    between atoms: C_12  and  C_15 
ROOT
ATOM      1  N   UNL d   1      33.037  19.869 -22.702  0.00  0.00    -0.206 N 
ATOM      2  C   UNL d   1      32.851  19.259 -23.233  0.00  0.00     0.166 A 
ATOM      3  N   UNL d   1      33.185  18.931 -21.676  0.00  0.00    -0.163 NA
ATOM      4  C   UNL d   1      32.833  18.489 -22.982  0.00  0.00     0.055 A 
ATOM      5  C   UNL d   1      33.050  20.645 -22.978  0.00  0.00     0.116 A 
ATOM      6  C   UNL d   1      33.000  18.325 -22.203  0.00  0.00     0.104 A 
ATOM      7  N   UNL d   1      32.683  19.442 -24.024  0.00  0.00    -0.227 NA
ATOM      8  C   UNL d   1      32.886  20.825 -23.748  0.00  0.00     0.045 A 
ATOM      9  C   UNL d   1      32.701  20.215 -24.279  0.00  0.00     0.085 A 
ATOM     10  C   UNL d   1      32.984  17.552 -21.944  0.00  0.00     0.023 C 
ATOM     11  C   UNL d   1      32.527  20.397 -25.094  0.00  0.00     0.021 C 
ENDROOT
BRANCH   5  12
ATOM     12  S   UNL d   1      33.241  21.276 -22.433  0.00  0.00    -0.064 SA
BRANCH  12  13
ATOM     13  C   UNL d   1      33.238  21.771 -21.751  0.00  0.00     0.079 C 
BRANCH  13  14
ATOM     14  C   UNL d   1      32.964  22.563 -21.797  0.00  0.00     0.208 C 
ATOM     15  O   UNL d   1      33.066  23.001 -22.510  0.00  0.00    -0.285 OA
BRANCH  14  16
ATOM     16  C   UNL d   1      32.591  22.915 -21.132  0.00  0.00     0.069 A 
ATOM     17  S   UNL d   1      31.954  23.475 -21.145  0.00  0.00    -0.083 SA
ATOM     18  C   UNL d   1      31.761  23.673 -20.341  0.00  0.00     0.035 A 
ATOM     19  C   UNL d   1      32.274  23.238 -19.837  0.00  0.00     0.008 A 
ATOM     20  C   UNL d   1      32.787  22.770 -20.321  0.00  0.00     0.010 A 
ENDBRANCH  14  16
ENDBRANCH  13  14
ENDBRANCH  12  13
ENDBRANCH   5  12
BRANCH   4  21
ATOM     21  C   UNL d   1      32.650  17.886 -23.507  0.00  0.00     0.004 A 
ATOM     22  C   UNL d   1      31.858  17.698 -23.640  0.00  0.00     0.001 A 
ATOM     23  C   UNL d   1      31.675  17.098 -24.162  0.00  0.00     0.011 A 
ATOM     24  C   UNL d   1      32.288  16.697 -24.542  0.00  0.00     0.058 A 
ATOM     25  C   UNL d   1      33.055  16.878 -24.413  0.00  0.00     0.011 A 
ATOM     26 CL   UNL d   1      32.096  16.068 -25.089  0.00  0.00    -0.082 Cl
ATOM     27  C   UNL d   1      33.241  17.488 -23.882  0.00  0.00     0.001 A 
ENDBRANCH   4  21
TORSDOF 5
ENDMDL
MODEL 2
REMARK VINA RESULT:       1.1      2.564      5.094
REMARK  5 active torsions:
REMARK  status: ('A' for Active; 'I' for Inactive)
REMARK    1  A    between atoms: C_13  and  C_4 
REMARK    2  A    between atoms: S_11  and  C_5 
REMARK    3  A    between atoms: C_10  and  C_12 
REMARK    4  A    between atoms: C_15  and  S_11 
REMARK    5  A    between atoms: C_12  and  C_15 
ROOT
ATOM      1  N   UNL d   1      32.981  19.483 -22.756  0.00  0.00    -0.206 N 
ATOM      2  C   UNL d   1      32.812  20.274 -22.574  0.00  0.00     0.166 A 
ATOM      3  N   UNL d   1      33.231  19.226 -21.405  0.00  0.00    -0.163 NA
ATOM      4  C   UNL d   1      32.853  20.536 -21.809  0.00  0.00     0.055 A 
ATOM      5  C   UNL d   1      32.934  19.237 -23.540  0.00  0.00     0.116 A 
ATOM      6  C   UNL d   1      33.063  20.012 -21.224  0.00  0.00     0.104 A 
ATOM      7  N   UNL d   1      32.599  20.798 -23.181  0.00  0.00    -0.227 NA
ATOM      8  C   UNL d   1      32.727  19.746 -24.134  0.00  0.00     0.045 A 
ATOM      9  C   UNL d   1      32.557  20.537 -23.951  0.00  0.00     0.085 A 
ATOM     10  C   UNL d   1      33.106  20.268 -20.451  0.00  0.00     0.023 C 
ATOM     11  C   UNL d   1      32.338  21.080 -24.571  0.00  0.00     0.021 C 
ENDROOT
BRANCH   5  12
ATOM     12  S   UNL d   1      33.108  18.423 -23.732  0.00  0.00    -0.064 SA
BRANCH  12  13
ATOM     13  C   UNL d   1      33.097  17.672 -24.115  0.00  0.00     0.079 C 
BRANCH  13  14
ATOM     14  C   UNL d   1      32.798  16.993 -23.722  0.00  0.00     0.208 C 
ATOM     15  O   UNL d   1      33.241  16.642 -23.098  0.00  0.00    -0.285 OA
BRANCH  14  16
ATOM     16  C   UNL d   1      32.058  16.669 -23.954  0.00  0.00     0.069 A 
ATOM     17  S   UNL d   1      31.810  16.487 -24.745  0.00  0.00    -0.083 SA
ATOM     18  C   UNL d   1      31.022  16.171 -24.706  0.00  0.00     0.035 A 
ATOM     19  C   UNL d   1      30.785  16.159 -23.900  0.00  0.00     0.008 A 
ATOM     20  C   UNL d   1      31.422  16.465 -23.433  0.00  0.00     0.010 A 
ENDBRANCH  14  16
ENDBRANCH  13  14
ENDBRANCH  12  13
ENDBRANCH   5  12
BRANCH   4  21
ATOM     21  C   UNL d   1      32.685  21.318 -21.628  0.00  0.00     0.004 A 
ATOM     22  C   UNL d   1      31.966  21.502 -21.269  0.00  0.00     0.001 A 
ATOM     23  C   UNL d   1      31.799  22.280 -21.090  0.00  0.00     0.011 A 
ATOM     24  C   UNL d   1      32.354  22.862 -21.273  0.00  0.00     0.058 A 
ATOM     25  C   UNL d   1      33.052  22.685 -21.621  0.00  0.00     0.011 A 
ATOM     26 CL   UNL d   1      32.180  23.677 -21.085  0.00  0.00    -0.082 Cl
ATOM     27  C   UNL d   1      33.221  21.894 -21.803  0.00  0.00     0.001 A 
ENDBRANCH   4  21
TORSDOF 5
ENDMDL
