MODEL 1
REMARK VINA RESULT:      24.7      0.000      0.000
REMARK  3 active torsions:
REMARK  status: ('A' for Active; 'I' for Inactive)
REMARK    1  A    between atoms: C_2  and  N_1 
REMARK    2  A    between atoms: C_5  and  C_8 
REMARK       I    between atoms: N_6  and  C_5 
REMARK    3  A    between atoms: C_13  and  N_6 
ROOT
ATOM      1  C   UNL d   1      46.323 -18.509  43.069  0.00  0.00     0.070 A 
ATOM      2  C   UNL d   1      46.177 -17.715  43.255  0.00  0.00     0.022 A 
ATOM      3  C   UNL d   1      46.264 -17.453  44.028  0.00  0.00     0.059 A 
ATOM      4  C   UNL d   1      46.561 -19.049  43.667  0.00  0.00     0.018 A 
ATOM      5  C   UNL d   1      46.494 -17.971  44.619  0.00  0.00     0.005 A 
ATOM      6  C   UNL d   1      46.644 -18.774  44.440  0.00  0.00     0.002 A 
ENDROOT
BRANCH   3   7
ATOM      7  C   UNL d   1      46.119 -16.663  44.217  0.00  0.00     0.279 C 
ATOM      8  N   UNL d   1      45.684 -16.188  43.702  0.00  0.00    -0.208 NA
ATOM      9  O   UNL d   1      46.406 -16.346  44.918  0.00  0.00    -0.265 OA
BRANCH   8  10
ATOM     10  C   UNL d   1      45.537 -15.386  43.894  0.00  0.00     0.085 A 
ATOM     11  C   UNL d   1      46.142 -14.833  43.850  0.00  0.00     0.020 A 
ATOM     12  C   UNL d   1      46.017 -14.034  44.036  0.00  0.00     0.008 A 
ATOM     13  C   UNL d   1      46.510 -13.364  44.043  0.00  0.00     0.007 A 
ATOM     14  C   UNL d   1      45.261 -13.793  44.270  0.00  0.00     0.030 A 
ATOM     15  C   UNL d   1      46.053 -12.732  44.279  0.00  0.00     0.035 A 
ATOM     16  S   UNL d   1      45.291 -12.971  44.422  0.00  0.00    -0.086 SA
ATOM     17  C   UNL d   1      44.636 -14.355  44.317  0.00  0.00     0.008 A 
ATOM     18  C   UNL d   1      44.782 -15.149  44.127  0.00  0.00     0.020 A 
ENDBRANCH   8  10
ENDBRANCH   3   7
BRANCH   1  19
ATOM     19  N   UNL d   1      46.238 -18.779  42.293  0.00  0.00    -0.242 N 
ATOM     20  C   UNL d   1      46.200 -18.340  41.601  0.00  0.00     0.267 A 
ATOM     21  C   UNL d   1      46.115 -18.829  40.959  0.00  0.00     0.066 A 
ATOM     22  O   UNL d   1      46.245 -17.471  41.553  0.00  0.00    -0.267 OA
ATOM     23  C   UNL d   1      46.098 -19.586  41.244  0.00  0.00     0.066 A 
ATOM     24  C   UNL d   1      46.171 -19.552  42.032  0.00  0.00     0.267 A 
ATOM     25  O   UNL d   1      46.177 -20.267  42.547  0.00  0.00    -0.267 OA
ENDBRANCH   1  19
TORSDOF 3
ENDMDL
