MODEL 1
REMARK VINA RESULT:      -4.8      0.000      0.000
REMARK  4 active torsions:
REMARK  status: ('A' for Active; 'I' for Inactive)
REMARK    1  A    between atoms: C_11  and  C_3 
REMARK    2  A    between atoms: N_10  and  C_4 
REMARK    3  A    between atoms: C_12  and  N_10 
REMARK    4  A    between atoms: C_13  and  C_12 
ROOT
ATOM      1  C   UNL d   1     -41.660-122.531 -50.597  0.00  0.00     0.167 A 
ATOM      2  N   UNL d   1     -41.694-122.768 -51.385  0.00  0.00    -0.195 N 
ATOM      3  C   UNL d   1     -41.839-123.180 -50.132  0.00  0.00     0.057 A 
ATOM      4  C   UNL d   1     -41.539-122.227 -51.985  0.00  0.00     0.167 A 
ATOM      5  N   UNL d   1     -41.893-123.561 -51.400  0.00  0.00    -0.161 NA
ATOM      6  N   UNL d   1     -41.471-121.753 -50.408  0.00  0.00    -0.227 NA
ATOM      7  C   UNL d   1     -41.348-121.444 -51.793  0.00  0.00     0.058 A 
ATOM      8  C   UNL d   1     -41.982-123.817 -50.636  0.00  0.00     0.124 A 
ATOM      9  C   UNL d   1     -41.315-121.209 -51.013  0.00  0.00     0.086 A 
ATOM     10  C   UNL d   1     -41.123-120.424 -50.846  0.00  0.00     0.021 C 
ENDROOT
BRANCH   4  11
ATOM     11  N   UNL d   1     -41.573-122.464 -52.774  0.00  0.00    -0.225 NA
BRANCH  11  12
ATOM     12  C   UNL d   1     -41.534-121.903 -53.373  0.00  0.00     0.101 C 
BRANCH  12  13
ATOM     13  C   UNL d   1     -41.748-122.110 -54.151  0.00  0.00     0.019 A 
ATOM     14  C   UNL d   1     -41.352-122.723 -54.544  0.00  0.00     0.002 A 
ATOM     15  C   UNL d   1     -41.562-122.926 -55.308  0.00  0.00     0.000 A 
ATOM     16  C   UNL d   1     -42.172-122.520 -55.695  0.00  0.00     0.000 A 
ATOM     17  C   UNL d   1     -42.565-121.910 -55.303  0.00  0.00     0.000 A 
ATOM     18  C   UNL d   1     -42.353-121.704 -54.530  0.00  0.00     0.002 A 
ENDBRANCH  12  13
ENDBRANCH  11  12
ENDBRANCH   4  11
BRANCH   3  19
ATOM     19  C   UNL d   1     -41.850-123.119 -49.307  0.00  0.00     0.004 A 
ATOM     20  C   UNL d   1     -41.154-123.261 -48.882  0.00  0.00     0.000 A 
ATOM     21  C   UNL d   1     -41.158-123.202 -48.063  0.00  0.00     0.000 A 
ATOM     22  C   UNL d   1     -41.858-123.000 -47.661  0.00  0.00     0.000 A 
ATOM     23  C   UNL d   1     -42.546-122.861 -48.094  0.00  0.00     0.000 A 
ATOM     24  C   UNL d   1     -42.540-122.921 -48.917  0.00  0.00     0.000 A 
ENDBRANCH   3  19
TORSDOF 4
ENDMDL
MODEL 2
REMARK VINA RESULT:      -3.1      0.735      4.862
REMARK  4 active torsions:
REMARK  status: ('A' for Active; 'I' for Inactive)
REMARK    1  A    between atoms: C_11  and  C_3 
REMARK    2  A    between atoms: N_10  and  C_4 
REMARK    3  A    between atoms: C_12  and  N_10 
REMARK    4  A    between atoms: C_13  and  C_12 
ROOT
ATOM      1  C   UNL d   1     -41.630-122.326 -52.710  0.00  0.00     0.167 A 
ATOM      2  N   UNL d   1     -41.610-122.727 -51.990  0.00  0.00    -0.195 N 
ATOM      3  C   UNL d   1     -41.823-122.867 -53.293  0.00  0.00     0.057 A 
ATOM      4  C   UNL d   1     -41.430-122.321 -51.298  0.00  0.00     0.167 A 
ATOM      5  N   UNL d   1     -41.791-123.511 -52.136  0.00  0.00    -0.161 NA
ATOM      6  N   UNL d   1     -41.469-121.520 -52.737  0.00  0.00    -0.227 NA
ATOM      7  C   UNL d   1     -41.268-121.509 -51.327  0.00  0.00     0.058 A 
ATOM      8  C   UNL d   1     -41.922-123.601 -52.930  0.00  0.00     0.124 A 
ATOM      9  C   UNL d   1     -41.288-121.113 -52.039  0.00  0.00     0.086 A 
ATOM     10  C   UNL d   1     -41.123-120.303 -52.044  0.00  0.00     0.021 C 
ENDROOT
BRANCH   4  11
ATOM     11  N   UNL d   1     -41.410-122.722 -50.578  0.00  0.00    -0.225 NA
BRANCH  11  12
ATOM     12  C   UNL d   1     -41.488-122.306 -49.873  0.00  0.00     0.101 C 
BRANCH  12  13
ATOM     13  C   UNL d   1     -41.741-122.698 -49.184  0.00  0.00     0.019 A 
ATOM     14  C   UNL d   1     -41.283-123.307 -48.858  0.00  0.00     0.002 A 
ATOM     15  C   UNL d   1     -41.532-123.692 -48.180  0.00  0.00     0.000 A 
ATOM     16  C   UNL d   1     -42.244-123.476 -47.815  0.00  0.00     0.000 A 
ATOM     17  C   UNL d   1     -42.699-122.870 -48.141  0.00  0.00     0.000 A 
ATOM     18  C   UNL d   1     -42.447-122.480 -48.826  0.00  0.00     0.002 A 
ENDBRANCH  12  13
ENDBRANCH  11  12
ENDBRANCH   4  11
BRANCH   3  19
ATOM     19  C   UNL d   1     -41.886-122.632 -54.083  0.00  0.00     0.004 A 
ATOM     20  C   UNL d   1     -42.632-122.446 -54.391  0.00  0.00     0.000 A 
ATOM     21  C   UNL d   1     -42.702-122.212 -55.175  0.00  0.00     0.000 A 
ATOM     22  C   UNL d   1     -42.027-122.160 -55.658  0.00  0.00     0.000 A 
ATOM     23  C   UNL d   1     -41.289-122.347 -55.343  0.00  0.00     0.000 A 
ATOM     24  C   UNL d   1     -41.221-122.582 -54.554  0.00  0.00     0.000 A 
ENDBRANCH   3  19
TORSDOF 4
ENDMDL
