MODEL 1
REMARK VINA RESULT:      -2.3      0.000      0.000
REMARK  5 active torsions:
REMARK  status: ('A' for Active; 'I' for Inactive)
REMARK    1  A    between atoms: O_4  and  C_1 
REMARK    2  A    between atoms: C_9  and  C_2 
REMARK    3  A    between atoms: C_5  and  O_4 
REMARK    4  A    between atoms: C_12  and  C_5 
REMARK    5  A    between atoms: N_10  and  C_9 
ROOT
ATOM      1  C   UNL d   1      58.468  -0.793  30.272  0.00  0.00     0.122 A 
ATOM      2  C   UNL d   1      59.030  -0.193  30.213  0.00  0.00     0.043 A 
ATOM      3  C   UNL d   1      58.496  -1.436  29.757  0.00  0.00     0.105 A 
ATOM      4  C   UNL d   1      59.085  -1.479  29.182  0.00  0.00     0.030 A 
ATOM      5  C   UNL d   1      59.641  -0.878  29.130  0.00  0.00     0.059 A 
ATOM      6  C   UNL d   1      59.620  -0.236  29.639  0.00  0.00     0.015 A 
ATOM      7  N   UNL d   1      57.936  -2.030  29.819  0.00  0.00    -0.242 NA
ATOM      8 CL   UNL d   1      60.229  -0.943  28.540  0.00  0.00    -0.082 Cl
ATOM      9  C   UNL d   1      59.110  -2.115  28.676  0.00  0.00     0.004 A 
ATOM     10  C   UNL d   1      57.964  -2.673  29.303  0.00  0.00     0.099 A 
ATOM     11  C   UNL d   1      58.554  -2.715  28.729  0.00  0.00     0.021 A 
ENDROOT
BRANCH   1  12
ATOM     12  O   UNL d   1      57.929  -0.764  30.789  0.00  0.00    -0.271 OA
BRANCH  12  13
ATOM     13  C   UNL d   1      57.134  -0.268  31.014  0.00  0.00     0.300 C 
ATOM     14  O   UNL d   1      56.851   0.393  30.313  0.00  0.00    -0.259 OA
BRANCH  13  15
ATOM     15  C   UNL d   1      56.738  -0.392  31.726  0.00  0.00     0.064 A 
ATOM     16  C   UNL d   1      56.400   0.252  32.129  0.00  0.00     0.008 A 
ATOM     17  C   UNL d   1      56.000   0.123  32.849  0.00  0.00     0.030 A 
ATOM     18  C   UNL d   1      55.937  -0.647  33.167  0.00  0.00     0.140 A 
ATOM     19  C   UNL d   1      56.276  -1.287  32.761  0.00  0.00     0.030 A 
ATOM     20  F   UNL d   1      55.644  -0.727  33.691  0.00  0.00    -0.204 F 
ATOM     21  C   UNL d   1      56.676  -1.157  32.042  0.00  0.00     0.008 A 
ENDBRANCH  13  15
ENDBRANCH  12  13
ENDBRANCH   1  12
BRANCH   2  22
ATOM     22  C   UNL d   1      59.159   0.577  30.681  0.00  0.00     0.082 C 
BRANCH  22  23
ATOM     23  N   UNL d   1      59.755   0.611  31.245  0.00  0.00    -0.299 N 
ATOM     24  C   UNL d   1      59.561   0.646  32.037  0.00  0.00     0.107 A 
ATOM     25  C   UNL d   1      60.151   0.682  32.616  0.00  0.00     0.142 A 
ATOM     26  O   UNL d   1      60.933   0.681  32.385  0.00  0.00    -0.300 OA
ATOM     27  C   UNL d   1      61.133   0.646  31.581  0.00  0.00     0.142 A 
ATOM     28  C   UNL d   1      60.536   0.611  31.020  0.00  0.00     0.107 A 
ENDBRANCH  22  23
ENDBRANCH   2  22
TORSDOF 5
ENDMDL
