MODEL 1
REMARK VINA RESULT:      70.1      0.000      0.000
REMARK  6 active torsions:
REMARK  status: ('A' for Active; 'I' for Inactive)
REMARK    1  A    between atoms: N_2  and  S_1 
REMARK    2  A    between atoms: C_7  and  S_1 
REMARK    3  A    between atoms: C_3  and  N_2 
REMARK    4  A    between atoms: C_4  and  C_3 
REMARK    5  A    between atoms: N_5  and  C_4 
REMARK    6  A    between atoms: C_6  and  C_4 
ROOT
ATOM      1  C   UNL d   1     -51.330  25.742  34.003  0.00  0.00     0.110 C 
ATOM      2  C   UNL d   1     -51.436  26.316  33.419  0.00  0.00     0.023 C 
ENDROOT
BRANCH   1   3
ATOM      3  N   UNL d   1     -51.257  25.964  34.787  0.00  0.00    -0.157 NA
BRANCH   3   4
ATOM      4  S   UNL d   1     -51.164  26.754  34.995  0.00  0.00     0.285 S 
ATOM      5  O   UNL d   1     -51.093  27.531  34.720  0.00  0.00    -0.198 OA
ATOM      6  O   UNL d   1     -51.183  26.912  34.180  0.00  0.00    -0.198 OA
BRANCH   4   7
ATOM      7  C   UNL d   1     -51.136  26.669  35.810  0.00  0.00     0.105 A 
ATOM      8  C   UNL d   1     -51.745  26.256  36.202  0.00  0.00     0.013 A 
ATOM      9  C   UNL d   1     -51.713  26.172  37.025  0.00  0.00     0.007 A 
ATOM     10  C   UNL d   1     -51.088  26.492  37.453  0.00  0.00     0.035 A 
ATOM     11  C   UNL d   1     -50.485  26.901  37.066  0.00  0.00     0.007 A 
ATOM     12 BR   UNL d   1     -51.062  26.404  38.281  0.00  0.00    -0.049 Br
ATOM     13  C   UNL d   1     -50.511  26.989  36.239  0.00  0.00     0.013 A 
ENDBRANCH   4   7
ENDBRANCH   3   4
ENDBRANCH   1   3
BRANCH   1  14
ATOM     14  C   UNL d   1     -51.297  24.947  33.796  0.00  0.00     0.089 C 
BRANCH  14  15
ATOM     15  N   UNL d   1     -51.988  24.511  33.724  0.00  0.00    -0.300 N 
ATOM     16  C   UNL d   1     -52.018  23.732  33.995  0.00  0.00     0.100 A 
ATOM     17  C   UNL d   1     -52.716  23.294  33.922  0.00  0.00     0.100 A 
ATOM     18  N   UNL d   1     -53.383  23.630  33.580  0.00  0.00    -0.299 N 
ATOM     19  C   UNL d   1     -53.355  24.413  33.307  0.00  0.00     0.100 A 
ATOM     20  C   UNL d   1     -54.082  23.188  33.508  0.00  0.00     0.100 C 
ATOM     21  C   UNL d   1     -52.663  24.848  33.379  0.00  0.00     0.100 A 
ENDBRANCH  14  15
BRANCH  14  22
ATOM     22  C   UNL d   1     -50.568  24.589  33.660  0.00  0.00     0.047 A 
ATOM     23  S   UNL d   1     -50.378  23.795  33.806  0.00  0.00    -0.085 SA
ATOM     24  C   UNL d   1     -49.589  23.682  33.587  0.00  0.00     0.035 A 
ATOM     25  C   UNL d   1     -49.286  24.389  33.309  0.00  0.00     0.007 A 
ATOM     26  C   UNL d   1     -49.894  24.956  33.353  0.00  0.00     0.009 A 
ENDBRANCH  14  22
ENDBRANCH   1  14
TORSDOF 6
ENDMDL
