MODEL 1
REMARK VINA RESULT:      -3.5      0.000      0.000
REMARK  6 active torsions:
REMARK  status: ('A' for Active; 'I' for Inactive)
REMARK    1  A    between atoms: C_9  and  C_3 
REMARK    2  A    between atoms: C_4  and  C_18 
REMARK       I    between atoms: N_7  and  C_4 
REMARK    3  A    between atoms: S_11  and  C_5 
REMARK       I    between atoms: C_6  and  N_8 
REMARK    4  A    between atoms: C_12  and  N_7 
REMARK    5  A    between atoms: N_8  and  C_13 
REMARK    6  A    between atoms: C_18  and  S_11 
ROOT
ATOM      1  C   UNL d   1     -41.854-122.297 -51.797  0.00  0.00     0.099 C 
ENDROOT
BRANCH   1   2
ATOM      2  C   UNL d   1     -41.647-122.336 -52.592  0.00  0.00     0.286 C 
ATOM      3  N   UNL d   1     -41.790-123.025 -53.023  0.00  0.00    -0.207 NA
ATOM      4  O   UNL d   1     -41.294-121.687 -52.960  0.00  0.00    -0.265 OA
BRANCH   3   5
ATOM      5  C   UNL d   1     -41.582-123.065 -53.823  0.00  0.00     0.086 A 
ATOM      6  C   UNL d   1     -41.631-122.390 -54.288  0.00  0.00     0.038 A 
ATOM      7  C   UNL d   1     -41.422-122.430 -55.086  0.00  0.00     0.086 A 
ATOM      8  C   UNL d   1     -41.167-123.147 -55.407  0.00  0.00     0.019 A 
ATOM      9  C   UNL d   1     -41.123-123.817 -54.927  0.00  0.00     0.003 A 
ATOM     10  C   UNL d   1     -41.328-123.778 -54.140  0.00  0.00     0.019 A 
BRANCH   7  11
ATOM     11  N   UNL d   1     -41.469-121.756 -55.560  0.00  0.00    -0.208 NA
ATOM     12  C   UNL d   1     -42.146-121.603 -55.998  0.00  0.00     0.279 C 
ATOM     13  O   UNL d   1     -42.790-122.134 -55.960  0.00  0.00    -0.265 OA
ATOM     14  C   UNL d   1     -42.200-120.934 -56.471  0.00  0.00     0.068 C 
ENDBRANCH   7  11
ENDBRANCH   3   5
ENDBRANCH   1   2
BRANCH   1  15
ATOM     15  S   UNL d   1     -41.293-122.466 -51.223  0.00  0.00    -0.061 SA
BRANCH  15  16
ATOM     16  C   UNL d   1     -41.526-122.693 -50.465  0.00  0.00     0.133 A 
ATOM     17  N   UNL d   1     -41.127-123.286 -50.066  0.00  0.00    -0.141 NA
ATOM     18  N   UNL d   1     -41.360-123.513 -49.308  0.00  0.00    -0.148 NA
ATOM     19  C   UNL d   1     -42.004-123.140 -48.943  0.00  0.00     0.104 A 
ATOM     20  C   UNL d   1     -42.409-122.541 -49.343  0.00  0.00     0.023 A 
ATOM     21  C   UNL d   1     -42.174-122.317 -50.099  0.00  0.00     0.029 A 
BRANCH  19  22
ATOM     22  C   UNL d   1     -42.237-123.367 -48.185  0.00  0.00     0.039 A 
ATOM     23  C   UNL d   1     -43.015-123.561 -48.043  0.00  0.00     0.101 A 
ATOM     24  N   UNL d   1     -43.251-123.787 -47.293  0.00  0.00    -0.242 NA
ATOM     25  C   UNL d   1     -42.693-123.817 -46.676  0.00  0.00     0.099 A 
ATOM     26  C   UNL d   1     -41.913-123.621 -46.822  0.00  0.00     0.021 A 
ATOM     27  C   UNL d   1     -41.670-123.392 -47.578  0.00  0.00     0.005 A 
ENDBRANCH  19  22
ENDBRANCH  15  16
ENDBRANCH   1  15
TORSDOF 6
ENDMDL
