MODEL 1
REMARK VINA RESULT:      63.2      0.000      0.000
REMARK  4 active torsions:
REMARK  status: ('A' for Active; 'I' for Inactive)
REMARK    1  A    between atoms: C_8  and  C_1 
REMARK    2  A    between atoms: C_6  and  C_2 
REMARK    3  A    between atoms: O_17  and  C_8 
REMARK    4  A    between atoms: C_20  and  O_17 
ROOT
ATOM      1  C   UNL d   1     -51.695  25.640  33.823  0.00  0.00     0.099 A 
ATOM      2  C   UNL d   1     -51.476  26.420  33.787  0.00  0.00     0.093 A 
ATOM      3  C   UNL d   1     -52.479  25.422  33.688  0.00  0.00     0.093 A 
ATOM      4  C   UNL d   1     -52.803  26.792  33.484  0.00  0.00     0.369 A 
ATOM      5  N   UNL d   1     -53.029  25.999  33.519  0.00  0.00    -0.191 NA
ATOM      6  N   UNL d   1     -52.033  26.995  33.617  0.00  0.00    -0.191 NA
ATOM      7  O   UNL d   1     -53.359  27.393  33.311  0.00  0.00    -0.242 OA
ATOM      8  C   UNL d   1     -52.713  24.617  33.723  0.00  0.00     0.021 C 
ENDROOT
BRANCH   2   9
ATOM      9  C   UNL d   1     -50.504  26.733  33.950  0.00  0.00     0.029 A 
ATOM     10  C   UNL d   1     -50.331  26.904  34.726  0.00  0.00     0.060 A 
ATOM     11  C   UNL d   1     -49.527  27.162  34.855  0.00  0.00     0.023 A 
ATOM     12 CL   UNL d   1     -50.824  26.852  35.331  0.00  0.00    -0.082 Cl
ATOM     13  C   UNL d   1     -49.007  27.214  34.199  0.00  0.00     0.059 A 
ATOM     14  C   UNL d   1     -49.254  27.026  33.456  0.00  0.00     0.011 A 
ATOM     15 CL   UNL d   1     -48.219  27.465  34.312  0.00  0.00    -0.082 Cl
ATOM     16  C   UNL d   1     -50.035  26.774  33.316  0.00  0.00     0.003 A 
ENDBRANCH   2   9
BRANCH   1  17
ATOM     17  C   UNL d   1     -51.119  25.074  33.996  0.00  0.00     0.303 C 
ATOM     18  O   UNL d   1     -50.865  24.934  34.758  0.00  0.00    -0.259 OA
BRANCH  17  19
ATOM     19  O   UNL d   1     -50.771  24.613  33.368  0.00  0.00    -0.271 OA
BRANCH  19  20
ATOM     20  C   UNL d   1     -50.277  23.957  33.577  0.00  0.00     0.126 C 
ATOM     21  C   UNL d   1     -50.461  23.200  33.307  0.00  0.00     0.029 C 
ENDBRANCH  19  20
ENDBRANCH  17  19
ENDBRANCH   1  17
TORSDOF 4
ENDMDL
MODEL 2
REMARK VINA RESULT:      65.4      5.035      6.433
REMARK  4 active torsions:
REMARK  status: ('A' for Active; 'I' for Inactive)
REMARK    1  A    between atoms: C_8  and  C_1 
REMARK    2  A    between atoms: C_6  and  C_2 
REMARK    3  A    between atoms: O_17  and  C_8 
REMARK    4  A    between atoms: C_20  and  O_17 
ROOT
ATOM      1  C   UNL d   1     -47.765  30.223  35.170  0.00  0.00     0.099 A 
ATOM      2  C   UNL d   1     -47.537  30.976  35.366  0.00  0.00     0.093 A 
ATOM      3  C   UNL d   1     -47.608  29.596  35.682  0.00  0.00     0.093 A 
ATOM      4  C   UNL d   1     -46.993  30.510  36.582  0.00  0.00     0.369 A 
ATOM      5  N   UNL d   1     -47.223  29.742  36.386  0.00  0.00    -0.191 NA
ATOM      6  N   UNL d   1     -47.150  31.116  36.073  0.00  0.00    -0.191 NA
ATOM      7  O   UNL d   1     -46.597  30.672  37.300  0.00  0.00    -0.242 OA
ATOM      8  C   UNL d   1     -47.841  28.814  35.487  0.00  0.00     0.021 C 
ENDROOT
BRANCH   2   9
ATOM      9  C   UNL d   1     -47.714  31.788  34.751  0.00  0.00     0.029 A 
ATOM     10  C   UNL d   1     -47.067  32.266  34.631  0.00  0.00     0.060 A 
ATOM     11  C   UNL d   1     -47.219  32.935  34.122  0.00  0.00     0.023 A 
ATOM     12 CL   UNL d   1     -46.354  32.162  34.932  0.00  0.00    -0.082 Cl
ATOM     13  C   UNL d   1     -47.988  33.038  33.804  0.00  0.00     0.059 A 
ATOM     14  C   UNL d   1     -48.580  32.518  33.971  0.00  0.00     0.011 A 
ATOM     15 CL   UNL d   1     -48.150  33.688  33.306  0.00  0.00    -0.082 Cl
ATOM     16  C   UNL d   1     -48.446  31.862  34.465  0.00  0.00     0.003 A 
ENDBRANCH   2   9
BRANCH   1  17
ATOM     17  C   UNL d   1     -48.153  30.099  34.453  0.00  0.00     0.303 C 
ATOM     18  O   UNL d   1     -47.766  30.152  33.736  0.00  0.00    -0.259 OA
BRANCH  17  19
ATOM     19  O   UNL d   1     -48.985  29.910  34.444  0.00  0.00    -0.271 OA
BRANCH  19  20
ATOM     20  C   UNL d   1     -49.276  29.403  33.831  0.00  0.00     0.126 C 
ATOM     21  C   UNL d   1     -50.084  29.372  33.672  0.00  0.00     0.029 C 
ENDBRANCH  19  20
ENDBRANCH  17  19
ENDBRANCH   1  17
TORSDOF 4
ENDMDL
