MODEL 1
REMARK VINA RESULT:      52.6      0.000      0.000
REMARK  3 active torsions:
REMARK  status: ('A' for Active; 'I' for Inactive)
REMARK    1  A    between atoms: C_7  and  C_1 
REMARK    2  A    between atoms: C_6  and  C_2 
REMARK    3  A    between atoms: C_3  and  C_6 
REMARK       I    between atoms: N_4  and  C_3 
ROOT
ATOM      1  C   UNL d   1     -59.126 -98.818 -44.284  0.00  0.00     0.038 A 
ATOM      2  C   UNL d   1     -57.774 -98.780 -44.158  0.00  0.00     0.043 A 
ATOM      3  C   UNL d   1     -58.436 -98.801 -44.730  0.00  0.00     0.016 A 
ATOM      4  C   UNL d   1     -59.956 -98.842 -44.351  0.00  0.00    -0.023 A 
ATOM      5  C   UNL d   1     -58.963 -98.810 -43.449  0.00  0.00     0.013 A 
ATOM      6  C   UNL d   1     -59.188 -98.818 -43.800  0.00  0.00    -0.012 A 
ATOM      7  C   UNL d   1     -58.280 -98.788 -42.897  0.00  0.00     0.023 A 
ATOM      8  C   UNL d   1     -57.603 -98.771 -43.349  0.00  0.00     0.013 A 
ATOM      9  C   UNL d   1     -58.547 -98.802 -44.198  0.00  0.00    -0.023 A 
ATOM     10  C   UNL d   1     -59.043 -98.810 -43.015  0.00  0.00    -0.027 A 
ENDROOT
BRANCH   2  11
ATOM     11  C   UNL d   1     -56.963 -98.758 -44.317  0.00  0.00     0.038 C 
BRANCH  11  12
ATOM     12  C   UNL d   1     -56.490 -99.409 -44.140  0.00  0.00     0.261 C 
ATOM     13  N   UNL d   1     -55.905 -99.649 -44.673  0.00  0.00    -0.268 N 
ATOM     14  C   UNL d   1     -55.431-100.301 -44.496  0.00  0.00     0.110 A 
ATOM     15  C   UNL d   1     -55.798 -99.232 -45.383  0.00  0.00     0.110 A 
ATOM     16  C   UNL d   1     -54.848-100.542 -45.025  0.00  0.00     0.142 A 
ATOM     17  O   UNL d   1     -54.734-100.134 -45.735  0.00  0.00    -0.300 OA
ATOM     18  C   UNL d   1     -55.207 -99.482 -45.912  0.00  0.00     0.142 A 
ATOM     19  O   UNL d   1     -56.601 -99.819 -43.433  0.00  0.00    -0.267 OA
ENDBRANCH  11  12
ENDBRANCH   2  11
BRANCH   1  20
ATOM     20  C   UNL d   1     -59.164 -98.823 -45.111  0.00  0.00    -0.019 A 
ATOM     21  C   UNL d   1     -59.897 -98.761 -45.478  0.00  0.00    -0.004 A 
ATOM     22  C   UNL d   1     -59.943 -98.765 -46.298  0.00  0.00    -0.000 A 
ATOM     23  C   UNL d   1     -59.264 -98.830 -46.746  0.00  0.00    -0.000 A 
ATOM     24  C   UNL d   1     -58.522 -98.893 -46.373  0.00  0.00    -0.000 A 
ATOM     25  C   UNL d   1     -59.298 -98.836 -47.573  0.00  0.00    -0.000 C 
ATOM     26  C   UNL d   1     -58.484 -98.889 -45.550  0.00  0.00    -0.004 A 
ENDBRANCH   1  20
TORSDOF 3
ENDMDL
