MODEL 1
REMARK VINA RESULT:      82.9      0.000      0.000
REMARK  3 active torsions:
REMARK  status: ('A' for Active; 'I' for Inactive)
REMARK    1  A    between atoms: C_6  and  C_1 
REMARK    2  A    between atoms: N_7  and  C_2 
REMARK    3  A    between atoms: C_9  and  C_5 
REMARK       I    between atoms: N_8  and  C_6 
ROOT
ATOM      1  C   UNL d   1     -51.553  26.041  35.014  0.00  0.00     0.106 A 
ATOM      2  C   UNL d   1     -52.397  25.098  34.370  0.00  0.00     0.180 A 
ATOM      3  N   UNL d   1     -51.997  25.500  33.793  0.00  0.00    -0.222 NA
ATOM      4  S   UNL d   1     -52.154  25.396  35.086  0.00  0.00    -0.044 SA
ATOM      5  C   UNL d   1     -51.513  26.040  34.143  0.00  0.00     0.094 A 
ENDROOT
BRANCH   1   6
ATOM      6  C   UNL d   1     -51.241  26.412  35.685  0.00  0.00     0.272 C 
ATOM      7  N   UNL d   1     -51.589  26.288  36.433  0.00  0.00    -0.272 N 
ATOM      8  C   UNL d   1     -52.175  25.928  36.907  0.00  0.00     0.083 A 
ATOM      9  C   UNL d   1     -51.027  26.787  36.771  0.00  0.00     0.083 A 
ATOM     10  C   UNL d   1     -52.193  26.070  37.719  0.00  0.00     0.019 A 
ATOM     11  C   UNL d   1     -51.627  26.575  38.068  0.00  0.00     0.003 A 
ATOM     12  C   UNL d   1     -51.046  26.932  37.594  0.00  0.00     0.019 A 
ATOM     13  O   UNL d   1     -50.583  26.908  35.624  0.00  0.00    -0.266 OA
ENDBRANCH   1   6
BRANCH   5  14
ATOM     14  C   UNL d   1     -50.985  26.596  33.861  0.00  0.00     0.018 A 
ATOM     15  C   UNL d   1     -50.202  26.438  33.824  0.00  0.00     0.002 A 
ATOM     16  C   UNL d   1     -49.693  26.978  33.550  0.00  0.00     0.000 A 
ATOM     17  C   UNL d   1     -49.957  27.693  33.307  0.00  0.00     0.000 A 
ATOM     18  C   UNL d   1     -50.742  27.871  33.337  0.00  0.00     0.000 A 
ATOM     19  C   UNL d   1     -51.249  27.316  33.616  0.00  0.00     0.002 A 
ENDBRANCH   5  14
BRANCH   2  20
ATOM     20  N   UNL d   1     -52.880  24.559  34.043  0.00  0.00    -0.280 N 
ATOM     21  C   UNL d   1     -53.566  24.801  33.644  0.00  0.00     0.109 A 
ATOM     22  C   UNL d   1     -54.066  24.245  33.306  0.00  0.00     0.142 A 
ATOM     23  O   UNL d   1     -53.886  23.439  33.363  0.00  0.00    -0.300 OA
ATOM     24  C   UNL d   1     -53.199  23.189  33.762  0.00  0.00     0.142 A 
ATOM     25  C   UNL d   1     -52.696  23.749  34.102  0.00  0.00     0.109 A 
ENDBRANCH   2  20
TORSDOF 3
ENDMDL
