MODEL 1
REMARK VINA RESULT:      -6.3      0.000      0.000
REMARK  3 active torsions:
REMARK  status: ('A' for Active; 'I' for Inactive)
REMARK    1  A    between atoms: C_5  and  C_1 
REMARK    2  A    between atoms: C_4  and  C_6 
REMARK    3  A    between atoms: C_6  and  C_5 
ROOT
ATOM      1  C   UNL d   1      57.260   0.459  31.148  0.00  0.00     0.068 C 
ENDROOT
BRANCH   1   2
ATOM      2  C   UNL d   1      57.862   0.384  30.583  0.00  0.00     0.114 A 
ATOM      3  N   UNL d   1      57.760   0.168  29.791  0.00  0.00    -0.238 NA
ATOM      4  C   UNL d   1      58.506   0.164  29.434  0.00  0.00     0.088 A 
ATOM      5  C   UNL d   1      58.746  -0.007  28.663  0.00  0.00     0.020 A 
ATOM      6  C   UNL d   1      59.068   0.377  30.000  0.00  0.00     0.049 A 
ATOM      7  C   UNL d   1      59.545   0.035  28.458  0.00  0.00     0.002 A 
ATOM      8  C   UNL d   1      60.099   0.248  29.030  0.00  0.00     0.001 A 
ATOM      9  C   UNL d   1      59.860   0.418  29.797  0.00  0.00     0.008 A 
ATOM     10  S   UNL d   1      58.665   0.513  30.714  0.00  0.00    -0.066 SA
ENDBRANCH   1   2
BRANCH   1  11
ATOM     11  C   UNL d   1      56.957  -0.221  31.515  0.00  0.00     0.201 C 
ATOM     12  O   UNL d   1      57.165  -0.974  31.242  0.00  0.00    -0.286 OA
BRANCH  11  13
ATOM     13  C   UNL d   1      56.440  -0.143  32.162  0.00  0.00     0.078 A 
ATOM     14  C   UNL d   1      56.157  -0.825  32.552  0.00  0.00     0.202 A 
ATOM     15  C   UNL d   1      55.644  -0.751  33.194  0.00  0.00     0.084 A 
ATOM     16  O   UNL d   1      56.391  -1.574  32.296  0.00  0.00    -0.286 OA
ATOM     17  C   UNL d   1      55.414   0.005  33.445  0.00  0.00     0.199 A 
ATOM     18  C   UNL d   1      55.693   0.680  33.059  0.00  0.00     0.042 A 
ATOM     19  O   UNL d   1      54.900   0.078  34.087  0.00  0.00    -0.286 OA
ATOM     20  C   UNL d   1      56.207   0.606  32.417  0.00  0.00     0.010 A 
ENDBRANCH  11  13
ENDBRANCH   1  11
TORSDOF 3
ENDMDL
MODEL 2
REMARK VINA RESULT:      -5.5      1.541      4.535
REMARK  3 active torsions:
REMARK  status: ('A' for Active; 'I' for Inactive)
REMARK    1  A    between atoms: C_5  and  C_1 
REMARK    2  A    between atoms: C_4  and  C_6 
REMARK    3  A    between atoms: C_6  and  C_5 
ROOT
ATOM      1  C   UNL d   1      58.007   0.352  31.390  0.00  0.00     0.068 C 
ENDROOT
BRANCH   1   2
ATOM      2  C   UNL d   1      57.356   0.153  31.865  0.00  0.00     0.114 A 
ATOM      3  N   UNL d   1      57.049  -0.606  31.976  0.00  0.00    -0.238 NA
ATOM      4  C   UNL d   1      56.404  -0.544  32.490  0.00  0.00     0.088 A 
ATOM      5  C   UNL d   1      55.889  -1.112  32.796  0.00  0.00     0.020 A 
ATOM      6  C   UNL d   1      56.311   0.249  32.698  0.00  0.00     0.049 A 
ATOM      7  C   UNL d   1      55.282  -0.887  33.308  0.00  0.00     0.002 A 
ATOM      8  C   UNL d   1      55.196  -0.092  33.510  0.00  0.00     0.001 A 
ATOM      9  C   UNL d   1      55.709   0.472  33.205  0.00  0.00     0.008 A 
ATOM     10  S   UNL d   1      56.904   0.681  32.308  0.00  0.00    -0.066 SA
ENDBRANCH   1   2
BRANCH   1  11
ATOM     11  C   UNL d   1      57.895   0.486  30.580  0.00  0.00     0.201 C 
ATOM     12  O   UNL d   1      57.139   0.635  30.278  0.00  0.00    -0.286 OA
BRANCH  11  13
ATOM     13  C   UNL d   1      58.550   0.471  30.066  0.00  0.00     0.078 A 
ATOM     14  C   UNL d   1      58.431   0.395  29.243  0.00  0.00     0.202 A 
ATOM     15  C   UNL d   1      59.078   0.379  28.732  0.00  0.00     0.084 A 
ATOM     16  O   UNL d   1      57.666   0.335  28.940  0.00  0.00    -0.286 OA
ATOM     17  C   UNL d   1      59.844   0.440  29.044  0.00  0.00     0.199 A 
ATOM     18  C   UNL d   1      59.962   0.515  29.858  0.00  0.00     0.042 A 
ATOM     19  O   UNL d   1      60.491   0.424  28.532  0.00  0.00    -0.286 OA
ATOM     20  C   UNL d   1      59.315   0.531  30.370  0.00  0.00     0.010 A 
ENDBRANCH  11  13
ENDBRANCH   1  11
TORSDOF 3
ENDMDL
MODEL 3
REMARK VINA RESULT:      -5.0      1.500      4.464
REMARK  3 active torsions:
REMARK  status: ('A' for Active; 'I' for Inactive)
REMARK    1  A    between atoms: C_5  and  C_1 
REMARK    2  A    between atoms: C_4  and  C_6 
REMARK    3  A    between atoms: C_6  and  C_5 
ROOT
ATOM      1  C   UNL d   1      57.210   0.632  31.703  0.00  0.00     0.068 C 
ENDROOT
BRANCH   1   2
ATOM      2  C   UNL d   1      56.720   0.637  32.372  0.00  0.00     0.114 A 
ATOM      3  N   UNL d   1      55.893   0.643  32.368  0.00  0.00    -0.238 NA
ATOM      4  C   UNL d   1      55.638   0.646  33.155  0.00  0.00     0.088 A 
ATOM      5  C   UNL d   1      54.883   0.653  33.488  0.00  0.00     0.020 A 
ATOM      6  C   UNL d   1      56.302   0.642  33.645  0.00  0.00     0.049 A 
ATOM      7  C   UNL d   1      54.792   0.655  34.308  0.00  0.00     0.002 A 
ATOM      8  C   UNL d   1      55.461   0.651  34.790  0.00  0.00     0.001 A 
ATOM      9  C   UNL d   1      56.212   0.644  34.458  0.00  0.00     0.008 A 
ATOM     10  S   UNL d   1      56.974   0.636  33.156  0.00  0.00    -0.066 SA
ENDBRANCH   1   2
BRANCH   1  11
ATOM     11  C   UNL d   1      57.277  -0.060  31.251  0.00  0.00     0.201 C 
ATOM     12  O   UNL d   1      56.849  -0.738  31.453  0.00  0.00    -0.286 OA
BRANCH  11  13
ATOM     13  C   UNL d   1      57.780  -0.071  30.588  0.00  0.00     0.078 A 
ATOM     14  C   UNL d   1      57.995  -0.800  30.242  0.00  0.00     0.202 A 
ATOM     15  C   UNL d   1      58.494  -0.814  29.585  0.00  0.00     0.084 A 
ATOM     16  O   UNL d   1      57.709  -1.507  30.556  0.00  0.00    -0.286 OA
ATOM     17  C   UNL d   1      58.777  -0.099  29.274  0.00  0.00     0.199 A 
ATOM     18  C   UNL d   1      58.565   0.622  29.617  0.00  0.00     0.042 A 
ATOM     19  O   UNL d   1      59.276  -0.113  28.617  0.00  0.00    -0.286 OA
ATOM     20  C   UNL d   1      58.066   0.637  30.275  0.00  0.00     0.010 A 
ENDBRANCH  11  13
ENDBRANCH   1  11
TORSDOF 3
ENDMDL
MODEL 4
REMARK VINA RESULT:      -4.9      1.104      1.229
REMARK  3 active torsions:
REMARK  status: ('A' for Active; 'I' for Inactive)
REMARK    1  A    between atoms: C_5  and  C_1 
REMARK    2  A    between atoms: C_4  and  C_6 
REMARK    3  A    between atoms: C_6  and  C_5 
ROOT
ATOM      1  C   UNL d   1      56.979   0.202  31.350  0.00  0.00     0.068 C 
ENDROOT
BRANCH   1   2
ATOM      2  C   UNL d   1      57.522   0.085  30.734  0.00  0.00     0.114 A 
ATOM      3  N   UNL d   1      57.820  -0.644  30.481  0.00  0.00    -0.238 NA
ATOM      4  C   UNL d   1      58.342  -0.499  29.856  0.00  0.00     0.088 A 
ATOM      5  C   UNL d   1      58.797  -1.007  29.392  0.00  0.00     0.020 A 
ATOM      6  C   UNL d   1      58.368   0.315  29.721  0.00  0.00     0.049 A 
ATOM      7  C   UNL d   1      59.278  -0.701  28.794  0.00  0.00     0.002 A 
ATOM      8  C   UNL d   1      59.298   0.113  28.666  0.00  0.00     0.001 A 
ATOM      9  C   UNL d   1      58.845   0.617  29.129  0.00  0.00     0.008 A 
ATOM     10  S   UNL d   1      57.857   0.676  30.269  0.00  0.00    -0.066 SA
ENDBRANCH   1   2
BRANCH   1  11
ATOM     11  C   UNL d   1      57.255   0.282  32.128  0.00  0.00     0.201 C 
ATOM     12  O   UNL d   1      58.065   0.349  32.282  0.00  0.00    -0.286 OA
BRANCH  11  13
ATOM     13  C   UNL d   1      56.711   0.296  32.758  0.00  0.00     0.078 A 
ATOM     14  C   UNL d   1      56.969   0.497  33.526  0.00  0.00     0.202 A 
ATOM     15  C   UNL d   1      56.433   0.511  34.152  0.00  0.00     0.084 A 
ATOM     16  O   UNL d   1      57.762   0.682  33.659  0.00  0.00    -0.286 OA
ATOM     17  C   UNL d   1      55.637   0.324  34.010  0.00  0.00     0.199 A 
ATOM     18  C   UNL d   1      55.381   0.125  33.250  0.00  0.00     0.042 A 
ATOM     19  O   UNL d   1      55.101   0.338  34.637  0.00  0.00    -0.286 OA
ATOM     20  C   UNL d   1      55.918   0.110  32.623  0.00  0.00     0.010 A 
ENDBRANCH  11  13
ENDBRANCH   1  11
TORSDOF 3
ENDMDL
