MODEL 1
REMARK VINA RESULT:      35.7      0.000      0.000
REMARK  2 active torsions:
REMARK  status: ('A' for Active; 'I' for Inactive)
REMARK    1  A    between atoms: C_6  and  N_2 
REMARK    2  A    between atoms: C_8  and  C_5 
ROOT
ATOM      1  C   UNL d   1     -52.894  25.300  33.431  0.00  0.00     0.265 A 
ATOM      2  N   UNL d   1     -52.069  25.294  33.433  0.00  0.00    -0.275 N 
ATOM      3  C   UNL d   1     -52.490  24.030  33.430  0.00  0.00     0.021 A 
ATOM      4  C   UNL d   1     -53.155  24.518  33.429  0.00  0.00     0.063 A 
ATOM      5  C   UNL d   1     -51.819  24.513  33.432  0.00  0.00     0.067 A 
ATOM      6  O   UNL d   1     -53.380  25.975  33.432  0.00  0.00    -0.267 OA
ATOM      7  C   UNL d   1     -52.496  23.205  33.428  0.00  0.00     0.002 C 
ENDROOT
BRANCH   2   8
ATOM      8  C   UNL d   1     -51.585  25.968  33.436  0.00  0.00     0.067 A 
ATOM      9  C   UNL d   1     -51.925  26.713  33.307  0.00  0.00     0.018 A 
ATOM     10  C   UNL d   1     -51.459  27.385  33.307  0.00  0.00     0.002 A 
ATOM     11  C   UNL d   1     -50.641  27.324  33.436  0.00  0.00     0.000 A 
ATOM     12  C   UNL d   1     -50.304  26.573  33.565  0.00  0.00     0.002 A 
ATOM     13  C   UNL d   1     -50.166  27.998  33.437  0.00  0.00     0.000 C 
ATOM     14  C   UNL d   1     -50.777  25.902  33.564  0.00  0.00     0.018 A 
ENDBRANCH   2   8
BRANCH   5  15
ATOM     15  C   UNL d   1     -51.036  24.252  33.433  0.00  0.00     0.016 A 
ATOM     16  C   UNL d   1     -50.419  24.790  33.305  0.00  0.00     0.002 A 
ATOM     17  C   UNL d   1     -49.637  24.529  33.307  0.00  0.00     0.011 A 
ATOM     18  C   UNL d   1     -49.466  23.726  33.436  0.00  0.00     0.058 A 
ATOM     19  C   UNL d   1     -50.079  23.189  33.563  0.00  0.00     0.011 A 
ATOM     20 CL   UNL d   1     -48.675  23.466  33.436  0.00  0.00    -0.082 Cl
ATOM     21  C   UNL d   1     -50.866  23.449  33.562  0.00  0.00     0.002 A 
ENDBRANCH   5  15
TORSDOF 2
ENDMDL
