MODEL 1
REMARK VINA RESULT:      -8.3      0.000      0.000
REMARK  1 active torsions:
REMARK  status: ('A' for Active; 'I' for Inactive)
REMARK    1  A    between atoms: N_4  and  C_1 
ROOT
ATOM      1  C   UNL d   1      53.173  32.920  53.811  0.00  0.00     0.735 A 
ATOM      2  N   UNL d   1      53.700  32.349  54.090  0.00  0.00    -0.059 NA
ATOM      3  N   UNL d   1      52.651  32.550  53.284  0.00  0.00    -0.059 NA
ATOM      4  C   UNL d   1      53.507  31.625  53.737  0.00  0.00     0.118 A 
ATOM      5  C   UNL d   1      52.860  31.749  53.240  0.00  0.00     0.118 A 
ATOM      6  C   UNL d   1      53.836  30.874  53.806  0.00  0.00     0.021 A 
ATOM      7  C   UNL d   1      52.537  31.123  52.807  0.00  0.00     0.021 A 
ATOM      8  C   UNL d   1      52.866  30.371  52.875  0.00  0.00     0.002 A 
ATOM      9  C   UNL d   1      53.512  30.247  53.372  0.00  0.00     0.002 A 
ENDROOT
BRANCH   1  10
ATOM     10  N   UNL d   1      53.159  33.720  54.014  0.00  0.00    -0.134 N 
ATOM     11  C   UNL d   1      52.889  34.286  53.476  0.00  0.00     0.119 A 
ATOM     12  C   UNL d   1      52.878  35.079  53.686  0.00  0.00     0.119 A 
ATOM     13  N   UNL d   1      53.136  35.316  54.433  0.00  0.00    -0.239 NA
ATOM     14  C   UNL d   1      53.406  34.750  54.972  0.00  0.00     0.119 A 
ATOM     15  C   UNL d   1      53.420  33.947  54.767  0.00  0.00     0.119 A 
ENDBRANCH   1  10
TORSDOF 1
ENDMDL
MODEL 2
REMARK VINA RESULT:      -8.0      0.819      3.603
REMARK  1 active torsions:
REMARK  status: ('A' for Active; 'I' for Inactive)
REMARK    1  A    between atoms: N_4  and  C_1 
ROOT
ATOM      1  C   UNL d   1      53.115  32.495  53.626  0.00  0.00     0.735 A 
ATOM      2  N   UNL d   1      52.790  33.074  53.135  0.00  0.00    -0.059 NA
ATOM      3  N   UNL d   1      53.399  32.870  54.308  0.00  0.00    -0.059 NA
ATOM      4  C   UNL d   1      52.872  33.807  53.510  0.00  0.00     0.118 A 
ATOM      5  C   UNL d   1      53.248  33.682  54.234  0.00  0.00     0.118 A 
ATOM      6  C   UNL d   1      52.653  34.568  53.284  0.00  0.00     0.021 A 
ATOM      7  C   UNL d   1      53.408  34.316  54.739  0.00  0.00     0.021 A 
ATOM      8  C   UNL d   1      53.190  35.078  54.515  0.00  0.00     0.002 A 
ATOM      9  C   UNL d   1      52.814  35.203  53.791  0.00  0.00     0.002 A 
ENDROOT
BRANCH   1  10
ATOM     10  N   UNL d   1      53.154  31.685  53.475  0.00  0.00    -0.134 N 
ATOM     11  C   UNL d   1      53.735  31.218  53.834  0.00  0.00     0.119 A 
ATOM     12  C   UNL d   1      53.767  30.412  53.678  0.00  0.00     0.119 A 
ATOM     13  N   UNL d   1      53.223  30.065  53.165  0.00  0.00    -0.239 NA
ATOM     14  C   UNL d   1      52.641  30.531  52.806  0.00  0.00     0.119 A 
ATOM     15  C   UNL d   1      52.602  31.345  52.958  0.00  0.00     0.119 A 
ENDBRANCH   1  10
TORSDOF 1
ENDMDL
MODEL 3
REMARK VINA RESULT:      -8.0      1.603      2.742
REMARK  1 active torsions:
REMARK  status: ('A' for Active; 'I' for Inactive)
REMARK    1  A    between atoms: N_4  and  C_1 
ROOT
ATOM      1  C   UNL d   1      52.371  33.752  53.577  0.00  0.00     0.735 A 
ATOM      2  N   UNL d   1      52.727  33.016  53.691  0.00  0.00    -0.059 NA
ATOM      3  N   UNL d   1      52.792  34.310  54.023  0.00  0.00    -0.059 NA
ATOM      4  C   UNL d   1      53.368  33.114  54.206  0.00  0.00     0.118 A 
ATOM      5  C   UNL d   1      53.408  33.912  54.411  0.00  0.00     0.118 A 
ATOM      6  C   UNL d   1      53.916  32.581  54.511  0.00  0.00     0.021 A 
ATOM      7  C   UNL d   1      53.996  34.185  54.924  0.00  0.00     0.021 A 
ATOM      8  C   UNL d   1      54.545  33.653  55.230  0.00  0.00     0.002 A 
ATOM      9  C   UNL d   1      54.505  32.855  55.025  0.00  0.00     0.002 A 
ENDROOT
BRANCH   1  10
ATOM     10  N   UNL d   1      51.713  33.916  53.107  0.00  0.00    -0.134 N 
ATOM     11  C   UNL d   1      51.805  34.119  52.311  0.00  0.00     0.119 A 
ATOM     12  C   UNL d   1      51.146  34.280  51.850  0.00  0.00     0.119 A 
ATOM     13  N   UNL d   1      50.390  34.240  52.176  0.00  0.00    -0.239 NA
ATOM     14  C   UNL d   1      50.296  34.037  52.972  0.00  0.00     0.119 A 
ATOM     15  C   UNL d   1      50.957  33.873  53.445  0.00  0.00     0.119 A 
ENDBRANCH   1  10
TORSDOF 1
ENDMDL
