MODEL 1
REMARK VINA RESULT:      18.5      0.000      0.000
REMARK  4 active torsions:
REMARK  status: ('A' for Active; 'I' for Inactive)
REMARK    1  A    between atoms: C_11  and  N_2 
REMARK    2  A    between atoms: N_3  and  C_14 
REMARK    3  A    between atoms: C_16  and  C_11 
REMARK    4  A    between atoms: C_14  and  C_16 
ROOT
ATOM      1  C   UNL d   1      45.756 -16.939  43.945  0.00  0.00     0.231 C 
ATOM      2  O   UNL d   1      45.269 -16.885  43.279  0.00  0.00    -0.283 OA
ENDROOT
BRANCH   1   3
ATOM      3  C   UNL d   1      46.397 -17.460  43.950  0.00  0.00     0.124 C 
BRANCH   3   4
ATOM      4  N   UNL d   1      46.300 -18.235  43.676  0.00  0.00    -0.303 N 
ATOM      5  C   UNL d   1      46.092 -18.899  44.139  0.00  0.00     0.064 A 
ATOM      6  C   UNL d   1      46.057 -19.556  43.635  0.00  0.00     0.018 A 
ATOM      7  C   UNL d   1      45.947 -18.898  44.952  0.00  0.00     0.019 C 
ATOM      8  C   UNL d   1      45.872 -20.325  43.861  0.00  0.00     0.002 C 
ATOM      9  C   UNL d   1      46.242 -19.306  42.867  0.00  0.00     0.018 A 
ATOM     10  C   UNL d   1      46.392 -18.486  42.892  0.00  0.00     0.064 A 
ATOM     11  C   UNL d   1      46.294 -19.713  42.143  0.00  0.00     0.002 A 
ATOM     12  C   UNL d   1      46.593 -18.082  42.194  0.00  0.00     0.018 A 
ATOM     13  C   UNL d   1      46.644 -18.488  41.480  0.00  0.00     0.002 A 
ATOM     14  C   UNL d   1      46.495 -19.300  41.455  0.00  0.00     0.000 A 
ENDBRANCH   3   4
ENDBRANCH   1   3
BRANCH   1  15
ATOM     15  C   UNL d   1      45.601 -16.473  44.601  0.00  0.00     0.138 C 
BRANCH  15  16
ATOM     16  N   UNL d   1      45.513 -15.652  44.522  0.00  0.00    -0.194 N 
ATOM     17  S   UNL d   1      46.122 -15.098  44.486  0.00  0.00     0.274 S 
ATOM     18  C   UNL d   1      45.780 -14.352  44.407  0.00  0.00     0.109 A 
ATOM     19  O   UNL d   1      46.644 -15.732  44.559  0.00  0.00    -0.200 OA
ATOM     20  O   UNL d   1      46.597 -14.425  44.435  0.00  0.00    -0.200 OA
ATOM     21  C   UNL d   1      44.962 -14.448  44.394  0.00  0.00     0.069 A 
ATOM     22  C   UNL d   1      46.101 -13.602  44.345  0.00  0.00     0.013 A 
ATOM     23  C   UNL d   1      44.471 -13.796  44.320  0.00  0.00     0.005 A 
ATOM     24  C   UNL d   1      44.796 -15.252  44.465  0.00  0.00     0.275 A 
ATOM     25  C   UNL d   1      44.797 -13.047  44.259  0.00  0.00     0.000 A 
ATOM     26  C   UNL d   1      45.614 -12.952  44.271  0.00  0.00     0.001 A 
ATOM     27  O   UNL d   1      44.047 -15.595  44.478  0.00  0.00    -0.266 OA
ENDBRANCH  15  16
ENDBRANCH   1  15
TORSDOF 4
ENDMDL
