MODEL 1
REMARK VINA RESULT:      50.3      0.000      0.000
REMARK  4 active torsions:
REMARK  status: ('A' for Active; 'I' for Inactive)
REMARK    1  A    between atoms: N_10  and  C_3 
REMARK    2  A    between atoms: C_11  and  C_5 
REMARK    3  A    between atoms: C_13  and  N_10 
REMARK    4  A    between atoms: C_19  and  C_13 
ROOT
ATOM      1  N   UNL d   1     -58.195 -98.775 -43.777  0.00  0.00    -0.195 N 
ATOM      2  C   UNL d   1     -57.534 -98.794 -44.297  0.00  0.00     0.167 A 
ATOM      3  C   UNL d   1     -58.965 -98.775 -44.090  0.00  0.00     0.167 A 
ATOM      4  N   UNL d   1     -57.314 -98.757 -42.657  0.00  0.00    -0.163 NA
ATOM      5  C   UNL d   1     -56.783 -98.794 -43.993  0.00  0.00     0.055 A 
ATOM      6  N   UNL d   1     -57.664 -98.813 -45.113  0.00  0.00    -0.227 NA
ATOM      7  C   UNL d   1     -59.077 -98.794 -44.897  0.00  0.00     0.054 A 
ATOM      8  C   UNL d   1     -56.663 -98.776 -43.170  0.00  0.00     0.104 A 
ATOM      9  C   UNL d   1     -58.421 -98.813 -45.424  0.00  0.00     0.086 A 
ATOM     10  C   UNL d   1     -59.748 -98.798 -45.358  0.00  0.00     0.005 A 
ATOM     11  C   UNL d   1     -55.899 -98.776 -42.870  0.00  0.00     0.023 C 
ATOM     12  C   UNL d   1     -58.704 -98.828 -46.196  0.00  0.00     0.019 A 
ATOM     13  C   UNL d   1     -59.537 -98.819 -46.151  0.00  0.00     0.002 A 
ENDROOT
BRANCH   5  14
ATOM     14  C   UNL d   1     -56.134 -98.813 -44.503  0.00  0.00     0.004 A 
ATOM     15  C   UNL d   1     -55.371 -98.890 -44.200  0.00  0.00     0.000 A 
ATOM     16  C   UNL d   1     -54.724 -98.909 -44.704  0.00  0.00     0.000 A 
ATOM     17  C   UNL d   1     -54.838 -98.850 -45.523  0.00  0.00     0.000 A 
ATOM     18  C   UNL d   1     -55.588 -98.774 -45.829  0.00  0.00     0.000 A 
ATOM     19  C   UNL d   1     -56.243 -98.755 -45.314  0.00  0.00     0.000 A 
ENDBRANCH   5  14
BRANCH   3  20
ATOM     20  N   UNL d   1     -59.635 -98.756 -43.568  0.00  0.00    -0.225 NA
BRANCH  20  21
ATOM     21  C   UNL d   1     -59.959 -98.808 -42.790  0.00  0.00     0.101 C 
BRANCH  21  22
ATOM     22  C   UNL d   1     -59.906 -99.526 -42.351  0.00  0.00     0.019 C 
ATOM     23  C   UNL d   1     -59.860-100.269 -42.757  0.00  0.00     0.002 C 
ATOM     24  C   UNL d   1     -59.899 -99.500 -41.501  0.00  0.00     0.002 C 
ENDBRANCH  21  22
ENDBRANCH  20  21
ENDBRANCH   3  20
TORSDOF 4
ENDMDL
