MODEL 1
REMARK VINA RESULT:      -2.8      0.000      0.000
REMARK  4 active torsions:
REMARK  status: ('A' for Active; 'I' for Inactive)
REMARK    1  A    between atoms: N_2  and  S_1 
REMARK    2  A    between atoms: C_3  and  S_1 
REMARK       I    between atoms: C_5  and  N_4 
REMARK    3  A    between atoms: O_17  and  C_5 
REMARK    4  A    between atoms: C_18  and  O_17 
ROOT
ATOM      1  N   UNL d   1      33.146  20.469 -21.964  0.00  0.00    -0.226 N 
ATOM      2  N   UNL d   1      33.144  21.872 -21.059  0.00  0.00    -0.248 N 
ATOM      3  C   UNL d   1      33.145  22.573 -20.625  0.00  0.00     0.378 C 
ATOM      4  C   UNL d   1      33.233  21.210 -22.330  0.00  0.00     0.111 A 
ATOM      5  C   UNL d   1      33.056  20.440 -21.135  0.00  0.00     0.111 A 
ATOM      6  C   UNL d   1      33.056  21.133 -20.688  0.00  0.00     0.105 A 
ATOM      7  C   UNL d   1      33.233  21.903 -21.882  0.00  0.00     0.105 A 
ATOM      8  O   UNL d   1      33.234  23.301 -21.005  0.00  0.00    -0.237 OA
ENDROOT
BRANCH   1   9
ATOM      9  S   UNL d   1      33.146  19.776 -22.411  0.00  0.00     0.277 S 
ATOM     10  O   UNL d   1      33.056  19.332 -21.722  0.00  0.00    -0.199 OA
ATOM     11  O   UNL d   1      33.238  20.229 -23.113  0.00  0.00    -0.199 OA
BRANCH   9  12
ATOM     12  C   UNL d   1      33.146  19.088 -22.846  0.00  0.00     0.133 A 
ATOM     13  S   UNL d   1      33.056  19.059 -23.630  0.00  0.00    -0.074 SA
ATOM     14  C   UNL d   1      33.088  18.260 -23.866  0.00  0.00     0.036 A 
ATOM     15  C   UNL d   1      33.204  17.798 -23.179  0.00  0.00     0.008 A 
ATOM     16  C   UNL d   1      33.240  18.300 -22.554  0.00  0.00     0.020 A 
ENDBRANCH   9  12
ENDBRANCH   1   9
BRANCH   3  17
ATOM     17  O   UNL d   1      33.057  22.532 -19.813  0.00  0.00    -0.257 OA
BRANCH  17  18
ATOM     18  C   UNL d   1      33.059  23.225 -19.366  0.00  0.00     0.128 C 
ATOM     19  C   UNL d   1      33.113  23.200 -18.552  0.00  0.00     0.029 C 
ENDBRANCH  17  18
ENDBRANCH   3  17
TORSDOF 4
ENDMDL
MODEL 2
REMARK VINA RESULT:      -2.8      1.344      4.353
REMARK  4 active torsions:
REMARK  status: ('A' for Active; 'I' for Inactive)
REMARK    1  A    between atoms: N_2  and  S_1 
REMARK    2  A    between atoms: C_3  and  S_1 
REMARK       I    between atoms: C_5  and  N_4 
REMARK    3  A    between atoms: O_17  and  C_5 
REMARK    4  A    between atoms: C_18  and  O_17 
ROOT
ATOM      1  N   UNL d   1      32.855  21.248 -21.617  0.00  0.00    -0.226 N 
ATOM      2  N   UNL d   1      32.992  19.905 -22.598  0.00  0.00    -0.248 N 
ATOM      3  C   UNL d   1      33.062  19.250 -23.094  0.00  0.00     0.378 C 
ATOM      4  C   UNL d   1      33.033  21.329 -22.424  0.00  0.00     0.111 A 
ATOM      5  C   UNL d   1      32.745  20.483 -21.305  0.00  0.00     0.111 A 
ATOM      6  C   UNL d   1      32.813  19.819 -21.790  0.00  0.00     0.105 A 
ATOM      7  C   UNL d   1      33.101  20.665 -22.909  0.00  0.00     0.105 A 
ATOM      8  O   UNL d   1      33.240  19.349 -23.894  0.00  0.00    -0.237 OA
ENDROOT
BRANCH   1   9
ATOM      9  S   UNL d   1      32.787  21.913 -21.132  0.00  0.00     0.277 S 
ATOM     10  O   UNL d   1      32.976  21.452 -20.474  0.00  0.00    -0.199 OA
ATOM     11  O   UNL d   1      32.595  22.382 -21.802  0.00  0.00    -0.199 OA
BRANCH   9  12
ATOM     12  C   UNL d   1      32.722  22.564 -20.648  0.00  0.00     0.133 A 
ATOM     13  S   UNL d   1      33.218  22.729 -20.056  0.00  0.00    -0.074 SA
ATOM     14  C   UNL d   1      32.966  23.437 -19.695  0.00  0.00     0.036 A 
ATOM     15  C   UNL d   1      32.284  23.699 -20.102  0.00  0.00     0.008 A 
ATOM     16  C   UNL d   1      32.131  23.169 -20.685  0.00  0.00     0.020 A 
ENDBRANCH   9  12
ENDBRANCH   1   9
BRANCH   3  17
ATOM     17  O   UNL d   1      32.953  18.504 -22.778  0.00  0.00    -0.257 OA
BRANCH  17  18
ATOM     18  C   UNL d   1      33.028  17.840 -23.261  0.00  0.00     0.128 C 
ATOM     19  C   UNL d   1      33.075  17.091 -22.941  0.00  0.00     0.029 C 
ENDBRANCH  17  18
ENDBRANCH   3  17
TORSDOF 4
ENDMDL
MODEL 3
REMARK VINA RESULT:      -2.5      0.857      1.205
REMARK  4 active torsions:
REMARK  status: ('A' for Active; 'I' for Inactive)
REMARK    1  A    between atoms: N_2  and  S_1 
REMARK    2  A    between atoms: C_3  and  S_1 
REMARK       I    between atoms: C_5  and  N_4 
REMARK    3  A    between atoms: O_17  and  C_5 
REMARK    4  A    between atoms: C_18  and  O_17 
ROOT
ATOM      1  N   UNL d   1      33.068  19.666 -22.607  0.00  0.00    -0.226 N 
ATOM      2  N   UNL d   1      33.064  21.182 -21.908  0.00  0.00    -0.248 N 
ATOM      3  C   UNL d   1      33.067  21.937 -21.575  0.00  0.00     0.378 C 
ATOM      4  C   UNL d   1      33.241  20.342 -23.058  0.00  0.00     0.111 A 
ATOM      5  C   UNL d   1      32.892  19.760 -21.797  0.00  0.00     0.111 A 
ATOM      6  C   UNL d   1      32.891  20.509 -21.451  0.00  0.00     0.105 A 
ATOM      7  C   UNL d   1      33.239  21.091 -22.712  0.00  0.00     0.105 A 
ATOM      8  O   UNL d   1      33.241  22.597 -22.039  0.00  0.00    -0.237 OA
ENDROOT
BRANCH   1   9
ATOM      9  S   UNL d   1      33.069  18.917 -22.952  0.00  0.00     0.277 S 
ATOM     10  O   UNL d   1      32.902  19.255 -23.686  0.00  0.00    -0.199 OA
ATOM     11  O   UNL d   1      33.240  18.573 -22.205  0.00  0.00    -0.199 OA
BRANCH   9  12
ATOM     12  C   UNL d   1      33.069  18.181 -23.299  0.00  0.00     0.133 A 
ATOM     13  S   UNL d   1      32.913  18.049 -24.062  0.00  0.00    -0.074 SA
ATOM     14  C   UNL d   1      32.968  17.229 -24.202  0.00  0.00     0.036 A 
ATOM     15  C   UNL d   1      33.169  16.863 -23.477  0.00  0.00     0.008 A 
ATOM     16  C   UNL d   1      33.232  17.440 -22.923  0.00  0.00     0.020 A 
ENDBRANCH   9  12
ENDBRANCH   1   9
BRANCH   3  17
ATOM     17  O   UNL d   1      32.893  22.016 -20.781  0.00  0.00    -0.257 OA
BRANCH  17  18
ATOM     18  C   UNL d   1      32.852  22.769 -20.444  0.00  0.00     0.128 C 
ATOM     19  C   UNL d   1      32.702  22.865 -19.648  0.00  0.00     0.029 C 
ENDBRANCH  17  18
ENDBRANCH   3  17
TORSDOF 4
ENDMDL
MODEL 4
REMARK VINA RESULT:      -2.2      1.820      2.655
REMARK  4 active torsions:
REMARK  status: ('A' for Active; 'I' for Inactive)
REMARK    1  A    between atoms: N_2  and  S_1 
REMARK    2  A    between atoms: C_3  and  S_1 
REMARK       I    between atoms: C_5  and  N_4 
REMARK    3  A    between atoms: O_17  and  C_5 
REMARK    4  A    between atoms: C_18  and  O_17 
ROOT
ATOM      1  N   UNL d   1      32.853  18.588 -23.259  0.00  0.00    -0.226 N 
ATOM      2  N   UNL d   1      33.071  20.082 -22.546  0.00  0.00    -0.248 N 
ATOM      3  C   UNL d   1      33.179  20.813 -22.181  0.00  0.00     0.378 C 
ATOM      4  C   UNL d   1      32.917  18.659 -22.434  0.00  0.00     0.111 A 
ATOM      5  C   UNL d   1      32.899  19.278 -23.725  0.00  0.00     0.111 A 
ATOM      6  C   UNL d   1      33.007  20.016 -23.373  0.00  0.00     0.105 A 
ATOM      7  C   UNL d   1      33.025  19.397 -22.082  0.00  0.00     0.105 A 
ATOM      8  O   UNL d   1      33.241  20.865 -21.359  0.00  0.00    -0.237 OA
ENDROOT
BRANCH   1   9
ATOM      9  S   UNL d   1      32.745  17.850 -23.611  0.00  0.00     0.277 S 
ATOM     10  O   UNL d   1      32.585  17.521 -22.872  0.00  0.00    -0.199 OA
ATOM     11  O   UNL d   1      32.908  18.185 -24.364  0.00  0.00    -0.199 OA
BRANCH   9  12
ATOM     12  C   UNL d   1      32.637  17.119 -23.953  0.00  0.00     0.133 A 
ATOM     13  S   UNL d   1      33.216  16.690 -24.277  0.00  0.00    -0.074 SA
ATOM     14  C   UNL d   1      32.885  15.981 -24.564  0.00  0.00     0.036 A 
ATOM     15  C   UNL d   1      32.066  15.999 -24.397  0.00  0.00     0.008 A 
ATOM     16  C   UNL d   1      31.910  16.692 -24.024  0.00  0.00     0.020 A 
ENDBRANCH   9  12
ENDBRANCH   1   9
BRANCH   3  17
ATOM     17  O   UNL d   1      33.223  21.482 -22.648  0.00  0.00    -0.257 OA
BRANCH  17  18
ATOM     18  C   UNL d   1      33.233  22.228 -22.294  0.00  0.00     0.128 C 
ATOM     19  C   UNL d   1      33.182  22.906 -22.744  0.00  0.00     0.029 C 
ENDBRANCH  17  18
ENDBRANCH   3  17
TORSDOF 4
ENDMDL
MODEL 5
REMARK VINA RESULT:      -2.0      4.263      5.587
REMARK  4 active torsions:
REMARK  status: ('A' for Active; 'I' for Inactive)
REMARK    1  A    between atoms: N_2  and  S_1 
REMARK    2  A    between atoms: C_3  and  S_1 
REMARK       I    between atoms: C_5  and  N_4 
REMARK    3  A    between atoms: O_17  and  C_5 
REMARK    4  A    between atoms: C_18  and  O_17 
ROOT
ATOM      1  N   UNL d   1      30.433  16.997 -24.110  0.00  0.00    -0.226 N 
ATOM      2  N   UNL d   1      31.896  17.794 -24.198  0.00  0.00    -0.248 N 
ATOM      3  C   UNL d   1      32.625  18.180 -24.230  0.00  0.00     0.378 C 
ATOM      4  C   UNL d   1      31.056  16.796 -23.599  0.00  0.00     0.111 A 
ATOM      5  C   UNL d   1      30.552  17.604 -24.668  0.00  0.00     0.111 A 
ATOM      6  C   UNL d   1      31.275  17.998 -24.712  0.00  0.00     0.105 A 
ATOM      7  C   UNL d   1      31.779  17.190 -23.643  0.00  0.00     0.105 A 
ATOM      8  O   UNL d   1      33.233  17.967 -23.715  0.00  0.00    -0.237 OA
ENDROOT
BRANCH   1   9
ATOM      9  S   UNL d   1      29.709  16.603 -24.066  0.00  0.00     0.277 S 
ATOM     10  O   UNL d   1      30.103  15.899 -23.889  0.00  0.00    -0.199 OA
ATOM     11  O   UNL d   1      29.308  17.318 -24.247  0.00  0.00    -0.199 OA
BRANCH   9  12
ATOM     12  C   UNL d   1      28.999  16.208 -24.022  0.00  0.00     0.133 A 
ATOM     13  S   UNL d   1      28.538  16.193 -23.381  0.00  0.00    -0.074 SA
ATOM     14  C   UNL d   1      27.864  15.734 -23.555  0.00  0.00     0.036 A 
ATOM     15  C   UNL d   1      27.938  15.466 -24.343  0.00  0.00     0.008 A 
ATOM     16  C   UNL d   1      28.629  15.753 -24.633  0.00  0.00     0.020 A 
ENDBRANCH   9  12
ENDBRANCH   1   9
BRANCH   3  17
ATOM     17  O   UNL d   1      32.730  18.774 -24.782  0.00  0.00    -0.257 OA
BRANCH  17  18
ATOM     18  C   UNL d   1      33.220  19.413 -24.605  0.00  0.00     0.128 C 
ATOM     19  C   UNL d   1      33.173  20.108 -25.029  0.00  0.00     0.029 C 
ENDBRANCH  17  18
ENDBRANCH   3  17
TORSDOF 4
ENDMDL
MODEL 6
REMARK VINA RESULT:      -1.2      1.151      1.682
REMARK  4 active torsions:
REMARK  status: ('A' for Active; 'I' for Inactive)
REMARK    1  A    between atoms: N_2  and  S_1 
REMARK    2  A    between atoms: C_3  and  S_1 
REMARK       I    between atoms: C_5  and  N_4 
REMARK    3  A    between atoms: O_17  and  C_5 
REMARK    4  A    between atoms: C_18  and  O_17 
ROOT
ATOM      1  N   UNL d   1      33.046  21.316 -20.789  0.00  0.00    -0.226 N 
ATOM      2  N   UNL d   1      32.960  22.360 -19.489  0.00  0.00    -0.248 N 
ATOM      3  C   UNL d   1      32.918  22.888 -18.856  0.00  0.00     0.378 C 
ATOM      4  C   UNL d   1      33.038  22.139 -20.905  0.00  0.00     0.111 A 
ATOM      5  C   UNL d   1      33.010  21.021 -20.010  0.00  0.00     0.111 A 
ATOM      6  C   UNL d   1      32.968  21.537 -19.367  0.00  0.00     0.105 A 
ATOM      7  C   UNL d   1      32.996  22.655 -20.263  0.00  0.00     0.105 A 
ATOM      8  O   UNL d   1      32.912  23.702 -18.991  0.00  0.00    -0.237 OA
ENDROOT
BRANCH   1   9
ATOM      9  S   UNL d   1      33.088  20.800 -21.431  0.00  0.00     0.277 S 
ATOM     10  O   UNL d   1      33.139  20.160 -20.914  0.00  0.00    -0.199 OA
ATOM     11  O   UNL d   1      33.037  21.453 -21.958  0.00  0.00    -0.199 OA
BRANCH   9  12
ATOM     12  C   UNL d   1      33.131  20.286 -22.061  0.00  0.00     0.133 A 
ATOM     13  S   UNL d   1      33.086  19.500 -21.996  0.00  0.00    -0.074 SA
ATOM     14  C   UNL d   1      33.151  19.172 -22.759  0.00  0.00     0.036 A 
ATOM     15  C   UNL d   1      33.239  19.804 -23.299  0.00  0.00     0.008 A 
ATOM     16  C   UNL d   1      33.227  20.486 -22.877  0.00  0.00     0.020 A 
ENDBRANCH   9  12
ENDBRANCH   1   9
BRANCH   3  17
ATOM     17  O   UNL d   1      32.883  22.587 -18.097  0.00  0.00    -0.257 OA
BRANCH  17  18
ATOM     18  C   UNL d   1      32.686  23.085 -17.469  0.00  0.00     0.128 C 
ATOM     19  C   UNL d   1      33.238  23.289 -16.905  0.00  0.00     0.029 C 
ENDBRANCH  17  18
ENDBRANCH   3  17
TORSDOF 4
ENDMDL
