MODEL 1
REMARK VINA RESULT:      -5.2      0.000      0.000
REMARK  4 active torsions:
REMARK  status: ('A' for Active; 'I' for Inactive)
REMARK    1  A    between atoms: C_8  and  C_4 
REMARK       I    between atoms: C_7  and  N_10 
REMARK    2  A    between atoms: C_16  and  C_7 
REMARK    3  A    between atoms: N_10  and  C_13 
REMARK    4  A    between atoms: C_17  and  C_16 
ROOT
ATOM      1  C   UNL d   1      58.496  -0.713  29.669  0.00  0.00     0.021 A 
ATOM      2  C   UNL d   1      58.310  -0.628  30.471  0.00  0.00     0.021 A 
ATOM      3  C   UNL d   1      57.964   0.066  30.741  0.00  0.00     0.085 A 
ATOM      4  C   UNL d   1      58.335  -0.102  29.140  0.00  0.00     0.002 A 
ATOM      5  C   UNL d   1      57.988   0.598  29.406  0.00  0.00     0.002 A 
ATOM      6  C   UNL d   1      57.802   0.681  30.214  0.00  0.00     0.019 A 
ENDROOT
BRANCH   1   7
ATOM      7  C   UNL d   1      58.844  -1.410  29.397  0.00  0.00     0.118 A 
ATOM      8  N   UNL d   1      58.463  -2.127  29.289  0.00  0.00    -0.059 NA
ATOM      9  C   UNL d   1      59.018  -2.667  29.012  0.00  0.00     0.735 A 
ATOM     10  N   UNL d   1      59.742  -2.287  28.949  0.00  0.00    -0.136 N 
ATOM     11  N   UNL d   1      58.941  -3.468  28.811  0.00  0.00    -0.059 NA
ATOM     12  C   UNL d   1      59.636  -1.507  29.187  0.00  0.00     0.118 A 
ATOM     13  C   UNL d   1      60.402  -2.702  28.682  0.00  0.00     0.100 A 
ATOM     14  C   UNL d   1      60.333  -3.493  28.481  0.00  0.00     0.041 A 
ATOM     15  C   UNL d   1      59.609  -3.873  28.545  0.00  0.00     0.119 A 
ENDBRANCH   1   7
BRANCH   3  16
ATOM     16  N   UNL d   1      57.780   0.148  31.541  0.00  0.00    -0.208 NA
ATOM     17  C   UNL d   1      57.022  -0.038  31.813  0.00  0.00     0.275 C 
ATOM     18  O   UNL d   1      56.451  -0.305  31.287  0.00  0.00    -0.266 OA
BRANCH  17  19
ATOM     19  C   UNL d   1      56.837   0.042  32.607  0.00  0.00     0.036 C 
BRANCH  19  20
ATOM     20  C   UNL d   1      56.110  -0.221  32.881  0.00  0.00     0.023 C 
ATOM     21  C   UNL d   1      56.194  -1.050  32.953  0.00  0.00     0.004 C 
ATOM     22  C   UNL d   1      55.647   0.446  32.954  0.00  0.00     0.004 C 
ATOM     23  C   UNL d   1      55.376  -0.492  33.157  0.00  0.00     0.004 C 
ENDBRANCH  19  20
ENDBRANCH  17  19
ENDBRANCH   3  16
TORSDOF 4
ENDMDL
MODEL 2
REMARK VINA RESULT:      -3.1      2.186      5.386
REMARK  4 active torsions:
REMARK  status: ('A' for Active; 'I' for Inactive)
REMARK    1  A    between atoms: C_8  and  C_4 
REMARK       I    between atoms: C_7  and  N_10 
REMARK    2  A    between atoms: C_16  and  C_7 
REMARK    3  A    between atoms: N_10  and  C_13 
REMARK    4  A    between atoms: C_17  and  C_16 
ROOT
ATOM      1  C   UNL d   1      56.746  -0.383  32.106  0.00  0.00     0.021 A 
ATOM      2  C   UNL d   1      57.224   0.143  31.681  0.00  0.00     0.021 A 
ATOM      3  C   UNL d   1      57.600  -0.106  30.995  0.00  0.00     0.085 A 
ATOM      4  C   UNL d   1      56.647  -1.157  31.841  0.00  0.00     0.002 A 
ATOM      5  C   UNL d   1      57.022  -1.413  31.152  0.00  0.00     0.002 A 
ATOM      6  C   UNL d   1      57.502  -0.881  30.727  0.00  0.00     0.019 A 
ENDROOT
BRANCH   1   7
ATOM      7  C   UNL d   1      56.369  -0.133  32.796  0.00  0.00     0.118 A 
ATOM      8  N   UNL d   1      56.730   0.015  33.516  0.00  0.00    -0.059 NA
ATOM      9  C   UNL d   1      56.147   0.251  34.046  0.00  0.00     0.735 A 
ATOM     10  N   UNL d   1      55.425   0.251  33.657  0.00  0.00    -0.136 N 
ATOM     11  N   UNL d   1      56.197   0.467  34.844  0.00  0.00    -0.059 NA
ATOM     12  C   UNL d   1      55.560   0.013  32.881  0.00  0.00     0.118 A 
ATOM     13  C   UNL d   1      54.741   0.466  34.060  0.00  0.00     0.100 A 
ATOM     14  C   UNL d   1      54.782   0.681  34.849  0.00  0.00     0.041 A 
ATOM     15  C   UNL d   1      55.504   0.682  35.238  0.00  0.00     0.119 A 
ENDBRANCH   1   7
BRANCH   3  16
ATOM     16  N   UNL d   1      58.075   0.421  30.574  0.00  0.00    -0.208 NA
ATOM     17  C   UNL d   1      58.781   0.160  30.232  0.00  0.00     0.275 C 
ATOM     18  O   UNL d   1      59.011  -0.624  30.312  0.00  0.00    -0.266 OA
BRANCH  17  19
ATOM     19  C   UNL d   1      59.254   0.682  29.814  0.00  0.00     0.036 C 
BRANCH  19  20
ATOM     20  C   UNL d   1      59.899   0.394  29.395  0.00  0.00     0.023 C 
ATOM     21  C   UNL d   1      60.535   0.418  29.937  0.00  0.00     0.004 C 
ATOM     22  C   UNL d   1      59.619   0.221  28.650  0.00  0.00     0.004 C 
ATOM     23  C   UNL d   1      60.554   0.105  28.977  0.00  0.00     0.004 C 
ENDBRANCH  19  20
ENDBRANCH  17  19
ENDBRANCH   3  16
TORSDOF 4
ENDMDL
