MODEL 1
REMARK VINA RESULT:      62.0      0.000      0.000
REMARK  7 active torsions:
REMARK  status: ('A' for Active; 'I' for Inactive)
REMARK    1  A    between atoms: C_13  and  N_1 
REMARK    2  A    between atoms: C_2  and  N_6 
REMARK    3  A    between atoms: C_8  and  C_5 
REMARK       I    between atoms: N_6  and  C_8 
REMARK    4  A    between atoms: S_20  and  C_9 
REMARK    5  A    between atoms: C_14  and  C_19 
REMARK    6  A    between atoms: C_19  and  C_23 
REMARK    7  A    between atoms: C_23  and  S_20 
ROOT
ATOM      1  N   UNL d   1     -48.898  27.561  34.026  0.00  0.00    -0.181 NA
ATOM      2  C   UNL d   1     -48.881  27.723  34.778  0.00  0.00     0.283 C 
ATOM      3  O   UNL d   1     -49.188  27.231  35.285  0.00  0.00    -0.265 OA
ENDROOT
BRANCH   2   4
ATOM      4  C   UNL d   1     -48.558  28.374  35.021  0.00  0.00     0.080 A 
ATOM      5  C   UNL d   1     -48.559  29.048  34.657  0.00  0.00     0.088 A 
ATOM      6  N   UNL d   1     -48.175  29.555  35.090  0.00  0.00    -0.273 N 
ATOM      7  C   UNL d   1     -47.937  29.194  35.719  0.00  0.00     0.265 A 
ATOM      8  C   UNL d   1     -48.172  28.458  35.683  0.00  0.00     0.067 A 
ATOM      9  O   UNL d   1     -47.529  29.508  36.298  0.00  0.00    -0.267 OA
BRANCH   6  10
ATOM     10  C   UNL d   1     -48.044  30.353  34.902  0.00  0.00     0.067 A 
ATOM     11  C   UNL d   1     -47.407  30.752  35.245  0.00  0.00     0.020 A 
ATOM     12  C   UNL d   1     -47.284  31.546  35.053  0.00  0.00     0.031 A 
ATOM     13  C   UNL d   1     -47.782  31.935  34.531  0.00  0.00     0.140 A 
ATOM     14  C   UNL d   1     -48.420  31.528  34.191  0.00  0.00     0.031 A 
ATOM     15  F   UNL d   1     -47.656  32.737  34.339  0.00  0.00    -0.204 F 
ATOM     16  C   UNL d   1     -48.549  30.747  34.374  0.00  0.00     0.020 A 
ENDBRANCH   6  10
ENDBRANCH   2   4
BRANCH   1  17
ATOM     17  C   UNL d   1     -49.221  26.908  33.777  0.00  0.00     0.219 A 
ATOM     18  S   UNL d   1     -49.975  26.749  33.770  0.00  0.00    -0.019 SA
ATOM     19  C   UNL d   1     -50.065  26.050  33.483  0.00  0.00     0.165 A 
ATOM     20  N   UNL d   1     -49.374  25.760  33.306  0.00  0.00    -0.133 NA
ATOM     21  N   UNL d   1     -48.843  26.301  33.491  0.00  0.00    -0.120 NA
BRANCH  19  22
ATOM     22  S   UNL d   1     -51.656  25.473  33.366  0.00  0.00    -0.059 SA
BRANCH  22  23
ATOM     23  C   UNL d   1     -51.886  24.802  33.790  0.00  0.00     0.042 C 
BRANCH  23  24
ATOM     24  C   UNL d   1     -52.223  24.159  33.391  0.00  0.00     0.058 C 
BRANCH  24  25
ATOM     25  C   UNL d   1     -52.924  23.833  33.681  0.00  0.00     0.204 A 
ATOM     26  O   UNL d   1     -53.009  23.415  34.393  0.00  0.00    -0.281 OA
ATOM     27  C   UNL d   1     -53.806  23.191  34.460  0.00  0.00     0.152 A 
ATOM     28  C   UNL d   1     -54.206  23.469  33.791  0.00  0.00     0.152 A 
ATOM     29  O   UNL d   1     -53.666  23.866  33.308  0.00  0.00    -0.281 OA
ENDBRANCH  24  25
ENDBRANCH  23  24
ENDBRANCH  22  23
ENDBRANCH  19  22
ENDBRANCH   1  17
TORSDOF 7
ENDMDL
MODEL 2
REMARK VINA RESULT:      62.7      2.707      6.978
REMARK  7 active torsions:
REMARK  status: ('A' for Active; 'I' for Inactive)
REMARK    1  A    between atoms: C_13  and  N_1 
REMARK    2  A    between atoms: C_2  and  N_6 
REMARK    3  A    between atoms: C_8  and  C_5 
REMARK       I    between atoms: N_6  and  C_8 
REMARK    4  A    between atoms: S_20  and  C_9 
REMARK    5  A    between atoms: C_14  and  C_19 
REMARK    6  A    between atoms: C_19  and  C_23 
REMARK    7  A    between atoms: C_23  and  S_20 
ROOT
ATOM      1  N   UNL d   1     -50.507  27.243  33.376  0.00  0.00    -0.181 NA
ATOM      2  C   UNL d   1     -50.451  26.691  33.910  0.00  0.00     0.283 C 
ATOM      3  O   UNL d   1     -50.126  26.846  34.591  0.00  0.00    -0.265 OA
ENDROOT
BRANCH   2   4
ATOM      4  C   UNL d   1     -50.719  25.989  33.762  0.00  0.00     0.080 A 
ATOM      5  C   UNL d   1     -51.455  25.773  33.752  0.00  0.00     0.088 A 
ATOM      6  N   UNL d   1     -51.482  25.024  33.581  0.00  0.00    -0.273 N 
ATOM      7  C   UNL d   1     -50.765  24.778  33.486  0.00  0.00     0.265 A 
ATOM      8  C   UNL d   1     -50.286  25.374  33.597  0.00  0.00     0.067 A 
ATOM      9  O   UNL d   1     -50.552  24.055  33.308  0.00  0.00    -0.267 OA
BRANCH   6  10
ATOM     10  C   UNL d   1     -52.172  24.566  33.513  0.00  0.00     0.067 A 
ATOM     11  C   UNL d   1     -52.910  24.934  33.563  0.00  0.00     0.020 A 
ATOM     12  C   UNL d   1     -53.591  24.471  33.494  0.00  0.00     0.031 A 
ATOM     13  C   UNL d   1     -53.540  23.662  33.378  0.00  0.00     0.140 A 
ATOM     14  C   UNL d   1     -52.795  23.300  33.328  0.00  0.00     0.031 A 
ATOM     15  F   UNL d   1     -54.229  23.197  33.308  0.00  0.00    -0.204 F 
ATOM     16  C   UNL d   1     -52.120  23.746  33.395  0.00  0.00     0.020 A 
ENDBRANCH   6  10
ENDBRANCH   2   4
BRANCH   1  17
ATOM     17  C   UNL d   1     -50.239  27.950  33.519  0.00  0.00     0.219 A 
ATOM     18  S   UNL d   1     -49.583  28.121  33.883  0.00  0.00    -0.019 SA
ATOM     19  C   UNL d   1     -49.520  28.880  33.912  0.00  0.00     0.165 A 
ATOM     20  N   UNL d   1     -50.133  29.195  33.569  0.00  0.00    -0.133 NA
ATOM     21  N   UNL d   1     -50.586  28.609  33.322  0.00  0.00    -0.120 NA
BRANCH  19  22
ATOM     22  S   UNL d   1     -48.139  29.503  34.675  0.00  0.00    -0.059 SA
BRANCH  22  23
ATOM     23  C   UNL d   1     -47.618  28.997  35.067  0.00  0.00     0.042 C 
BRANCH  23  24
ATOM     24  C   UNL d   1     -47.372  29.176  35.838  0.00  0.00     0.058 C 
BRANCH  24  25
ATOM     25  C   UNL d   1     -47.268  29.967  36.051  0.00  0.00     0.204 A 
ATOM     26  O   UNL d   1     -47.143  30.252  36.821  0.00  0.00    -0.281 OA
ATOM     27  C   UNL d   1     -47.068  31.077  36.774  0.00  0.00     0.152 A 
ATOM     28  C   UNL d   1     -47.147  31.297  35.979  0.00  0.00     0.152 A 
ATOM     29  O   UNL d   1     -47.270  30.614  35.530  0.00  0.00    -0.281 OA
ENDBRANCH  24  25
ENDBRANCH  23  24
ENDBRANCH  22  23
ENDBRANCH  19  22
ENDBRANCH   1  17
TORSDOF 7
ENDMDL
