MODEL 1
REMARK VINA RESULT:      -7.7      0.000      0.000
REMARK  6 active torsions:
REMARK  status: ('A' for Active; 'I' for Inactive)
REMARK    1  A    between atoms: N_2  and  S_1 
REMARK    2  A    between atoms: C_6  and  S_1 
REMARK    3  A    between atoms: C_3  and  N_2 
REMARK       I    between atoms: C_7  and  N_13 
REMARK    4  A    between atoms: C_10  and  C_7 
REMARK    5  A    between atoms: C_12  and  C_10 
REMARK    6  A    between atoms: C_11  and  C_12 
ROOT
ATOM      1  C   UNL d   1     -47.111  13.138  22.996  0.00  0.00     0.105 A 
ATOM      2  C   UNL d   1     -43.991  11.971  22.445  0.00  0.00     0.280 C 
ATOM      3  N   UNL d   1     -44.388  12.654  22.202  0.00  0.00    -0.208 NA
ATOM      4  O   UNL d   1     -43.213  11.829  22.221  0.00  0.00    -0.265 OA
ATOM      5  C   UNL d   1     -46.726  13.685  22.523  0.00  0.00     0.015 A 
ATOM      6  C   UNL d   1     -46.741  12.462  23.246  0.00  0.00     0.015 A 
ATOM      7  C   UNL d   1     -45.554  12.867  22.539  0.00  0.00     0.085 A 
ATOM      8  C   UNL d   1     -45.940  13.549  22.292  0.00  0.00     0.020 A 
ATOM      9  C   UNL d   1     -45.955  12.323  23.016  0.00  0.00     0.020 A 
ENDROOT
BRANCH   1  10
ATOM     10  S   UNL d   1     -47.924  13.287  23.231  0.00  0.00     0.285 S 
ATOM     11  O   UNL d   1     -47.798  14.098  23.186  0.00  0.00    -0.198 OA
ATOM     12  O   UNL d   1     -48.045  12.453  23.275  0.00  0.00    -0.198 OA
BRANCH  10  13
ATOM     13  N   UNL d   1     -48.725  13.412  23.462  0.00  0.00    -0.158 NA
BRANCH  13  14
ATOM     14  C   UNL d   1     -49.308  13.491  22.891  0.00  0.00     0.094 A 
ATOM     15  C   UNL d   1     -49.519  14.236  22.622  0.00  0.00     0.018 A 
ATOM     16  C   UNL d   1     -50.105  14.299  22.049  0.00  0.00     0.002 A 
ATOM     17  C   UNL d   1     -49.131  14.930  22.937  0.00  0.00     0.002 C 
ATOM     18  C   UNL d   1     -50.463  13.642  21.760  0.00  0.00     0.000 A 
ATOM     19  C   UNL d   1     -50.265  12.884  22.019  0.00  0.00     0.002 A 
ATOM     20  C   UNL d   1     -51.064  13.736  21.170  0.00  0.00     0.000 C 
ATOM     21  C   UNL d   1     -49.687  12.806  22.585  0.00  0.00     0.018 A 
ATOM     22  C   UNL d   1     -49.491  12.049  22.841  0.00  0.00     0.002 C 
ENDBRANCH  13  14
ENDBRANCH  10  13
ENDBRANCH   1  10
BRANCH   2  23
ATOM     23  C   UNL d   1     -44.402  11.430  22.926  0.00  0.00     0.069 C 
BRANCH  23  24
ATOM     24  C   UNL d   1     -43.964  10.839  23.333  0.00  0.00     0.075 C 
BRANCH  24  25
ATOM     25  C   UNL d   1     -44.240  10.062  23.345  0.00  0.00     0.211 C 
ATOM     26  O   UNL d   1     -43.797   9.435  23.002  0.00  0.00    -0.644 OA
ATOM     27  O   UNL d   1     -44.966   9.877  23.698  0.00  0.00    -0.644 OA
ENDBRANCH  24  25
ENDBRANCH  23  24
ENDBRANCH   2  23
TORSDOF 6
ENDMDL
MODEL 2
REMARK VINA RESULT:      -7.5      0.962      1.955
REMARK  6 active torsions:
REMARK  status: ('A' for Active; 'I' for Inactive)
REMARK    1  A    between atoms: N_2  and  S_1 
REMARK    2  A    between atoms: C_6  and  S_1 
REMARK    3  A    between atoms: C_3  and  N_2 
REMARK       I    between atoms: C_7  and  N_13 
REMARK    4  A    between atoms: C_10  and  C_7 
REMARK    5  A    between atoms: C_12  and  C_10 
REMARK    6  A    between atoms: C_11  and  C_12 
ROOT
ATOM      1  C   UNL d   1     -47.196  12.453  23.308  0.00  0.00     0.105 A 
ATOM      2  C   UNL d   1     -44.098  11.156  22.958  0.00  0.00     0.280 C 
ATOM      3  N   UNL d   1     -44.783  10.884  23.330  0.00  0.00    -0.208 NA
ATOM      4  O   UNL d   1     -43.407  10.711  22.962  0.00  0.00    -0.265 OA
ATOM      5  C   UNL d   1     -47.190  11.728  23.689  0.00  0.00     0.015 A 
ATOM      6  C   UNL d   1     -46.534  12.739  22.936  0.00  0.00     0.015 A 
ATOM      7  C   UNL d   1     -45.820  11.551  23.324  0.00  0.00     0.085 A 
ATOM      8  C   UNL d   1     -46.496  11.271  23.698  0.00  0.00     0.020 A 
ATOM      9  C   UNL d   1     -45.839  12.285  22.943  0.00  0.00     0.020 A 
ENDROOT
BRANCH   1  10
ATOM     10  S   UNL d   1     -47.918  12.918  23.304  0.00  0.00     0.285 S 
ATOM     11  O   UNL d   1     -48.349  12.267  23.559  0.00  0.00    -0.198 OA
ATOM     12  O   UNL d   1     -47.467  13.582  23.042  0.00  0.00    -0.198 OA
BRANCH  10  13
ATOM     13  N   UNL d   1     -48.616  13.391  23.293  0.00  0.00    -0.158 NA
BRANCH  13  14
ATOM     14  C   UNL d   1     -49.201  13.244  22.738  0.00  0.00     0.094 A 
ATOM     15  C   UNL d   1     -49.814  12.729  22.916  0.00  0.00     0.018 A 
ATOM     16  C   UNL d   1     -50.393  12.592  22.349  0.00  0.00     0.002 A 
ATOM     17  C   UNL d   1     -49.842  12.346  23.681  0.00  0.00     0.002 C 
ATOM     18  C   UNL d   1     -50.357  12.956  21.635  0.00  0.00     0.000 A 
ATOM     19  C   UNL d   1     -49.749  13.476  21.438  0.00  0.00     0.002 A 
ATOM     20  C   UNL d   1     -50.968  12.796  21.069  0.00  0.00     0.000 C 
ATOM     21  C   UNL d   1     -49.168  13.623  21.988  0.00  0.00     0.018 A 
ATOM     22  C   UNL d   1     -48.563  14.142  21.789  0.00  0.00     0.002 C 
ENDBRANCH  13  14
ENDBRANCH  10  13
ENDBRANCH   1  10
BRANCH   2  23
ATOM     23  C   UNL d   1     -44.127  11.896  22.577  0.00  0.00     0.069 C 
BRANCH  23  24
ATOM     24  C   UNL d   1     -43.443  12.166  22.170  0.00  0.00     0.075 C 
BRANCH  24  25
ATOM     25  C   UNL d   1     -43.515  12.751  21.595  0.00  0.00     0.211 C 
ATOM     26  O   UNL d   1     -43.527  13.566  21.798  0.00  0.00    -0.644 OA
ATOM     27  O   UNL d   1     -43.578  12.550  20.793  0.00  0.00    -0.644 OA
ENDBRANCH  24  25
ENDBRANCH  23  24
ENDBRANCH   2  23
TORSDOF 6
ENDMDL
MODEL 3
REMARK VINA RESULT:      -6.5      8.255      9.342
REMARK  6 active torsions:
REMARK  status: ('A' for Active; 'I' for Inactive)
REMARK    1  A    between atoms: N_2  and  S_1 
REMARK    2  A    between atoms: C_6  and  S_1 
REMARK    3  A    between atoms: C_3  and  N_2 
REMARK       I    between atoms: C_7  and  N_13 
REMARK    4  A    between atoms: C_10  and  C_7 
REMARK    5  A    between atoms: C_12  and  C_10 
REMARK    6  A    between atoms: C_11  and  C_12 
ROOT
ATOM      1  C   UNL d   1     -40.127  14.938  19.419  0.00  0.00     0.105 A 
ATOM      2  C   UNL d   1     -39.211  15.266  22.652  0.00  0.00     0.280 C 
ATOM      3  N   UNL d   1     -39.658  15.739  22.143  0.00  0.00    -0.208 NA
ATOM      4  O   UNL d   1     -39.075  15.491  23.431  0.00  0.00    -0.265 OA
ATOM      5  C   UNL d   1     -40.441  15.643  19.691  0.00  0.00     0.015 A 
ATOM      6  C   UNL d   1     -39.685  14.459  19.901  0.00  0.00     0.015 A 
ATOM      7  C   UNL d   1     -39.862  15.401  20.975  0.00  0.00     0.085 A 
ATOM      8  C   UNL d   1     -40.308  15.878  20.477  0.00  0.00     0.020 A 
ATOM      9  C   UNL d   1     -39.550  14.691  20.688  0.00  0.00     0.020 A 
ENDROOT
BRANCH   1  10
ATOM     10  S   UNL d   1     -40.269  14.703  18.605  0.00  0.00     0.285 S 
ATOM     11  O   UNL d   1     -40.470  13.944  18.850  0.00  0.00    -0.198 OA
ATOM     12  O   UNL d   1     -40.061  15.484  18.362  0.00  0.00    -0.198 OA
BRANCH  10  13
ATOM     13  N   UNL d   1     -40.403  14.492  17.800  0.00  0.00    -0.158 NA
BRANCH  13  14
ATOM     14  C   UNL d   1     -39.790  14.537  17.257  0.00  0.00     0.094 A 
ATOM     15  C   UNL d   1     -39.260  13.916  17.186  0.00  0.00     0.018 A 
ATOM     16  C   UNL d   1     -38.651  13.976  16.637  0.00  0.00     0.002 A 
ATOM     17  C   UNL d   1     -39.347  13.221  17.677  0.00  0.00     0.002 C 
ATOM     18  C   UNL d   1     -38.577  14.632  16.182  0.00  0.00     0.000 A 
ATOM     19  C   UNL d   1     -39.101  15.267  16.240  0.00  0.00     0.002 A 
ATOM     20  C   UNL d   1     -37.940  14.668  15.624  0.00  0.00     0.000 C 
ATOM     21  C   UNL d   1     -39.709  15.222  16.777  0.00  0.00     0.018 A 
ATOM     22  C   UNL d   1     -40.229  15.857  16.833  0.00  0.00     0.002 C 
ENDBRANCH  13  14
ENDBRANCH  10  13
ENDBRANCH   1  10
BRANCH   2  23
ATOM     23  C   UNL d   1     -38.901  14.553  22.353  0.00  0.00     0.069 C 
BRANCH  23  24
ATOM     24  C   UNL d   1     -38.356  14.122  22.826  0.00  0.00     0.075 C 
BRANCH  24  25
ATOM     25  C   UNL d   1     -38.265  13.312  22.708  0.00  0.00     0.211 C 
ATOM     26  O   UNL d   1     -37.942  13.007  21.994  0.00  0.00    -0.644 OA
ATOM     27  O   UNL d   1     -38.492  12.771  23.294  0.00  0.00    -0.644 OA
ENDBRANCH  24  25
ENDBRANCH  23  24
ENDBRANCH   2  23
TORSDOF 6
ENDMDL
MODEL 4
REMARK VINA RESULT:      -4.9      7.718     10.487
REMARK  6 active torsions:
REMARK  status: ('A' for Active; 'I' for Inactive)
REMARK    1  A    between atoms: N_2  and  S_1 
REMARK    2  A    between atoms: C_6  and  S_1 
REMARK    3  A    between atoms: C_3  and  N_2 
REMARK       I    between atoms: C_7  and  N_13 
REMARK    4  A    between atoms: C_10  and  C_7 
REMARK    5  A    between atoms: C_12  and  C_10 
REMARK    6  A    between atoms: C_11  and  C_12 
ROOT
ATOM      1  C   UNL d   1     -39.216  14.856  17.672  0.00  0.00     0.105 A 
ATOM      2  C   UNL d   1     -41.183  14.394  20.378  0.00  0.00     0.280 C 
ATOM      3  N   UNL d   1     -41.346  14.566  19.587  0.00  0.00    -0.208 NA
ATOM      4  O   UNL d   1     -41.788  14.311  20.928  0.00  0.00    -0.265 OA
ATOM      5  C   UNL d   1     -39.993  14.945  17.428  0.00  0.00     0.015 A 
ATOM      6  C   UNL d   1     -39.034  14.688  18.444  0.00  0.00     0.015 A 
ATOM      7  C   UNL d   1     -40.438  14.691  18.762  0.00  0.00     0.085 A 
ATOM      8  C   UNL d   1     -40.611  14.862  17.977  0.00  0.00     0.020 A 
ATOM      9  C   UNL d   1     -39.650  14.604  18.996  0.00  0.00     0.020 A 
ENDROOT
BRANCH   1  10
ATOM     10  S   UNL d   1     -38.584  14.944  17.098  0.00  0.00     0.285 S 
ATOM     11  O   UNL d   1     -39.078  15.379  16.606  0.00  0.00    -0.198 OA
ATOM     12  O   UNL d   1     -38.083  14.496  17.608  0.00  0.00    -0.198 OA
BRANCH  10  13
ATOM     13  N   UNL d   1     -37.950  15.019  16.546  0.00  0.00    -0.158 NA
BRANCH  13  14
ATOM     14  C   UNL d   1     -37.950  14.569  15.860  0.00  0.00     0.094 A 
ATOM     15  C   UNL d   1     -37.955  14.940  15.129  0.00  0.00     0.018 A 
ATOM     16  C   UNL d   1     -37.955  14.476  14.450  0.00  0.00     0.002 A 
ATOM     17  C   UNL d   1     -37.961  15.794  15.082  0.00  0.00     0.002 C 
ATOM     18  C   UNL d   1     -37.950  13.676  14.505  0.00  0.00     0.000 A 
ATOM     19  C   UNL d   1     -37.945  13.286  15.231  0.00  0.00     0.002 A 
ATOM     20  C   UNL d   1     -37.950  13.222  13.789  0.00  0.00     0.000 C 
ATOM     21  C   UNL d   1     -37.945  13.731  15.912  0.00  0.00     0.018 A 
ATOM     22  C   UNL d   1     -37.940  13.339  16.635  0.00  0.00     0.002 C 
ENDBRANCH  13  14
ENDBRANCH  10  13
ENDBRANCH   1  10
BRANCH   2  23
ATOM     23  C   UNL d   1     -40.386  14.309  20.604  0.00  0.00     0.069 C 
BRANCH  23  24
ATOM     24  C   UNL d   1     -40.198  14.299  21.423  0.00  0.00     0.075 C 
BRANCH  24  25
ATOM     25  C   UNL d   1     -39.412  14.238  21.661  0.00  0.00     0.211 C 
ATOM     26  O   UNL d   1     -39.002  14.894  21.989  0.00  0.00    -0.644 OA
ATOM     27  O   UNL d   1     -39.000  13.523  21.583  0.00  0.00    -0.644 OA
ENDBRANCH  24  25
ENDBRANCH  23  24
ENDBRANCH   2  23
TORSDOF 6
ENDMDL
