MODEL 1
REMARK VINA RESULT:      -3.3      0.000      0.000
REMARK  6 active torsions:
REMARK  status: ('A' for Active; 'I' for Inactive)
REMARK    1  A    between atoms: O_8  and  S_1 
REMARK    2  A    between atoms: C_9  and  S_1 
REMARK    3  A    between atoms: C_7  and  C_2 
REMARK    4  A    between atoms: C_20  and  C_7 
REMARK    5  A    between atoms: C_14  and  O_8 
REMARK    6  A    between atoms: O_24  and  C_21 
ROOT
ATOM      1  C   UNL d   1      56.467   0.105  33.586  0.00  0.00     0.139 A 
ATOM      2  C   UNL d   1      57.486   0.439  32.799  0.00  0.00     0.064 A 
ATOM      3  C   UNL d   1      57.245   0.382  33.582  0.00  0.00     0.220 A 
ATOM      4  C   UNL d   1      56.863   0.199  32.314  0.00  0.00     0.105 A 
ATOM      5  O   UNL d   1      56.231  -0.008  32.803  0.00  0.00    -0.304 OA
ATOM      6  C   UNL d   1      56.957   0.202  31.504  0.00  0.00     0.050 A 
ATOM      7  C   UNL d   1      58.199   0.680  32.464  0.00  0.00     0.007 A 
ATOM      8  C   UNL d   1      57.669   0.444  31.170  0.00  0.00     0.116 A 
ATOM      9  O   UNL d   1      57.691   0.565  34.251  0.00  0.00    -0.284 OA
ATOM     10  C   UNL d   1      58.286   0.682  31.650  0.00  0.00     0.026 A 
ENDROOT
BRANCH   8  11
ATOM     11  O   UNL d   1      57.759   0.446  30.352  0.00  0.00    -0.227 OA
BRANCH  11  12
ATOM     12  S   UNL d   1      58.251  -0.108  29.989  0.00  0.00     0.304 S 
ATOM     13  O   UNL d   1      58.814   0.467  29.873  0.00  0.00    -0.193 OA
ATOM     14  O   UNL d   1      57.690  -0.698  30.100  0.00  0.00    -0.193 OA
BRANCH  12  15
ATOM     15  C   UNL d   1      58.751  -0.665  29.621  0.00  0.00     0.111 A 
ATOM     16  C   UNL d   1      58.435  -1.378  29.346  0.00  0.00     0.015 A 
ATOM     17  C   UNL d   1      58.929  -1.929  28.982  0.00  0.00     0.025 A 
ATOM     18  C   UNL d   1      59.740  -1.768  28.894  0.00  0.00     0.094 A 
ATOM     19  C   UNL d   1      60.044  -1.049  29.174  0.00  0.00     0.025 A 
ATOM     20  C   UNL d   1      59.547  -0.500  29.538  0.00  0.00     0.015 A 
BRANCH  18  21
ATOM     21  O   UNL d   1      60.226  -2.316  28.533  0.00  0.00    -0.328 OA
ATOM     22  C   UNL d   1      60.669  -2.833  28.992  0.00  0.00     0.181 C 
ENDBRANCH  18  21
ENDBRANCH  12  15
ENDBRANCH  11  12
ENDBRANCH   8  11
BRANCH   1  23
ATOM     23  C   UNL d   1      56.003  -0.036  34.253  0.00  0.00     0.029 C 
BRANCH  23  24
ATOM     24  C   UNL d   1      55.210   0.201  34.271  0.00  0.00     0.021 A 
ATOM     25  C   UNL d   1      54.773   0.188  33.578  0.00  0.00     0.099 A 
ATOM     26  N   UNL d   1      53.987   0.421  33.582  0.00  0.00    -0.242 NA
ATOM     27  C   UNL d   1      53.632   0.670  34.294  0.00  0.00     0.099 A 
ATOM     28  C   UNL d   1      54.077   0.681  34.991  0.00  0.00     0.021 A 
ATOM     29  C   UNL d   1      54.869   0.444  34.972  0.00  0.00     0.003 A 
ENDBRANCH  23  24
ENDBRANCH   1  23
TORSDOF 6
ENDMDL
MODEL 2
REMARK VINA RESULT:      -2.8      1.236      1.694
REMARK  6 active torsions:
REMARK  status: ('A' for Active; 'I' for Inactive)
REMARK    1  A    between atoms: O_8  and  S_1 
REMARK    2  A    between atoms: C_9  and  S_1 
REMARK    3  A    between atoms: C_7  and  C_2 
REMARK    4  A    between atoms: C_20  and  C_7 
REMARK    5  A    between atoms: C_14  and  O_8 
REMARK    6  A    between atoms: O_24  and  C_21 
ROOT
ATOM      1  C   UNL d   1      57.405   0.569  32.402  0.00  0.00     0.139 A 
ATOM      2  C   UNL d   1      58.612   0.442  31.858  0.00  0.00     0.064 A 
ATOM      3  C   UNL d   1      58.214   0.571  32.566  0.00  0.00     0.220 A 
ATOM      4  C   UNL d   1      58.055   0.361  31.255  0.00  0.00     0.105 A 
ATOM      5  O   UNL d   1      57.306   0.440  31.593  0.00  0.00    -0.304 OA
ATOM      6  C   UNL d   1      58.305   0.228  30.490  0.00  0.00     0.050 A 
ATOM      7  C   UNL d   1      59.416   0.389  31.687  0.00  0.00     0.007 A 
ATOM      8  C   UNL d   1      59.109   0.175  30.319  0.00  0.00     0.116 A 
ATOM      9  O   UNL d   1      58.553   0.682  33.309  0.00  0.00    -0.284 OA
ATOM     10  C   UNL d   1      59.660   0.256  30.917  0.00  0.00     0.026 A 
ENDROOT
BRANCH   8  11
ATOM     11  O   UNL d   1      59.356   0.041  29.546  0.00  0.00    -0.227 OA
BRANCH  11  12
ATOM     12  S   UNL d   1      59.647  -0.700  29.328  0.00  0.00     0.304 S 
ATOM     13  O   UNL d   1      60.407  -0.416  29.381  0.00  0.00    -0.193 OA
ATOM     14  O   UNL d   1      58.884  -0.997  29.270  0.00  0.00    -0.193 OA
BRANCH  12  15
ATOM     15  C   UNL d   1      59.947  -1.446  29.108  0.00  0.00     0.111 A 
ATOM     16  C   UNL d   1      59.435  -2.013  28.790  0.00  0.00     0.015 A 
ATOM     17  C   UNL d   1      59.730  -2.752  28.573  0.00  0.00     0.025 A 
ATOM     18  C   UNL d   1      60.537  -2.924  28.672  0.00  0.00     0.094 A 
ATOM     19  C   UNL d   1      61.040  -2.347  28.992  0.00  0.00     0.025 A 
ATOM     20  C   UNL d   1      60.741  -1.609  29.208  0.00  0.00     0.015 A 
BRANCH  18  21
ATOM     21  O   UNL d   1      60.826  -3.657  28.455  0.00  0.00    -0.328 OA
ATOM     22  C   UNL d   1      60.886  -4.254  29.015  0.00  0.00     0.181 C 
ENDBRANCH  18  21
ENDBRANCH  12  15
ENDBRANCH  11  12
ENDBRANCH   8  11
BRANCH   1  23
ATOM     23  C   UNL d   1      56.797   0.678  32.948  0.00  0.00     0.029 C 
BRANCH  23  24
ATOM     24  C   UNL d   1      56.250   0.074  33.095  0.00  0.00     0.021 A 
ATOM     25  C   UNL d   1      55.458   0.203  32.928  0.00  0.00     0.099 A 
ATOM     26  N   UNL d   1      54.905  -0.386  33.068  0.00  0.00    -0.242 NA
ATOM     27  C   UNL d   1      55.151  -1.119  33.381  0.00  0.00     0.099 A 
ATOM     28  C   UNL d   1      55.952  -1.244  33.548  0.00  0.00     0.021 A 
ATOM     29  C   UNL d   1      56.498  -0.641  33.402  0.00  0.00     0.003 A 
ENDBRANCH  23  24
ENDBRANCH   1  23
TORSDOF 6
ENDMDL
MODEL 3
REMARK VINA RESULT:      -0.8      1.956      6.021
REMARK  6 active torsions:
REMARK  status: ('A' for Active; 'I' for Inactive)
REMARK    1  A    between atoms: O_8  and  S_1 
REMARK    2  A    between atoms: C_9  and  S_1 
REMARK    3  A    between atoms: C_7  and  C_2 
REMARK    4  A    between atoms: C_20  and  C_7 
REMARK    5  A    between atoms: C_14  and  O_8 
REMARK    6  A    between atoms: O_24  and  C_21 
ROOT
ATOM      1  C   UNL d   1      57.846  -0.094  30.291  0.00  0.00     0.139 A 
ATOM      2  C   UNL d   1      57.309  -0.517  31.431  0.00  0.00     0.064 A 
ATOM      3  C   UNL d   1      57.522  -0.750  30.672  0.00  0.00     0.220 A 
ATOM      4  C   UNL d   1      57.498   0.280  31.525  0.00  0.00     0.105 A 
ATOM      5  O   UNL d   1      57.832   0.542  30.816  0.00  0.00    -0.304 OA
ATOM      6  C   UNL d   1      57.343   0.652  32.233  0.00  0.00     0.050 A 
ATOM      7  C   UNL d   1      56.964  -0.934  32.052  0.00  0.00     0.007 A 
ATOM      8  C   UNL d   1      56.998   0.235  32.854  0.00  0.00     0.116 A 
ATOM      9  O   UNL d   1      57.432  -1.500  30.342  0.00  0.00    -0.284 OA
ATOM     10  C   UNL d   1      56.810  -0.554  32.761  0.00  0.00     0.026 A 
ENDROOT
BRANCH   8  11
ATOM     11  O   UNL d   1      56.843   0.615  33.567  0.00  0.00    -0.227 OA
BRANCH  11  12
ATOM     12  S   UNL d   1      56.077   0.620  33.875  0.00  0.00     0.304 S 
ATOM     13  O   UNL d   1      56.380   0.676  34.627  0.00  0.00    -0.193 OA
ATOM     14  O   UNL d   1      55.760   0.564  33.120  0.00  0.00    -0.193 OA
BRANCH  12  15
ATOM     15  C   UNL d   1      55.305   0.625  34.190  0.00  0.00     0.111 A 
ATOM     16  C   UNL d   1      54.657   0.672  33.679  0.00  0.00     0.015 A 
ATOM     17  C   UNL d   1      53.892   0.677  33.991  0.00  0.00     0.025 A 
ATOM     18  C   UNL d   1      53.777   0.637  34.812  0.00  0.00     0.094 A 
ATOM     19  C   UNL d   1      54.436   0.591  35.314  0.00  0.00     0.025 A 
ATOM     20  C   UNL d   1      55.199   0.585  34.999  0.00  0.00     0.015 A 
BRANCH  18  21
ATOM     21  O   UNL d   1      53.019   0.642  35.117  0.00  0.00    -0.328 OA
ATOM     22  C   UNL d   1      52.377   0.555  34.614  0.00  0.00     0.181 C 
ENDBRANCH  18  21
ENDBRANCH  12  15
ENDBRANCH  11  12
ENDBRANCH   8  11
BRANCH   1  23
ATOM     23  C   UNL d   1      58.136  -0.072  29.519  0.00  0.00     0.029 C 
BRANCH  23  24
ATOM     24  C   UNL d   1      58.938  -0.209  29.366  0.00  0.00     0.021 A 
ATOM     25  C   UNL d   1      59.477   0.395  29.490  0.00  0.00     0.099 A 
ATOM     26  N   UNL d   1      60.274   0.273  29.343  0.00  0.00    -0.242 NA
ATOM     27  C   UNL d   1      60.536  -0.469  29.066  0.00  0.00     0.099 A 
ATOM     28  C   UNL d   1      59.988  -1.075  28.942  0.00  0.00     0.021 A 
ATOM     29  C   UNL d   1      59.186  -0.938  29.095  0.00  0.00     0.003 A 
ENDBRANCH  23  24
ENDBRANCH   1  23
TORSDOF 6
ENDMDL
