MODEL 1
REMARK VINA RESULT:      -7.2      0.000      0.000
REMARK  6 active torsions:
REMARK  status: ('A' for Active; 'I' for Inactive)
REMARK    1  A    between atoms: C_13  and  C_3 
REMARK    2  A    between atoms: S_12  and  C_4 
REMARK    3  A    between atoms: C_8  and  C_6 
REMARK    4  A    between atoms: O_17  and  C_8 
REMARK    5  A    between atoms: C_10  and  C_16 
REMARK    6  A    between atoms: C_16  and  S_12 
ROOT
ATOM      1  O   UNL d   1      52.349  33.538  53.792  0.00  0.00    -0.263 OA
ATOM      2  N   UNL d   1      52.713  32.368  53.265  0.00  0.00    -0.120 NA
ATOM      3  C   UNL d   1      52.969  32.987  53.732  0.00  0.00     0.205 A 
ATOM      4  C   UNL d   1      51.714  33.242  53.353  0.00  0.00     0.236 A 
ATOM      5  N   UNL d   1      51.937  32.523  53.030  0.00  0.00    -0.114 NA
ENDROOT
BRANCH   4   6
ATOM      6  S   UNL d   1      50.969  33.606  53.252  0.00  0.00    -0.039 SA
BRANCH   6   7
ATOM      7  C   UNL d   1      50.823  34.071  52.585  0.00  0.00     0.064 C 
BRANCH   7   8
ATOM      8  C   UNL d   1      50.108  34.474  52.518  0.00  0.00     0.107 A 
ATOM      9  O   UNL d   1      49.706  34.981  53.033  0.00  0.00    -0.301 OA
ATOM     10  C   UNL d   1      49.001  35.222  52.657  0.00  0.00     0.163 A 
ATOM     11  C   UNL d   1      48.980  34.860  51.918  0.00  0.00     0.032 A 
ATOM     12  C   UNL d   1      49.651  34.404  51.828  0.00  0.00     0.027 A 
BRANCH  10  13
ATOM     13  C   UNL d   1      48.427  35.732  52.969  0.00  0.00     0.319 C 
ATOM     14  O   UNL d   1      47.711  35.840  52.564  0.00  0.00    -0.257 OA
BRANCH  13  15
ATOM     15  O   UNL d   1      48.560  36.132  53.678  0.00  0.00    -0.294 OA
ATOM     16  C   UNL d   1      47.982  36.634  53.995  0.00  0.00     0.185 C 
ENDBRANCH  13  15
ENDBRANCH  10  13
ENDBRANCH   7   8
ENDBRANCH   6   7
ENDBRANCH   4   6
BRANCH   3  17
ATOM     17  C   UNL d   1      53.698  33.102  54.105  0.00  0.00     0.046 A 
ATOM     18  C   UNL d   1      54.385  33.113  53.656  0.00  0.00     0.024 A 
ATOM     19  C   UNL d   1      55.115  33.227  54.021  0.00  0.00     0.099 A 
ATOM     20  N   UNL d   1      55.163  33.332  54.839  0.00  0.00    -0.242 NA
ATOM     21  C   UNL d   1      54.467  33.321  55.291  0.00  0.00     0.099 A 
ATOM     22  C   UNL d   1      53.741  33.206  54.922  0.00  0.00     0.024 A 
ENDBRANCH   3  17
TORSDOF 6
ENDMDL
MODEL 2
REMARK VINA RESULT:      -7.1      1.788      5.453
REMARK  6 active torsions:
REMARK  status: ('A' for Active; 'I' for Inactive)
REMARK    1  A    between atoms: C_13  and  C_3 
REMARK    2  A    between atoms: S_12  and  C_4 
REMARK    3  A    between atoms: C_8  and  C_6 
REMARK    4  A    between atoms: O_17  and  C_8 
REMARK    5  A    between atoms: C_10  and  C_16 
REMARK    6  A    between atoms: C_16  and  S_12 
ROOT
ATOM      1  O   UNL d   1      49.992  34.737  53.032  0.00  0.00    -0.263 OA
ATOM      2  N   UNL d   1      49.696  34.512  51.752  0.00  0.00    -0.120 NA
ATOM      3  C   UNL d   1      49.430  34.871  52.435  0.00  0.00     0.205 A 
ATOM      4  C   UNL d   1      50.603  34.291  52.700  0.00  0.00     0.236 A 
ATOM      5  N   UNL d   1      50.422  34.152  51.913  0.00  0.00    -0.114 NA
ENDROOT
BRANCH   4   6
ATOM      6  S   UNL d   1      51.291  34.022  53.090  0.00  0.00    -0.039 SA
BRANCH   6   7
ATOM      7  C   UNL d   1      51.638  33.305  52.872  0.00  0.00     0.064 C 
BRANCH   7   8
ATOM      8  C   UNL d   1      52.320  33.048  53.255  0.00  0.00     0.107 A 
ATOM      9  O   UNL d   1      52.733  33.340  53.909  0.00  0.00    -0.301 OA
ATOM     10  C   UNL d   1      53.389  32.841  54.041  0.00  0.00     0.163 A 
ATOM     11  C   UNL d   1      53.370  32.252  53.468  0.00  0.00     0.032 A 
ATOM     12  C   UNL d   1      52.722  32.372  52.986  0.00  0.00     0.027 A 
BRANCH  10  13
ATOM     13  C   UNL d   1      53.956  32.924  54.639  0.00  0.00     0.319 C 
ATOM     14  O   UNL d   1      53.942  32.413  55.292  0.00  0.00    -0.257 OA
BRANCH  13  15
ATOM     15  O   UNL d   1      54.536  33.510  54.592  0.00  0.00    -0.294 OA
ATOM     16  C   UNL d   1      55.039  33.659  55.233  0.00  0.00     0.185 C 
ENDBRANCH  13  15
ENDBRANCH  10  13
ENDBRANCH   7   8
ENDBRANCH   6   7
ENDBRANCH   4   6
BRANCH   3  17
ATOM     17  C   UNL d   1      48.738  35.303  52.570  0.00  0.00     0.046 A 
ATOM     18  C   UNL d   1      48.162  35.338  51.987  0.00  0.00     0.024 A 
ATOM     19  C   UNL d   1      47.470  35.767  52.115  0.00  0.00     0.099 A 
ATOM     20  N   UNL d   1      47.349  36.164  52.829  0.00  0.00    -0.242 NA
ATOM     21  C   UNL d   1      47.933  36.127  53.418  0.00  0.00     0.099 A 
ATOM     22  C   UNL d   1      48.621  35.698  53.285  0.00  0.00     0.024 A 
ENDBRANCH   3  17
TORSDOF 6
ENDMDL
MODEL 3
REMARK VINA RESULT:      -6.8      2.425      5.608
REMARK  6 active torsions:
REMARK  status: ('A' for Active; 'I' for Inactive)
REMARK    1  A    between atoms: C_13  and  C_3 
REMARK    2  A    between atoms: S_12  and  C_4 
REMARK    3  A    between atoms: C_8  and  C_6 
REMARK    4  A    between atoms: O_17  and  C_8 
REMARK    5  A    between atoms: C_10  and  C_16 
REMARK    6  A    between atoms: C_16  and  S_12 
ROOT
ATOM      1  O   UNL d   1      50.999  33.555  52.942  0.00  0.00    -0.263 OA
ATOM      2  N   UNL d   1      51.465  34.803  52.896  0.00  0.00    -0.120 NA
ATOM      3  C   UNL d   1      50.807  34.341  52.755  0.00  0.00     0.205 A 
ATOM      4  C   UNL d   1      51.785  33.547  53.197  0.00  0.00     0.236 A 
ATOM      5  N   UNL d   1      52.072  34.314  53.169  0.00  0.00    -0.114 NA
ENDROOT
BRANCH   4   6
ATOM      6  S   UNL d   1      52.221  32.879  53.444  0.00  0.00    -0.039 SA
BRANCH   6   7
ATOM      7  C   UNL d   1      52.565  32.379  52.884  0.00  0.00     0.064 C 
BRANCH   7   8
ATOM      8  C   UNL d   1      52.893  31.663  53.123  0.00  0.00     0.107 A 
ATOM      9  O   UNL d   1      52.552  30.946  53.355  0.00  0.00    -0.301 OA
ATOM     10  C   UNL d   1      53.170  30.415  53.537  0.00  0.00     0.163 A 
ATOM     11  C   UNL d   1      53.880  30.813  53.414  0.00  0.00     0.032 A 
ATOM     12  C   UNL d   1      53.718  31.572  53.162  0.00  0.00     0.027 A 
BRANCH  10  13
ATOM     13  C   UNL d   1      53.086  29.632  53.793  0.00  0.00     0.319 C 
ATOM     14  O   UNL d   1      52.600  29.111  53.369  0.00  0.00    -0.257 OA
BRANCH  13  15
ATOM     15  O   UNL d   1      53.481  29.365  54.467  0.00  0.00    -0.294 OA
ATOM     16  C   UNL d   1      53.344  28.604  54.764  0.00  0.00     0.185 C 
ENDBRANCH  13  15
ENDBRANCH  10  13
ENDBRANCH   7   8
ENDBRANCH   6   7
ENDBRANCH   4   6
BRANCH   3  17
ATOM     17  C   UNL d   1      50.058  34.557  52.479  0.00  0.00     0.046 A 
ATOM     18  C   UNL d   1      49.546  34.966  52.973  0.00  0.00     0.024 A 
ATOM     19  C   UNL d   1      48.798  35.185  52.704  0.00  0.00     0.099 A 
ATOM     20  N   UNL d   1      48.557  34.995  51.937  0.00  0.00    -0.242 NA
ATOM     21  C   UNL d   1      49.076  34.582  51.439  0.00  0.00     0.099 A 
ATOM     22  C   UNL d   1      49.821  34.366  51.712  0.00  0.00     0.024 A 
ENDBRANCH   3  17
TORSDOF 6
ENDMDL
MODEL 4
REMARK VINA RESULT:      -5.4     10.075     10.959
REMARK  6 active torsions:
REMARK  status: ('A' for Active; 'I' for Inactive)
REMARK    1  A    between atoms: C_13  and  C_3 
REMARK    2  A    between atoms: S_12  and  C_4 
REMARK    3  A    between atoms: C_8  and  C_6 
REMARK    4  A    between atoms: O_17  and  C_8 
REMARK    5  A    between atoms: C_10  and  C_16 
REMARK    6  A    between atoms: C_16  and  S_12 
ROOT
ATOM      1  O   UNL d   1      44.474  29.900  60.467  0.00  0.00    -0.263 OA
ATOM      2  N   UNL d   1      45.072  31.083  60.319  0.00  0.00    -0.120 NA
ATOM      3  C   UNL d   1      44.713  30.591  60.862  0.00  0.00     0.205 A 
ATOM      4  C   UNL d   1      44.695  29.981  59.674  0.00  0.00     0.236 A 
ATOM      5  N   UNL d   1      45.063  30.708  59.583  0.00  0.00    -0.114 NA
ENDROOT
BRANCH   4   6
ATOM      6  S   UNL d   1      44.570  29.425  59.064  0.00  0.00    -0.039 SA
BRANCH   6   7
ATOM      7  C   UNL d   1      44.954  29.513  58.339  0.00  0.00     0.064 C 
BRANCH   7   8
ATOM      8  C   UNL d   1      44.916  28.909  57.781  0.00  0.00     0.107 A 
ATOM      9  O   UNL d   1      45.201  28.133  57.783  0.00  0.00    -0.301 OA
ATOM     10  C   UNL d   1      44.991  27.781  57.055  0.00  0.00     0.163 A 
ATOM     11  C   UNL d   1      44.582  28.345  56.618  0.00  0.00     0.032 A 
ATOM     12  C   UNL d   1      44.532  29.033  57.054  0.00  0.00     0.027 A 
BRANCH  10  13
ATOM     13  C   UNL d   1      45.164  27.007  56.816  0.00  0.00     0.319 C 
ATOM     14  O   UNL d   1      45.953  26.765  56.742  0.00  0.00    -0.257 OA
BRANCH  13  15
ATOM     15  O   UNL d   1      44.556  26.472  56.650  0.00  0.00    -0.294 OA
ATOM     16  C   UNL d   1      44.728  25.703  56.395  0.00  0.00     0.185 C 
ENDBRANCH  13  15
ENDBRANCH  10  13
ENDBRANCH   7   8
ENDBRANCH   6   7
ENDBRANCH   4   6
BRANCH   3  17
ATOM     17  C   UNL d   1      44.580  30.703  61.671  0.00  0.00     0.046 A 
ATOM     18  C   UNL d   1      44.449  31.460  61.959  0.00  0.00     0.024 A 
ATOM     19  C   UNL d   1      44.316  31.580  62.763  0.00  0.00     0.099 A 
ATOM     20  N   UNL d   1      44.314  30.941  63.286  0.00  0.00    -0.242 NA
ATOM     21  C   UNL d   1      44.447  30.176  62.994  0.00  0.00     0.099 A 
ATOM     22  C   UNL d   1      44.579  30.062  62.191  0.00  0.00     0.024 A 
ENDBRANCH   3  17
TORSDOF 6
ENDMDL
MODEL 5
REMARK VINA RESULT:      -5.1      9.890     10.880
REMARK  6 active torsions:
REMARK  status: ('A' for Active; 'I' for Inactive)
REMARK    1  A    between atoms: C_13  and  C_3 
REMARK    2  A    between atoms: S_12  and  C_4 
REMARK    3  A    between atoms: C_8  and  C_6 
REMARK    4  A    between atoms: O_17  and  C_8 
REMARK    5  A    between atoms: C_10  and  C_16 
REMARK    6  A    between atoms: C_16  and  S_12 
ROOT
ATOM      1  O   UNL d   1      45.007  28.649  57.065  0.00  0.00    -0.263 OA
ATOM      2  N   UNL d   1      45.282  28.921  58.341  0.00  0.00    -0.120 NA
ATOM      3  C   UNL d   1      45.048  29.254  57.633  0.00  0.00     0.205 A 
ATOM      4  C   UNL d   1      45.220  27.944  57.439  0.00  0.00     0.236 A 
ATOM      5  N   UNL d   1      45.389  28.110  58.224  0.00  0.00    -0.114 NA
ENDROOT
BRANCH   4   6
ATOM      6  S   UNL d   1      45.259  27.187  57.089  0.00  0.00    -0.039 SA
BRANCH   6   7
ATOM      7  C   UNL d   1      44.683  26.621  57.260  0.00  0.00     0.064 C 
BRANCH   7   8
ATOM      8  C   UNL d   1      44.651  25.925  56.821  0.00  0.00     0.107 A 
ATOM      9  O   UNL d   1      44.724  25.776  56.011  0.00  0.00    -0.301 OA
ATOM     10  C   UNL d   1      44.642  24.953  55.894  0.00  0.00     0.163 A 
ATOM     11  C   UNL d   1      44.520  24.611  56.631  0.00  0.00     0.032 A 
ATOM     12  C   UNL d   1      44.525  25.196  57.200  0.00  0.00     0.027 A 
BRANCH  10  13
ATOM     13  C   UNL d   1      44.677  24.555  55.168  0.00  0.00     0.319 C 
ATOM     14  O   UNL d   1      44.315  24.886  54.500  0.00  0.00    -0.257 OA
BRANCH  13  15
ATOM     15  O   UNL d   1      45.068  23.831  55.104  0.00  0.00    -0.294 OA
ATOM     16  C   UNL d   1      45.092  23.425  54.382  0.00  0.00     0.185 C 
ENDBRANCH  13  15
ENDBRANCH  10  13
ENDBRANCH   7   8
ENDBRANCH   6   7
ENDBRANCH   4   6
BRANCH   3  17
ATOM     17  C   UNL d   1      44.870  30.041  57.452  0.00  0.00     0.046 A 
ATOM     18  C   UNL d   1      44.959  30.619  58.028  0.00  0.00     0.024 A 
ATOM     19  C   UNL d   1      44.783  31.406  57.856  0.00  0.00     0.099 A 
ATOM     20  N   UNL d   1      44.517  31.619  57.103  0.00  0.00    -0.242 NA
ATOM     21  C   UNL d   1      44.429  31.034  56.522  0.00  0.00     0.099 A 
ATOM     22  C   UNL d   1      44.605  30.251  56.700  0.00  0.00     0.024 A 
ENDBRANCH   3  17
TORSDOF 6
ENDMDL
MODEL 6
REMARK VINA RESULT:      -5.0      9.960     10.912
REMARK  6 active torsions:
REMARK  status: ('A' for Active; 'I' for Inactive)
REMARK    1  A    between atoms: C_13  and  C_3 
REMARK    2  A    between atoms: S_12  and  C_4 
REMARK    3  A    between atoms: C_8  and  C_6 
REMARK    4  A    between atoms: O_17  and  C_8 
REMARK    5  A    between atoms: C_10  and  C_16 
REMARK    6  A    between atoms: C_16  and  S_12 
ROOT
ATOM      1  O   UNL d   1      44.580  28.659  57.530  0.00  0.00    -0.263 OA
ATOM      2  N   UNL d   1      44.975  29.567  56.637  0.00  0.00    -0.120 NA
ATOM      3  C   UNL d   1      44.786  29.457  57.423  0.00  0.00     0.205 A 
ATOM      4  C   UNL d   1      44.648  28.287  56.795  0.00  0.00     0.236 A 
ATOM      5  N   UNL d   1      44.890  28.845  56.246  0.00  0.00    -0.114 NA
ENDROOT
BRANCH   4   6
ATOM      6  S   UNL d   1      44.498  27.482  56.630  0.00  0.00    -0.039 SA
BRANCH   6   7
ATOM      7  C   UNL d   1      45.052  26.906  56.839  0.00  0.00     0.064 C 
BRANCH   7   8
ATOM      8  C   UNL d   1      44.932  26.124  56.612  0.00  0.00     0.107 A 
ATOM      9  O   UNL d   1      45.111  25.714  55.917  0.00  0.00    -0.301 OA
ATOM     10  C   UNL d   1      44.854  24.925  56.012  0.00  0.00     0.163 A 
ATOM     11  C   UNL d   1      44.522  24.863  56.762  0.00  0.00     0.032 A 
ATOM     12  C   UNL d   1      44.566  25.588  57.132  0.00  0.00     0.027 A 
BRANCH  10  13
ATOM     13  C   UNL d   1      44.921  24.316  55.454  0.00  0.00     0.319 C 
ATOM     14  O   UNL d   1      45.290  23.604  55.665  0.00  0.00    -0.257 OA
BRANCH  13  15
ATOM     15  O   UNL d   1      44.623  24.411  54.689  0.00  0.00    -0.294 OA
ATOM     16  C   UNL d   1      44.658  23.790  54.142  0.00  0.00     0.185 C 
ENDBRANCH  13  15
ENDBRANCH  10  13
ENDBRANCH   7   8
ENDBRANCH   6   7
ENDBRANCH   4   6
BRANCH   3  17
ATOM     17  C   UNL d   1      44.780  30.000  58.047  0.00  0.00     0.046 A 
ATOM     18  C   UNL d   1      44.334  30.686  57.984  0.00  0.00     0.024 A 
ATOM     19  C   UNL d   1      44.324  31.232  58.601  0.00  0.00     0.099 A 
ATOM     20  N   UNL d   1      44.761  31.094  59.288  0.00  0.00    -0.242 NA
ATOM     21  C   UNL d   1      45.211  30.400  59.352  0.00  0.00     0.099 A 
ATOM     22  C   UNL d   1      45.218  29.859  58.733  0.00  0.00     0.024 A 
ENDBRANCH   3  17
TORSDOF 6
ENDMDL
MODEL 7
REMARK VINA RESULT:      -4.9     10.034     10.796
REMARK  6 active torsions:
REMARK  status: ('A' for Active; 'I' for Inactive)
REMARK    1  A    between atoms: C_13  and  C_3 
REMARK    2  A    between atoms: S_12  and  C_4 
REMARK    3  A    between atoms: C_8  and  C_6 
REMARK    4  A    between atoms: O_17  and  C_8 
REMARK    5  A    between atoms: C_10  and  C_16 
REMARK    6  A    between atoms: C_16  and  S_12 
ROOT
ATOM      1  O   UNL d   1      44.458  29.817  61.104  0.00  0.00    -0.263 OA
ATOM      2  N   UNL d   1      44.844  30.786  61.933  0.00  0.00    -0.120 NA
ATOM      3  C   UNL d   1      44.648  29.995  61.893  0.00  0.00     0.205 A 
ATOM      4  C   UNL d   1      44.542  30.513  60.666  0.00  0.00     0.236 A 
ATOM      5  N   UNL d   1      44.779  31.109  61.176  0.00  0.00    -0.114 NA
ENDROOT
BRANCH   4   6
ATOM      6  S   UNL d   1      44.410  30.604  59.847  0.00  0.00    -0.039 SA
BRANCH   6   7
ATOM      7  C   UNL d   1      45.040  30.782  59.344  0.00  0.00     0.064 C 
BRANCH   7   8
ATOM      8  C   UNL d   1      44.933  30.747  58.528  0.00  0.00     0.107 A 
ATOM      9  O   UNL d   1      44.899  30.113  57.999  0.00  0.00    -0.301 OA
ATOM     10  C   UNL d   1      44.778  30.423  57.234  0.00  0.00     0.163 A 
ATOM     11  C   UNL d   1      44.740  31.242  57.303  0.00  0.00     0.032 A 
ATOM     12  C   UNL d   1      44.833  31.446  58.088  0.00  0.00     0.027 A 
BRANCH  10  13
ATOM     13  C   UNL d   1      44.710  29.988  56.532  0.00  0.00     0.319 C 
ATOM     14  O   UNL d   1      44.767  29.161  56.554  0.00  0.00    -0.257 OA
BRANCH  13  15
ATOM     15  O   UNL d   1      44.585  30.370  55.811  0.00  0.00    -0.294 OA
ATOM     16  C   UNL d   1      44.345  29.942  55.143  0.00  0.00     0.185 C 
ENDBRANCH  13  15
ENDBRANCH  10  13
ENDBRANCH   7   8
ENDBRANCH   6   7
ENDBRANCH   4   6
BRANCH   3  17
ATOM     17  C   UNL d   1      44.624  29.425  62.491  0.00  0.00     0.046 A 
ATOM     18  C   UNL d   1      44.346  29.629  63.235  0.00  0.00     0.024 A 
ATOM     19  C   UNL d   1      44.319  29.067  63.837  0.00  0.00     0.099 A 
ATOM     20  N   UNL d   1      44.571  28.293  63.696  0.00  0.00    -0.242 NA
ATOM     21  C   UNL d   1      44.852  28.087  62.943  0.00  0.00     0.099 A 
ATOM     22  C   UNL d   1      44.877  28.652  62.347  0.00  0.00     0.024 A 
ENDBRANCH   3  17
TORSDOF 6
ENDMDL
MODEL 8
REMARK VINA RESULT:      -4.9      9.992     10.791
REMARK  6 active torsions:
REMARK  status: ('A' for Active; 'I' for Inactive)
REMARK    1  A    between atoms: C_13  and  C_3 
REMARK    2  A    between atoms: S_12  and  C_4 
REMARK    3  A    between atoms: C_8  and  C_6 
REMARK    4  A    between atoms: O_17  and  C_8 
REMARK    5  A    between atoms: C_10  and  C_16 
REMARK    6  A    between atoms: C_16  and  S_12 
ROOT
ATOM      1  O   UNL d   1      44.567  27.507  57.687  0.00  0.00    -0.263 OA
ATOM      2  N   UNL d   1      45.459  27.468  56.697  0.00  0.00    -0.120 NA
ATOM      3  C   UNL d   1      44.921  27.019  57.115  0.00  0.00     0.205 A 
ATOM      4  C   UNL d   1      44.899  28.259  57.609  0.00  0.00     0.236 A 
ATOM      5  N   UNL d   1      45.448  28.236  57.001  0.00  0.00    -0.114 NA
ENDROOT
BRANCH   4   6
ATOM      6  S   UNL d   1      44.716  28.933  58.066  0.00  0.00    -0.039 SA
BRANCH   6   7
ATOM      7  C   UNL d   1      45.305  29.307  58.507  0.00  0.00     0.064 C 
BRANCH   7   8
ATOM      8  C   UNL d   1      45.095  29.847  59.093  0.00  0.00     0.107 A 
ATOM      9  O   UNL d   1      45.029  29.777  59.914  0.00  0.00    -0.301 OA
ATOM     10  C   UNL d   1      44.793  30.518  60.216  0.00  0.00     0.163 A 
ATOM     11  C   UNL d   1      44.717  31.031  59.578  0.00  0.00     0.032 A 
ATOM     12  C   UNL d   1      44.900  30.629  58.892  0.00  0.00     0.027 A 
BRANCH  10  13
ATOM     13  C   UNL d   1      44.659  30.704  61.013  0.00  0.00     0.319 C 
ATOM     14  O   UNL d   1      44.756  31.485  61.274  0.00  0.00    -0.257 OA
BRANCH  13  15
ATOM     15  O   UNL d   1      44.430  30.120  61.549  0.00  0.00    -0.294 OA
ATOM     16  C   UNL d   1      44.436  30.268  62.364  0.00  0.00     0.185 C 
ENDBRANCH  13  15
ENDBRANCH  10  13
ENDBRANCH   7   8
ENDBRANCH   6   7
ENDBRANCH   4   6
BRANCH   3  17
ATOM     17  C   UNL d   1      44.720  26.221  57.031  0.00  0.00     0.046 A 
ATOM     18  C   UNL d   1      44.558  25.772  57.699  0.00  0.00     0.024 A 
ATOM     19  C   UNL d   1      44.357  24.976  57.625  0.00  0.00     0.099 A 
ATOM     20  N   UNL d   1      44.316  24.624  56.879  0.00  0.00    -0.242 NA
ATOM     21  C   UNL d   1      44.479  25.079  56.204  0.00  0.00     0.099 A 
ATOM     22  C   UNL d   1      44.679  25.872  56.285  0.00  0.00     0.024 A 
ENDBRANCH   3  17
TORSDOF 6
ENDMDL
MODEL 9
REMARK VINA RESULT:      -4.6     10.715     11.312
REMARK  6 active torsions:
REMARK  status: ('A' for Active; 'I' for Inactive)
REMARK    1  A    between atoms: C_13  and  C_3 
REMARK    2  A    between atoms: S_12  and  C_4 
REMARK    3  A    between atoms: C_8  and  C_6 
REMARK    4  A    between atoms: O_17  and  C_8 
REMARK    5  A    between atoms: C_10  and  C_16 
REMARK    6  A    between atoms: C_16  and  S_12 
ROOT
ATOM      1  O   UNL d   1      44.523  25.360  57.069  0.00  0.00    -0.263 OA
ATOM      2  N   UNL d   1      44.978  24.956  55.883  0.00  0.00    -0.120 NA
ATOM      3  C   UNL d   1      44.706  24.695  56.606  0.00  0.00     0.205 A 
ATOM      4  C   UNL d   1      44.689  26.030  56.614  0.00  0.00     0.236 A 
ATOM      5  N   UNL d   1      44.969  25.782  55.885  0.00  0.00    -0.114 NA
ENDROOT
BRANCH   4   6
ATOM      6  S   UNL d   1      44.593  26.826  56.848  0.00  0.00    -0.039 SA
BRANCH   6   7
ATOM      7  C   UNL d   1      45.251  27.317  56.926  0.00  0.00     0.064 C 
BRANCH   7   8
ATOM      8  C   UNL d   1      45.168  28.059  57.274  0.00  0.00     0.107 A 
ATOM      9  O   UNL d   1      45.253  28.320  58.054  0.00  0.00    -0.301 OA
ATOM     10  C   UNL d   1      45.096  29.139  58.069  0.00  0.00     0.163 A 
ATOM     11  C   UNL d   1      44.918  29.370  57.300  0.00  0.00     0.032 A 
ATOM     12  C   UNL d   1      44.959  28.718  56.811  0.00  0.00     0.027 A 
BRANCH  10  13
ATOM     13  C   UNL d   1      45.117  29.632  58.735  0.00  0.00     0.319 C 
ATOM     14  O   UNL d   1      45.515  30.358  58.697  0.00  0.00    -0.257 OA
BRANCH  13  15
ATOM     15  O   UNL d   1      44.744  29.406  59.436  0.00  0.00    -0.294 OA
ATOM     16  C   UNL d   1      44.740  29.910  60.094  0.00  0.00     0.185 C 
ENDBRANCH  13  15
ENDBRANCH  10  13
ENDBRANCH   7   8
ENDBRANCH   6   7
ENDBRANCH   4   6
BRANCH   3  17
ATOM     17  C   UNL d   1      44.607  23.923  56.887  0.00  0.00     0.046 A 
ATOM     18  C   UNL d   1      44.583  23.298  56.355  0.00  0.00     0.024 A 
ATOM     19  C   UNL d   1      44.485  22.527  56.627  0.00  0.00     0.099 A 
ATOM     20  N   UNL d   1      44.410  22.375  57.435  0.00  0.00    -0.242 NA
ATOM     21  C   UNL d   1      44.434  23.007  57.972  0.00  0.00     0.099 A 
ATOM     22  C   UNL d   1      44.532  23.775  57.695  0.00  0.00     0.024 A 
ENDBRANCH   3  17
TORSDOF 6
ENDMDL
