MODEL 1
REMARK VINA RESULT:      -0.5      0.000      0.000
REMARK  6 active torsions:
REMARK  status: ('A' for Active; 'I' for Inactive)
REMARK    1  A    between atoms: S_3  and  C_1 
REMARK    2  A    between atoms: C_11  and  S_3 
REMARK    3  A    between atoms: N_8  and  C_4 
REMARK    4  A    between atoms: C_7  and  C_5 
REMARK    5  A    between atoms: C_18  and  N_8 
REMARK    6  A    between atoms: C_17  and  C_18 
ROOT
ATOM      1  C   UNL d   1      32.990  20.544 -22.253  0.00  0.00     0.212 A 
ATOM      2  N   UNL d   1      32.962  19.723 -22.207  0.00  0.00    -0.205 NA
ATOM      3  C   UNL d   1      33.094  20.753 -23.045  0.00  0.00     0.213 A 
ATOM      4  C   UNL d   1      33.050  19.423 -22.970  0.00  0.00     0.208 A 
ATOM      5  O   UNL d   1      33.130  20.057 -23.485  0.00  0.00    -0.267 OA
ENDROOT
BRANCH   1   6
ATOM      6  S   UNL d   1      32.917  21.004 -21.573  0.00  0.00     0.230 S 
ATOM      7  O   UNL d   1      33.222  21.769 -21.551  0.00  0.00    -0.215 OA
ATOM      8  O   UNL d   1      32.533  20.695 -20.903  0.00  0.00    -0.215 OA
BRANCH   6   9
ATOM      9  C   UNL d   1      32.840  21.458 -20.889  0.00  0.00     0.090 A 
ATOM     10  C   UNL d   1      33.235  21.238 -20.195  0.00  0.00     0.011 A 
ATOM     11  C   UNL d   1      33.156  21.696 -19.511  0.00  0.00     0.001 A 
ATOM     12  C   UNL d   1      32.679  22.376 -19.522  0.00  0.00     0.000 A 
ATOM     13  C   UNL d   1      32.284  22.596 -20.215  0.00  0.00     0.001 A 
ATOM     14  C   UNL d   1      32.368  22.132 -20.899  0.00  0.00     0.011 A 
ENDBRANCH   6   9
ENDBRANCH   1   6
BRANCH   3  15
ATOM     15  N   UNL d   1      33.151  21.521 -23.345  0.00  0.00    -0.219 NA
BRANCH  15  16
ATOM     16  C   UNL d   1      33.191  21.651 -24.154  0.00  0.00     0.103 C 
BRANCH  16  17
ATOM     17  C   UNL d   1      32.829  22.320 -24.470  0.00  0.00     0.038 A 
ATOM     18  C   UNL d   1      32.056  22.277 -24.765  0.00  0.00     0.101 A 
ATOM     19  N   UNL d   1      31.699  22.949 -25.079  0.00  0.00    -0.242 NA
ATOM     20  C   UNL d   1      32.115  23.657 -25.096  0.00  0.00     0.099 A 
ATOM     21  C   UNL d   1      32.880  23.702 -24.805  0.00  0.00     0.021 A 
ATOM     22  C   UNL d   1      33.241  23.029 -24.489  0.00  0.00     0.005 A 
ENDBRANCH  16  17
ENDBRANCH  15  16
ENDBRANCH   3  15
BRANCH   4  23
ATOM     23  C   UNL d   1      33.022  18.607 -22.924  0.00  0.00     0.141 A 
ATOM     24  O   UNL d   1      32.881  17.974 -22.421  0.00  0.00    -0.302 OA
ATOM     25  C   UNL d   1      32.978  17.276 -22.849  0.00  0.00     0.123 A 
ATOM     26  C   UNL d   1      33.182  17.484 -23.623  0.00  0.00     0.029 A 
ATOM     27  C   UNL d   1      33.209  18.304 -23.669  0.00  0.00     0.030 A 
ENDBRANCH   4  23
TORSDOF 6
ENDMDL
