MODEL 1
REMARK VINA RESULT:      -3.6      0.000      0.000
REMARK  3 active torsions:
REMARK  status: ('A' for Active; 'I' for Inactive)
REMARK       I    between atoms: C_2  and  N_1 
REMARK    1  A    between atoms: C_6  and  C_2 
REMARK    2  A    between atoms: O_14  and  C_9 
REMARK    3  A    between atoms: O_16  and  C_11 
ROOT
ATOM      1  C   UNL d   1      56.870  -0.187  31.738  0.00  0.00     0.060 A 
ATOM      2  C   UNL d   1      56.687  -0.828  32.220  0.00  0.00     0.031 A 
ATOM      3  C   UNL d   1      56.247  -0.722  32.905  0.00  0.00     0.116 A 
ATOM      4  C   UNL d   1      55.985   0.037  33.113  0.00  0.00     0.116 A 
ATOM      5  C   UNL d   1      56.608   0.572  31.946  0.00  0.00     0.007 A 
ATOM      6  C   UNL d   1      56.165   0.682  32.634  0.00  0.00     0.026 A 
ENDROOT
BRANCH   1   7
ATOM      7  C   UNL d   1      57.310  -0.297  31.053  0.00  0.00     0.280 C 
ATOM      8  N   UNL d   1      58.063   0.026  30.995  0.00  0.00    -0.195 N 
ATOM      9  N   UNL d   1      58.574  -0.037  30.342  0.00  0.00    -0.163 NA
ATOM     10  C   UNL d   1      58.447   0.470  31.572  0.00  0.00     0.088 A 
ATOM     11  C   UNL d   1      59.270   0.368  30.520  0.00  0.00     0.103 A 
ATOM     12  C   UNL d   1      59.928   0.446  30.024  0.00  0.00     0.022 C 
ATOM     13  C   UNL d   1      59.196   0.682  31.277  0.00  0.00     0.040 A 
ATOM     14  C   UNL d   1      58.143   0.671  32.316  0.00  0.00     0.021 C 
ATOM     15  O   UNL d   1      56.997  -0.731  30.425  0.00  0.00    -0.265 OA
ENDBRANCH   1   7
BRANCH   3  16
ATOM     16  O   UNL d   1      56.066  -1.366  33.384  0.00  0.00    -0.326 OA
ATOM     17  C   UNL d   1      55.487  -1.904  33.150  0.00  0.00     0.181 C 
ENDBRANCH   3  16
BRANCH   4  18
ATOM     18  O   UNL d   1      55.545   0.144  33.798  0.00  0.00    -0.326 OA
ATOM     19  C   UNL d   1      54.897   0.653  33.801  0.00  0.00     0.181 C 
ENDBRANCH   4  18
TORSDOF 3
ENDMDL
MODEL 2
REMARK VINA RESULT:      -3.1      1.550      3.537
REMARK  3 active torsions:
REMARK  status: ('A' for Active; 'I' for Inactive)
REMARK       I    between atoms: C_2  and  N_1 
REMARK    1  A    between atoms: C_6  and  C_2 
REMARK    2  A    between atoms: O_14  and  C_9 
REMARK    3  A    between atoms: O_16  and  C_11 
ROOT
ATOM      1  C   UNL d   1      57.436  -0.389  30.974  0.00  0.00     0.060 A 
ATOM      2  C   UNL d   1      57.906  -0.975  30.639  0.00  0.00     0.031 A 
ATOM      3  C   UNL d   1      58.400  -0.802  30.006  0.00  0.00     0.116 A 
ATOM      4  C   UNL d   1      58.426  -0.031  29.703  0.00  0.00     0.116 A 
ATOM      5  C   UNL d   1      57.462   0.382  30.670  0.00  0.00     0.007 A 
ATOM      6  C   UNL d   1      57.957   0.560  30.035  0.00  0.00     0.026 A 
ENDROOT
BRANCH   1   7
ATOM      7  C   UNL d   1      56.943  -0.566  31.606  0.00  0.00     0.280 C 
ATOM      8  N   UNL d   1      57.050  -0.187  32.327  0.00  0.00    -0.195 N 
ATOM      9  N   UNL d   1      56.598  -0.306  33.015  0.00  0.00    -0.163 NA
ATOM     10  C   UNL d   1      57.623   0.379  32.498  0.00  0.00     0.088 A 
ATOM     11  C   UNL d   1      56.895   0.187  33.607  0.00  0.00     0.103 A 
ATOM     12  C   UNL d   1      56.608   0.245  34.381  0.00  0.00     0.022 C 
ATOM     13  C   UNL d   1      57.526   0.610  33.292  0.00  0.00     0.040 A 
ATOM     14  C   UNL d   1      58.195   0.667  31.973  0.00  0.00     0.021 C 
ATOM     15  O   UNL d   1      56.341  -1.124  31.518  0.00  0.00    -0.265 OA
ENDBRANCH   1   7
BRANCH   3  16
ATOM     16  O   UNL d   1      58.869  -1.391  29.675  0.00  0.00    -0.326 OA
ATOM     17  C   UNL d   1      58.633  -2.181  29.722  0.00  0.00     0.181 C 
ENDBRANCH   3  16
BRANCH   4  18
ATOM     18  O   UNL d   1      58.920   0.143  29.071  0.00  0.00    -0.326 OA
ATOM     19  C   UNL d   1      58.658   0.629  28.459  0.00  0.00     0.181 C 
ENDBRANCH   4  18
TORSDOF 3
ENDMDL
MODEL 3
REMARK VINA RESULT:      -2.9      2.325      4.618
REMARK  3 active torsions:
REMARK  status: ('A' for Active; 'I' for Inactive)
REMARK       I    between atoms: C_2  and  N_1 
REMARK    1  A    between atoms: C_6  and  C_2 
REMARK    2  A    between atoms: O_14  and  C_9 
REMARK    3  A    between atoms: O_16  and  C_11 
ROOT
ATOM      1  C   UNL d   1      58.694  -0.639  29.213  0.00  0.00     0.060 A 
ATOM      2  C   UNL d   1      59.512  -0.557  29.180  0.00  0.00     0.031 A 
ATOM      3  C   UNL d   1      59.984  -1.184  28.938  0.00  0.00     0.116 A 
ATOM      4  C   UNL d   1      59.634  -1.905  28.725  0.00  0.00     0.116 A 
ATOM      5  C   UNL d   1      58.344  -1.360  29.000  0.00  0.00     0.007 A 
ATOM      6  C   UNL d   1      58.815  -1.992  28.757  0.00  0.00     0.026 A 
ENDROOT
BRANCH   1   7
ATOM      7  C   UNL d   1      58.225  -0.009  29.455  0.00  0.00     0.280 C 
ATOM      8  N   UNL d   1      57.826  -0.050  30.172  0.00  0.00    -0.195 N 
ATOM      9  N   UNL d   1      57.333   0.539  30.491  0.00  0.00    -0.163 NA
ATOM     10  C   UNL d   1      57.841  -0.679  30.702  0.00  0.00     0.088 A 
ATOM     11  C   UNL d   1      57.047   0.270  31.217  0.00  0.00     0.103 A 
ATOM     12  C   UNL d   1      56.537   0.682  31.722  0.00  0.00     0.022 C 
ATOM     13  C   UNL d   1      57.358  -0.481  31.350  0.00  0.00     0.040 A 
ATOM     14  C   UNL d   1      58.262  -1.386  30.608  0.00  0.00     0.021 C 
ATOM     15  O   UNL d   1      58.156   0.662  28.981  0.00  0.00    -0.265 OA
ENDBRANCH   1   7
BRANCH   3  16
ATOM     16  O   UNL d   1      60.801  -1.098  28.907  0.00  0.00    -0.326 OA
ATOM     17  C   UNL d   1      61.132  -0.397  28.625  0.00  0.00     0.181 C 
ENDBRANCH   3  16
BRANCH   4  18
ATOM     18  O   UNL d   1      60.105  -2.533  28.483  0.00  0.00    -0.326 OA
ATOM     19  C   UNL d   1      59.806  -3.300  28.478  0.00  0.00     0.181 C 
ENDBRANCH   4  18
TORSDOF 3
ENDMDL
MODEL 4
REMARK VINA RESULT:      -2.7      1.606      3.891
REMARK  3 active torsions:
REMARK  status: ('A' for Active; 'I' for Inactive)
REMARK       I    between atoms: C_2  and  N_1 
REMARK    1  A    between atoms: C_6  and  C_2 
REMARK    2  A    between atoms: O_14  and  C_9 
REMARK    3  A    between atoms: O_16  and  C_11 
ROOT
ATOM      1  C   UNL d   1      57.104  -0.017  32.536  0.00  0.00     0.060 A 
ATOM      2  C   UNL d   1      57.454   0.444  31.952  0.00  0.00     0.031 A 
ATOM      3  C   UNL d   1      57.596   0.133  31.205  0.00  0.00     0.116 A 
ATOM      4  C   UNL d   1      57.384  -0.651  31.039  0.00  0.00     0.116 A 
ATOM      5  C   UNL d   1      56.892  -0.801  32.370  0.00  0.00     0.007 A 
ATOM      6  C   UNL d   1      57.032  -1.117  31.621  0.00  0.00     0.026 A 
ENDROOT
BRANCH   1   7
ATOM      7  C   UNL d   1      56.965   0.298  33.283  0.00  0.00     0.280 C 
ATOM      8  N   UNL d   1      56.206   0.284  33.597  0.00  0.00    -0.195 N 
ATOM      9  N   UNL d   1      55.979   0.579  34.340  0.00  0.00    -0.163 NA
ATOM     10  C   UNL d   1      55.535  -0.024  33.232  0.00  0.00     0.088 A 
ATOM     11  C   UNL d   1      55.168   0.452  34.431  0.00  0.00     0.103 A 
ATOM     12  C   UNL d   1      54.713   0.661  35.090  0.00  0.00     0.022 C 
ATOM     13  C   UNL d   1      54.892   0.080  33.750  0.00  0.00     0.040 A 
ATOM     14  C   UNL d   1      55.504  -0.376  32.484  0.00  0.00     0.021 C 
ATOM     15  O   UNL d   1      57.585   0.627  33.715  0.00  0.00    -0.265 OA
ENDBRANCH   1   7
BRANCH   3  16
ATOM     16  O   UNL d   1      57.946   0.597  30.624  0.00  0.00    -0.326 OA
ATOM     17  C   UNL d   1      58.767   0.673  30.596  0.00  0.00     0.181 C 
ENDBRANCH   3  16
BRANCH   4  18
ATOM     18  O   UNL d   1      57.524  -0.963  30.292  0.00  0.00    -0.326 OA
ATOM     19  C   UNL d   1      57.933  -1.673  30.208  0.00  0.00     0.181 C 
ENDBRANCH   4  18
TORSDOF 3
ENDMDL
MODEL 5
REMARK VINA RESULT:      -2.3      3.144      4.470
REMARK  3 active torsions:
REMARK  status: ('A' for Active; 'I' for Inactive)
REMARK       I    between atoms: C_2  and  N_1 
REMARK    1  A    between atoms: C_6  and  C_2 
REMARK    2  A    between atoms: O_14  and  C_9 
REMARK    3  A    between atoms: O_16  and  C_11 
ROOT
ATOM      1  C   UNL d   1      59.868  -0.855  29.103  0.00  0.00     0.060 A 
ATOM      2  C   UNL d   1      60.049  -0.342  29.719  0.00  0.00     0.031 A 
ATOM      3  C   UNL d   1      59.480   0.170  30.016  0.00  0.00     0.116 A 
ATOM      4  C   UNL d   1      58.717   0.170  29.692  0.00  0.00     0.116 A 
ATOM      5  C   UNL d   1      59.104  -0.855  28.779  0.00  0.00     0.007 A 
ATOM      6  C   UNL d   1      58.530  -0.342  29.075  0.00  0.00     0.026 A 
ENDROOT
BRANCH   1   7
ATOM      7  C   UNL d   1      60.440  -1.366  28.808  0.00  0.00     0.280 C 
ATOM      8  N   UNL d   1      60.331  -2.179  28.866  0.00  0.00    -0.195 N 
ATOM      9  N   UNL d   1      60.857  -2.763  28.596  0.00  0.00    -0.163 NA
ATOM     10  C   UNL d   1      59.683  -2.559  29.202  0.00  0.00     0.088 A 
ATOM     11  C   UNL d   1      60.531  -3.502  28.766  0.00  0.00     0.103 A 
ATOM     12  C   UNL d   1      60.871  -4.236  28.592  0.00  0.00     0.022 C 
ATOM     13  C   UNL d   1      59.808  -3.380  29.140  0.00  0.00     0.040 A 
ATOM     14  C   UNL d   1      59.024  -2.192  29.542  0.00  0.00     0.021 C 
ATOM     15  O   UNL d   1      61.122  -1.065  28.455  0.00  0.00    -0.265 OA
ENDBRANCH   1   7
BRANCH   3  16
ATOM     16  O   UNL d   1      59.666   0.682  30.633  0.00  0.00    -0.326 OA
ATOM     17  C   UNL d   1      60.324   0.532  31.108  0.00  0.00     0.181 C 
ENDBRANCH   3  16
BRANCH   4  18
ATOM     18  O   UNL d   1      58.147   0.682  29.989  0.00  0.00    -0.326 OA
ATOM     19  C   UNL d   1      57.384   0.678  29.680  0.00  0.00     0.181 C 
ENDBRANCH   4  18
TORSDOF 3
ENDMDL
MODEL 6
REMARK VINA RESULT:      -1.8      8.742      9.799
REMARK  3 active torsions:
REMARK  status: ('A' for Active; 'I' for Inactive)
REMARK       I    between atoms: C_2  and  N_1 
REMARK    1  A    between atoms: C_6  and  C_2 
REMARK    2  A    between atoms: O_14  and  C_9 
REMARK    3  A    between atoms: O_16  and  C_11 
ROOT
ATOM      1  C   UNL d   1      59.278  -9.239  33.797  0.00  0.00     0.060 A 
ATOM      2  C   UNL d   1      59.137  -8.544  34.213  0.00  0.00     0.031 A 
ATOM      3  C   UNL d   1      59.487  -8.419  34.946  0.00  0.00     0.116 A 
ATOM      4  C   UNL d   1      59.984  -8.998  35.269  0.00  0.00     0.116 A 
ATOM      5  C   UNL d   1      59.776  -9.818  34.120  0.00  0.00     0.007 A 
ATOM      6  C   UNL d   1      60.128  -9.696  34.856  0.00  0.00     0.026 A 
ENDROOT
BRANCH   1   7
ATOM      7  C   UNL d   1      58.927  -9.360  33.064  0.00  0.00     0.280 C 
ATOM      8  N   UNL d   1      59.397  -9.471  32.399  0.00  0.00    -0.195 N 
ATOM      9  N   UNL d   1      59.125  -9.599  31.624  0.00  0.00    -0.163 NA
ATOM     10  C   UNL d   1      60.220  -9.476  32.381  0.00  0.00     0.088 A 
ATOM     11  C   UNL d   1      59.782  -9.682  31.131  0.00  0.00     0.103 A 
ATOM     12  C   UNL d   1      59.764  -9.818  30.315  0.00  0.00     0.022 C 
ATOM     13  C   UNL d   1      60.458  -9.607  31.594  0.00  0.00     0.040 A 
ATOM     14  C   UNL d   1      60.722  -9.369  33.030  0.00  0.00     0.021 C 
ATOM     15  O   UNL d   1      58.105  -9.370  32.996  0.00  0.00    -0.265 OA
ENDBRANCH   1   7
BRANCH   3  16
ATOM     16  O   UNL d   1      59.343  -7.722  35.359  0.00  0.00    -0.326 OA
ATOM     17  C   UNL d   1      58.606  -7.354  35.304  0.00  0.00     0.181 C 
ENDBRANCH   3  16
BRANCH   4  18
ATOM     18  O   UNL d   1      60.334  -8.874  36.002  0.00  0.00    -0.326 OA
ATOM     19  C   UNL d   1      60.838  -9.440  36.323  0.00  0.00     0.181 C 
ENDBRANCH   4  18
TORSDOF 3
ENDMDL
