MODEL 1
REMARK VINA RESULT:      -9.5      0.000      0.000
REMARK  1 active torsions:
REMARK  status: ('A' for Active; 'I' for Inactive)
REMARK    1  A    between atoms: C_14  and  C_7 
ROOT
ATOM      1  C   UNL d   1     -48.758  12.127  23.257  0.00  0.00     0.121 A 
ATOM      2  C   UNL d   1     -49.249  12.789  23.223  0.00  0.00     0.058 A 
ATOM      3  N   UNL d   1     -49.231  11.474  23.437  0.00  0.00    -0.195 NA
ATOM      4  S   UNL d   1     -47.951  12.205  23.120  0.00  0.00    -0.068 SA
ATOM      5  C   UNL d   1     -47.640  12.940  22.951  0.00  0.00     0.027 A 
ATOM      6  C   UNL d   1     -48.131  13.602  22.917  0.00  0.00     0.003 A 
ATOM      7  C   UNL d   1     -48.932  13.529  23.053  0.00  0.00     0.010 A 
ATOM      8  C   UNL d   1     -50.006  11.728  23.514  0.00  0.00     0.311 A 
ATOM      9  S   UNL d   1     -50.024  12.544  23.383  0.00  0.00    -0.024 SA
ATOM     10  C   UNL d   1     -47.340  14.146  22.707  0.00  0.00    -0.017 A 
ATOM     11  C   UNL d   1     -46.720  13.495  22.718  0.00  0.00    -0.012 A 
ATOM     12  C   UNL d   1     -45.784  13.193  22.624  0.00  0.00     0.053 A 
ATOM     13  O   UNL d   1     -50.658  11.255  23.692  0.00  0.00    -0.258 OA
ATOM     14  C   UNL d   1     -47.324  15.171  22.535  0.00  0.00    -0.004 A 
ATOM     15  C   UNL d   1     -46.839  14.413  22.586  0.00  0.00    -0.004 A 
ENDROOT
BRANCH   7  16
ATOM     16  C   UNL d   1     -49.422  14.191  23.019  0.00  0.00     0.020 A 
ATOM     17  C   UNL d   1     -49.772  14.409  22.298  0.00  0.00     0.099 A 
ATOM     18  N   UNL d   1     -50.261  15.073  22.273  0.00  0.00    -0.242 NA
ATOM     19  C   UNL d   1     -50.403  15.515  22.952  0.00  0.00     0.099 A 
ATOM     20  C   UNL d   1     -50.052  15.292  23.665  0.00  0.00     0.021 A 
ATOM     21  C   UNL d   1     -49.564  14.633  23.698  0.00  0.00     0.003 A 
ENDBRANCH   7  16
TORSDOF 1
ENDMDL
MODEL 2
REMARK VINA RESULT:      -9.1      1.424      2.598
REMARK  1 active torsions:
REMARK  status: ('A' for Active; 'I' for Inactive)
REMARK    1  A    between atoms: C_14  and  C_7 
ROOT
ATOM      1  C   UNL d   1     -49.000  15.025  22.614  0.00  0.00     0.121 A 
ATOM      2  C   UNL d   1     -49.370  14.292  22.693  0.00  0.00     0.058 A 
ATOM      3  N   UNL d   1     -49.590  15.594  22.518  0.00  0.00    -0.195 NA
ATOM      4  S   UNL d   1     -48.179  15.077  22.640  0.00  0.00    -0.068 SA
ATOM      5  C   UNL d   1     -47.735  14.400  22.744  0.00  0.00     0.027 A 
ATOM      6  C   UNL d   1     -48.106  13.667  22.823  0.00  0.00     0.003 A 
ATOM      7  C   UNL d   1     -48.919  13.612  22.797  0.00  0.00     0.010 A 
ATOM      8  C   UNL d   1     -50.318  15.219  22.536  0.00  0.00     0.311 A 
ATOM      9  S   UNL d   1     -50.188  14.409  22.645  0.00  0.00    -0.024 SA
ATOM     10  C   UNL d   1     -47.218  13.256  22.910  0.00  0.00    -0.017 A 
ATOM     11  C   UNL d   1     -46.716  13.999  22.836  0.00  0.00    -0.012 A 
ATOM     12  C   UNL d   1     -45.836  14.447  22.814  0.00  0.00     0.053 A 
ATOM     13  O   UNL d   1     -51.055  15.582  22.461  0.00  0.00    -0.258 OA
ATOM     14  C   UNL d   1     -47.016  12.246  23.047  0.00  0.00    -0.004 A 
ATOM     15  C   UNL d   1     -46.669  13.073  22.956  0.00  0.00    -0.004 A 
ENDROOT
BRANCH   7  16
ATOM     16  C   UNL d   1     -49.289  12.878  22.876  0.00  0.00     0.020 A 
ATOM     17  C   UNL d   1     -49.433  12.415  22.202  0.00  0.00     0.099 A 
ATOM     18  N   UNL d   1     -49.804  11.683  22.290  0.00  0.00    -0.242 NA
ATOM     19  C   UNL d   1     -50.029  11.413  23.033  0.00  0.00     0.099 A 
ATOM     20  C   UNL d   1     -49.882  11.880  23.698  0.00  0.00     0.021 A 
ATOM     21  C   UNL d   1     -49.515  12.608  23.620  0.00  0.00     0.003 A 
ENDBRANCH   7  16
TORSDOF 1
ENDMDL
MODEL 3
REMARK VINA RESULT:      -8.9      1.708      2.760
REMARK  1 active torsions:
REMARK  status: ('A' for Active; 'I' for Inactive)
REMARK    1  A    between atoms: C_14  and  C_7 
ROOT
ATOM      1  C   UNL d   1     -46.508  12.871  23.168  0.00  0.00     0.121 A 
ATOM      2  C   UNL d   1     -47.201  12.424  23.176  0.00  0.00     0.058 A 
ATOM      3  N   UNL d   1     -45.884  12.367  23.363  0.00  0.00    -0.195 NA
ATOM      4  S   UNL d   1     -46.536  13.672  22.986  0.00  0.00    -0.068 SA
ATOM      5  C   UNL d   1     -47.253  14.021  22.814  0.00  0.00     0.027 A 
ATOM      6  C   UNL d   1     -47.947  13.574  22.822  0.00  0.00     0.003 A 
ATOM      7  C   UNL d   1     -47.923  12.779  23.002  0.00  0.00     0.010 A 
ATOM      8  C   UNL d   1     -46.186  11.616  23.490  0.00  0.00     0.311 A 
ATOM      9  S   UNL d   1     -47.004  11.645  23.375  0.00  0.00    -0.024 SA
ATOM     10  C   UNL d   1     -48.443  14.386  22.576  0.00  0.00    -0.017 A 
ATOM     11  C   UNL d   1     -47.753  14.961  22.539  0.00  0.00    -0.012 A 
ATOM     12  C   UNL d   1     -47.393  15.868  22.385  0.00  0.00     0.053 A 
ATOM     13  O   UNL d   1     -45.751  10.945  23.696  0.00  0.00    -0.258 OA
ATOM     14  C   UNL d   1     -49.468  14.460  22.425  0.00  0.00    -0.004 A 
ATOM     15  C   UNL d   1     -48.679  14.896  22.432  0.00  0.00    -0.004 A 
ENDROOT
BRANCH   7  16
ATOM     16  C   UNL d   1     -48.616  12.332  23.010  0.00  0.00     0.020 A 
ATOM     17  C   UNL d   1     -48.844  11.913  22.330  0.00  0.00     0.099 A 
ATOM     18  N   UNL d   1     -49.539  11.469  22.347  0.00  0.00    -0.242 NA
ATOM     19  C   UNL d   1     -50.002  11.439  23.026  0.00  0.00     0.099 A 
ATOM     20  C   UNL d   1     -49.769  11.859  23.697  0.00  0.00     0.021 A 
ATOM     21  C   UNL d   1     -49.079  12.303  23.689  0.00  0.00     0.003 A 
ENDBRANCH   7  16
TORSDOF 1
ENDMDL
MODEL 4
REMARK VINA RESULT:      -8.9      1.865      2.729
REMARK  1 active torsions:
REMARK  status: ('A' for Active; 'I' for Inactive)
REMARK    1  A    between atoms: C_14  and  C_7 
ROOT
ATOM      1  C   UNL d   1     -47.621  14.098  22.755  0.00  0.00     0.121 A 
ATOM      2  C   UNL d   1     -48.419  13.888  22.761  0.00  0.00     0.058 A 
ATOM      3  N   UNL d   1     -47.572  14.886  22.512  0.00  0.00    -0.195 NA
ATOM      4  S   UNL d   1     -47.048  13.548  22.969  0.00  0.00    -0.068 SA
ATOM      5  C   UNL d   1     -47.274  12.796  23.188  0.00  0.00     0.027 A 
ATOM      6  C   UNL d   1     -48.072  12.585  23.195  0.00  0.00     0.003 A 
ATOM      7  C   UNL d   1     -48.643  13.128  22.983  0.00  0.00     0.010 A 
ATOM      8  C   UNL d   1     -48.331  15.161  22.369  0.00  0.00     0.311 A 
ATOM      9  S   UNL d   1     -48.861  14.546  22.523  0.00  0.00    -0.024 SA
ATOM     10  C   UNL d   1     -47.807  11.688  23.495  0.00  0.00    -0.017 A 
ATOM     11  C   UNL d   1     -46.917  11.812  23.523  0.00  0.00    -0.012 A 
ATOM     12  C   UNL d   1     -46.004  11.474  23.696  0.00  0.00     0.053 A 
ATOM     13  O   UNL d   1     -48.533  15.920  22.117  0.00  0.00    -0.258 OA
ATOM     14  C   UNL d   1     -48.444  10.892  23.697  0.00  0.00    -0.004 A 
ATOM     15  C   UNL d   1     -47.590  11.180  23.671  0.00  0.00    -0.004 A 
ENDROOT
BRANCH   7  16
ATOM     16  C   UNL d   1     -49.441  12.918  22.989  0.00  0.00     0.020 A 
ATOM     17  C   UNL d   1     -49.788  12.597  22.307  0.00  0.00     0.099 A 
ATOM     18  N   UNL d   1     -50.586  12.389  22.322  0.00  0.00    -0.242 NA
ATOM     19  C   UNL d   1     -51.035  12.497  23.003  0.00  0.00     0.099 A 
ATOM     20  C   UNL d   1     -50.682  12.816  23.677  0.00  0.00     0.021 A 
ATOM     21  C   UNL d   1     -49.889  13.025  23.670  0.00  0.00     0.003 A 
ENDBRANCH   7  16
TORSDOF 1
ENDMDL
MODEL 5
REMARK VINA RESULT:      -8.8      1.262      2.854
REMARK  1 active torsions:
REMARK  status: ('A' for Active; 'I' for Inactive)
REMARK    1  A    between atoms: C_14  and  C_7 
ROOT
ATOM      1  C   UNL d   1     -48.961  12.379  23.336  0.00  0.00     0.121 A 
ATOM      2  C   UNL d   1     -48.167  12.514  23.161  0.00  0.00     0.058 A 
ATOM      3  N   UNL d   1     -49.037  11.587  23.558  0.00  0.00    -0.195 NA
ATOM      4  S   UNL d   1     -49.508  12.990  23.271  0.00  0.00    -0.068 SA
ATOM      5  C   UNL d   1     -49.258  13.730  23.033  0.00  0.00     0.027 A 
ATOM      6  C   UNL d   1     -48.463  13.865  22.858  0.00  0.00     0.003 A 
ATOM      7  C   UNL d   1     -47.919  13.261  22.922  0.00  0.00     0.010 A 
ATOM      8  C   UNL d   1     -48.298  11.235  23.521  0.00  0.00     0.311 A 
ATOM      9  S   UNL d   1     -47.753  11.806  23.275  0.00  0.00    -0.024 SA
ATOM     10  C   UNL d   1     -48.693  14.798  22.653  0.00  0.00    -0.017 A 
ATOM     11  C   UNL d   1     -49.576  14.759  22.817  0.00  0.00    -0.012 A 
ATOM     12  C   UNL d   1     -50.465  15.189  22.860  0.00  0.00     0.053 A 
ATOM     13  O   UNL d   1     -48.125  10.448  23.698  0.00  0.00    -0.258 OA
ATOM     14  C   UNL d   1     -48.037  15.541  22.342  0.00  0.00    -0.004 A 
ATOM     15  C   UNL d   1     -48.890  15.333  22.546  0.00  0.00    -0.004 A 
ENDROOT
BRANCH   7  16
ATOM     16  C   UNL d   1     -47.124  13.397  22.747  0.00  0.00     0.020 A 
ATOM     17  C   UNL d   1     -46.616  13.686  23.337  0.00  0.00     0.099 A 
ATOM     18  N   UNL d   1     -45.823  13.819  23.154  0.00  0.00    -0.242 NA
ATOM     19  C   UNL d   1     -45.535  13.667  22.398  0.00  0.00     0.099 A 
ATOM     20  C   UNL d   1     -46.047  13.380  21.818  0.00  0.00     0.021 A 
ATOM     21  C   UNL d   1     -46.837  13.245  21.991  0.00  0.00     0.003 A 
ENDBRANCH   7  16
TORSDOF 1
ENDMDL
MODEL 6
REMARK VINA RESULT:      -8.0      1.662      2.893
REMARK  1 active torsions:
REMARK  status: ('A' for Active; 'I' for Inactive)
REMARK    1  A    between atoms: C_14  and  C_7 
ROOT
ATOM      1  C   UNL d   1     -47.802  12.110  23.433  0.00  0.00     0.121 A 
ATOM      2  C   UNL d   1     -47.857  12.886  23.161  0.00  0.00     0.058 A 
ATOM      3  N   UNL d   1     -47.001  11.933  23.523  0.00  0.00    -0.195 NA
ATOM      4  S   UNL d   1     -48.485  11.669  23.563  0.00  0.00    -0.068 SA
ATOM      5  C   UNL d   1     -49.214  12.005  23.420  0.00  0.00     0.027 A 
ATOM      6  C   UNL d   1     -49.269  12.781  23.148  0.00  0.00     0.003 A 
ATOM      7  C   UNL d   1     -48.595  13.221  23.018  0.00  0.00     0.010 A 
ATOM      8  C   UNL d   1     -46.563  12.592  23.309  0.00  0.00     0.311 A 
ATOM      9  S   UNL d   1     -47.090  13.188  23.083  0.00  0.00    -0.024 SA
ATOM     10  C   UNL d   1     -50.247  12.685  23.147  0.00  0.00    -0.017 A 
ATOM     11  C   UNL d   1     -50.300  11.837  23.440  0.00  0.00    -0.012 A 
ATOM     12  C   UNL d   1     -50.832  11.044  23.697  0.00  0.00     0.053 A 
ATOM     13  O   UNL d   1     -45.741  12.653  23.317  0.00  0.00    -0.258 OA
ATOM     14  C   UNL d   1     -50.938  13.409  22.870  0.00  0.00    -0.004 A 
ATOM     15  C   UNL d   1     -50.815  12.568  23.168  0.00  0.00    -0.004 A 
ENDROOT
BRANCH   7  16
ATOM     16  C   UNL d   1     -48.650  13.998  22.746  0.00  0.00     0.020 A 
ATOM     17  C   UNL d   1     -48.751  14.619  23.288  0.00  0.00     0.099 A 
ATOM     18  N   UNL d   1     -48.806  15.393  23.007  0.00  0.00    -0.242 NA
ATOM     19  C   UNL d   1     -48.761  15.551  22.201  0.00  0.00     0.099 A 
ATOM     20  C   UNL d   1     -48.661  14.928  21.669  0.00  0.00     0.021 A 
ATOM     21  C   UNL d   1     -48.606  14.156  21.940  0.00  0.00     0.003 A 
ENDBRANCH   7  16
TORSDOF 1
ENDMDL
