MODEL 1
REMARK VINA RESULT:       7.9      0.000      0.000
REMARK  6 active torsions:
REMARK  status: ('A' for Active; 'I' for Inactive)
REMARK    1  A    between atoms: C_10  and  N_3 
REMARK    2  A    between atoms: C_12  and  C_6 
REMARK    3  A    between atoms: C_20  and  C_10 
REMARK    4  A    between atoms: C_11  and  C_17 
REMARK    5  A    between atoms: O_27  and  C_11 
REMARK    6  A    between atoms: N_13  and  C_20 
ROOT
ATOM      1  C   UNL d   1      57.553  -9.616  30.853  0.00  0.00     0.083 A 
ATOM      2  C   UNL d   1      57.088  -9.715  31.539  0.00  0.00     0.161 A 
ATOM      3  N   UNL d   1      58.374  -9.633  31.907  0.00  0.00    -0.270 N 
ATOM      4  C   UNL d   1      57.597  -9.724  32.186  0.00  0.00     0.288 A 
ATOM      5  C   UNL d   1      57.184  -9.585  30.108  0.00  0.00     0.201 A 
ATOM      6  C   UNL d   1      58.342  -9.566  31.087  0.00  0.00     0.072 A 
ATOM      7  O   UNL d   1      56.269  -9.781  31.475  0.00  0.00    -0.302 OA
ATOM      8  C   UNL d   1      56.362  -9.653  30.056  0.00  0.00     0.063 A 
ATOM      9  C   UNL d   1      55.900  -9.752  30.739  0.00  0.00     0.103 A 
ATOM     10  O   UNL d   1      57.376  -9.811  32.979  0.00  0.00    -0.264 OA
ATOM     11  O   UNL d   1      57.640  -9.488  29.429  0.00  0.00    -0.286 OA
ATOM     12  C   UNL d   1      56.001  -9.623  29.315  0.00  0.00     0.017 A 
ATOM     13  C   UNL d   1      55.085  -9.817  30.667  0.00  0.00     0.026 A 
ATOM     14  C   UNL d   1      55.186  -9.689  29.253  0.00  0.00     0.058 A 
ATOM     15  C   UNL d   1      54.727  -9.787  29.930  0.00  0.00     0.013 A 
ATOM     16 CL   UNL d   1      54.828  -9.658  28.515  0.00  0.00    -0.082 Cl
ENDROOT
BRANCH   6  17
ATOM     17  C   UNL d   1      58.962  -9.466  30.551  0.00  0.00     0.016 A 
ATOM     18  C   UNL d   1      59.697  -9.818  30.692  0.00  0.00     0.002 A 
ATOM     19  C   UNL d   1      60.317  -9.718  30.156  0.00  0.00     0.005 A 
ATOM     20  C   UNL d   1      60.205  -9.265  29.471  0.00  0.00     0.063 A 
ATOM     21  C   UNL d   1      59.463  -8.913  29.332  0.00  0.00     0.005 A 
ATOM     22  C   UNL d   1      58.847  -9.014  29.869  0.00  0.00     0.002 A 
BRANCH  20  23
ATOM     23  C   UNL d   1      60.824  -9.165  28.935  0.00  0.00     0.296 C 
ATOM     24  O   UNL d   1      61.125  -9.815  28.534  0.00  0.00    -0.259 OA
BRANCH  23  25
ATOM     25  O   UNL d   1      61.132  -8.416  28.810  0.00  0.00    -0.296 OA
ATOM     26  C   UNL d   1      60.676  -7.824  28.460  0.00  0.00     0.185 C 
ENDBRANCH  23  25
ENDBRANCH  20  23
ENDBRANCH   6  17
BRANCH   3  27
ATOM     27  C   UNL d   1      59.053  -9.612  32.370  0.00  0.00     0.102 C 
BRANCH  27  28
ATOM     28  C   UNL d   1      59.002  -9.475  33.183  0.00  0.00     0.100 C 
BRANCH  28  29
ATOM     29  N   UNL d   1      59.683  -9.361  33.630  0.00  0.00    -0.298 N 
ATOM     30  C   UNL d   1      59.810  -9.818  34.296  0.00  0.00     0.107 A 
ATOM     31  C   UNL d   1      60.490  -9.703  34.743  0.00  0.00     0.142 A 
ATOM     32  O   UNL d   1      61.038  -9.132  34.521  0.00  0.00    -0.300 OA
ATOM     33  C   UNL d   1      60.904  -8.677  33.851  0.00  0.00     0.142 A 
ATOM     34  C   UNL d   1      60.223  -8.792  33.404  0.00  0.00     0.107 A 
ENDBRANCH  28  29
ENDBRANCH  27  28
ENDBRANCH   3  27
TORSDOF 6
ENDMDL
MODEL 2
REMARK VINA RESULT:       8.1      8.860      9.853
REMARK  6 active torsions:
REMARK  status: ('A' for Active; 'I' for Inactive)
REMARK    1  A    between atoms: C_10  and  N_3 
REMARK    2  A    between atoms: C_12  and  C_6 
REMARK    3  A    between atoms: C_20  and  C_10 
REMARK    4  A    between atoms: C_11  and  C_17 
REMARK    5  A    between atoms: O_27  and  C_11 
REMARK    6  A    between atoms: N_13  and  C_20 
ROOT
ATOM      1  C   UNL d   1      58.034  -0.588  31.457  0.00  0.00     0.083 A 
ATOM      2  C   UNL d   1      58.818  -0.320  31.356  0.00  0.00     0.161 A 
ATOM      3  N   UNL d   1      58.320   0.234  32.470  0.00  0.00    -0.270 N 
ATOM      4  C   UNL d   1      58.990   0.187  31.983  0.00  0.00     0.288 A 
ATOM      5  C   UNL d   1      57.705  -1.113  30.902  0.00  0.00     0.201 A 
ATOM      6  C   UNL d   1      57.734  -0.243  32.143  0.00  0.00     0.072 A 
ATOM      7  O   UNL d   1      59.261  -0.575  30.710  0.00  0.00    -0.302 OA
ATOM      8  C   UNL d   1      58.158  -1.362  30.257  0.00  0.00     0.063 A 
ATOM      9  C   UNL d   1      58.939  -1.095  30.158  0.00  0.00     0.103 A 
ATOM     10  O   UNL d   1      59.707   0.581  32.108  0.00  0.00    -0.264 OA
ATOM     11  O   UNL d   1      56.932  -1.379  30.997  0.00  0.00    -0.286 OA
ATOM     12  C   UNL d   1      57.828  -1.882  29.709  0.00  0.00     0.017 A 
ATOM     13  C   UNL d   1      59.374  -1.354  29.511  0.00  0.00     0.026 A 
ATOM     14  C   UNL d   1      58.270  -2.136  29.066  0.00  0.00     0.058 A 
ATOM     15  C   UNL d   1      59.043  -1.872  28.967  0.00  0.00     0.013 A 
ATOM     16 CL   UNL d   1      57.940  -2.654  28.522  0.00  0.00    -0.082 Cl
ENDROOT
BRANCH   6  17
ATOM     17  C   UNL d   1      56.968  -0.384  32.417  0.00  0.00     0.016 A 
ATOM     18  C   UNL d   1      56.368   0.170  32.282  0.00  0.00     0.002 A 
ATOM     19  C   UNL d   1      55.602   0.029  32.556  0.00  0.00     0.005 A 
ATOM     20  C   UNL d   1      55.429  -0.670  32.966  0.00  0.00     0.063 A 
ATOM     21  C   UNL d   1      56.035  -1.225  33.099  0.00  0.00     0.005 A 
ATOM     22  C   UNL d   1      56.798  -1.081  32.825  0.00  0.00     0.002 A 
BRANCH  20  23
ATOM     23  C   UNL d   1      54.664  -0.811  33.239  0.00  0.00     0.296 C 
ATOM     24  O   UNL d   1      54.384  -1.581  33.293  0.00  0.00    -0.259 OA
BRANCH  23  25
ATOM     25  O   UNL d   1      54.189  -0.178  33.453  0.00  0.00    -0.296 OA
ATOM     26  C   UNL d   1      53.977  -0.056  34.241  0.00  0.00     0.185 C 
ENDBRANCH  23  25
ENDBRANCH  20  23
ENDBRANCH   6  17
BRANCH   3  27
ATOM     27  C   UNL d   1      58.255   0.681  33.158  0.00  0.00     0.102 C 
BRANCH  27  28
ATOM     28  C   UNL d   1      58.839   0.642  33.740  0.00  0.00     0.100 C 
BRANCH  28  29
ATOM     29  N   UNL d   1      58.637   0.656  34.537  0.00  0.00    -0.298 N 
ATOM     30  C   UNL d   1      57.849   0.664  34.753  0.00  0.00     0.107 A 
ATOM     31  C   UNL d   1      57.646   0.677  35.549  0.00  0.00     0.142 A 
ATOM     32  O   UNL d   1      58.234   0.682  36.123  0.00  0.00    -0.300 OA
ATOM     33  C   UNL d   1      59.023   0.673  35.899  0.00  0.00     0.142 A 
ATOM     34  C   UNL d   1      59.226   0.660  35.102  0.00  0.00     0.107 A 
ENDBRANCH  28  29
ENDBRANCH  27  28
ENDBRANCH   3  27
TORSDOF 6
ENDMDL
MODEL 3
REMARK VINA RESULT:      10.4      9.583     10.557
REMARK  6 active torsions:
REMARK  status: ('A' for Active; 'I' for Inactive)
REMARK    1  A    between atoms: C_10  and  N_3 
REMARK    2  A    between atoms: C_12  and  C_6 
REMARK    3  A    between atoms: C_20  and  C_10 
REMARK    4  A    between atoms: C_11  and  C_17 
REMARK    5  A    between atoms: O_27  and  C_11 
REMARK    6  A    between atoms: N_13  and  C_20 
ROOT
ATOM      1  C   UNL d   1      56.918   0.379  32.480  0.00  0.00     0.083 A 
ATOM      2  C   UNL d   1      56.376   0.344  31.846  0.00  0.00     0.161 A 
ATOM      3  N   UNL d   1      57.613   0.444  31.341  0.00  0.00    -0.270 N 
ATOM      4  C   UNL d   1      56.809   0.385  31.146  0.00  0.00     0.288 A 
ATOM      5  C   UNL d   1      56.637   0.349  33.262  0.00  0.00     0.201 A 
ATOM      6  C   UNL d   1      57.676   0.440  32.162  0.00  0.00     0.072 A 
ATOM      7  O   UNL d   1      55.569   0.281  31.997  0.00  0.00    -0.302 OA
ATOM      8  C   UNL d   1      55.825   0.285  33.402  0.00  0.00     0.063 A 
ATOM      9  C   UNL d   1      55.286   0.251  32.771  0.00  0.00     0.103 A 
ATOM     10  O   UNL d   1      56.498   0.369  30.379  0.00  0.00    -0.264 OA
ATOM     11  O   UNL d   1      57.168   0.383  33.890  0.00  0.00    -0.286 OA
ATOM     12  C   UNL d   1      55.551   0.256  34.180  0.00  0.00     0.017 A 
ATOM     13  C   UNL d   1      54.483   0.188  32.930  0.00  0.00     0.026 A 
ATOM     14  C   UNL d   1      54.747   0.193  34.329  0.00  0.00     0.058 A 
ATOM     15  C   UNL d   1      54.213   0.159  33.704  0.00  0.00     0.013 A 
ATOM     16 CL   UNL d   1      54.476   0.164  35.103  0.00  0.00    -0.082 Cl
ENDROOT
BRANCH   6  17
ATOM     17  C   UNL d   1      58.355   0.487  32.630  0.00  0.00     0.016 A 
ATOM     18  C   UNL d   1      59.104   0.386  32.292  0.00  0.00     0.002 A 
ATOM     19  C   UNL d   1      59.782   0.433  32.760  0.00  0.00     0.005 A 
ATOM     20  C   UNL d   1      59.717   0.581  33.573  0.00  0.00     0.063 A 
ATOM     21  C   UNL d   1      58.962   0.682  33.910  0.00  0.00     0.005 A 
ATOM     22  C   UNL d   1      58.287   0.635  33.440  0.00  0.00     0.002 A 
BRANCH  20  23
ATOM     23  C   UNL d   1      60.394   0.628  34.041  0.00  0.00     0.296 C 
ATOM     24  O   UNL d   1      61.133   0.682  33.686  0.00  0.00    -0.259 OA
BRANCH  23  25
ATOM     25  O   UNL d   1      60.322   0.619  34.857  0.00  0.00    -0.296 OA
ATOM     26  C   UNL d   1      60.964   0.423  35.337  0.00  0.00     0.185 C 
ENDBRANCH  23  25
ENDBRANCH  20  23
ENDBRANCH   6  17
BRANCH   3  27
ATOM     27  C   UNL d   1      58.236   0.498  30.806  0.00  0.00     0.102 C 
BRANCH  27  28
ATOM     28  C   UNL d   1      58.156   0.204  30.039  0.00  0.00     0.100 C 
BRANCH  28  29
ATOM     29  N   UNL d   1      58.821   0.061  29.575  0.00  0.00    -0.298 N 
ATOM     30  C   UNL d   1      58.861  -0.623  29.129  0.00  0.00     0.107 A 
ATOM     31  C   UNL d   1      59.524  -0.766  28.665  0.00  0.00     0.142 A 
ATOM     32  O   UNL d   1      60.142  -0.225  28.652  0.00  0.00    -0.300 OA
ATOM     33  C   UNL d   1      60.094   0.460  29.103  0.00  0.00     0.142 A 
ATOM     34  C   UNL d   1      59.431   0.603  29.566  0.00  0.00     0.107 A 
ENDBRANCH  28  29
ENDBRANCH  27  28
ENDBRANCH   3  27
TORSDOF 6
ENDMDL
