MODEL 1
REMARK VINA RESULT:      -6.5      0.000      0.000
REMARK  5 active torsions:
REMARK  status: ('A' for Active; 'I' for Inactive)
REMARK    1  A    between atoms: C_6  and  S_1 
REMARK    2  A    between atoms: N_7  and  S_1 
REMARK    3  A    between atoms: C_15  and  N_7 
REMARK    4  A    between atoms: O_21  and  C_16 
REMARK    5  A    between atoms: C_22  and  O_21 
ROOT
ATOM      1  S   UNL d   1     -47.944  12.844  22.968  0.00  0.00     0.327 S 
ATOM      2  O   UNL d   1     -47.599  12.499  22.306  0.00  0.00    -0.186 OA
ATOM      3  O   UNL d   1     -47.560  12.816  23.693  0.00  0.00    -0.186 OA
ENDROOT
BRANCH   1   4
ATOM      4  C   UNL d   1     -48.671  13.217  22.905  0.00  0.00     0.118 A 
ATOM      5  C   UNL d   1     -48.733  14.021  23.056  0.00  0.00     0.035 A 
ATOM      6  C   UNL d   1     -49.466  14.402  22.994  0.00  0.00     0.105 A 
ATOM      7  N   UNL d   1     -49.697  15.185  23.109  0.00  0.00    -0.189 NA
ATOM      8  C   UNL d   1     -50.139  13.966  22.776  0.00  0.00     0.104 A 
ATOM      9  C   UNL d   1     -50.515  15.239  22.963  0.00  0.00     0.369 A 
ATOM     10  O   UNL d   1     -50.972  15.921  23.014  0.00  0.00    -0.242 OA
ATOM     11  N   UNL d   1     -50.782  14.484  22.759  0.00  0.00    -0.189 NA
ATOM     12  C   UNL d   1     -50.073  13.155  22.624  0.00  0.00     0.022 A 
ATOM     13  C   UNL d   1     -49.338  12.786  22.689  0.00  0.00     0.016 A 
ENDBRANCH   1   4
BRANCH   1  14
ATOM     14  N   UNL d   1     -47.215  12.473  23.040  0.00  0.00    -0.317 NA
BRANCH  14  15
ATOM     15  C   UNL d   1     -46.471  12.093  23.115  0.00  0.00     0.146 A 
ATOM     16  C   UNL d   1     -46.414  11.392  23.558  0.00  0.00     0.035 A 
ATOM     17  C   UNL d   1     -45.678  11.020  23.630  0.00  0.00     0.027 A 
ATOM     18  C   UNL d   1     -45.012  11.346  23.265  0.00  0.00     0.100 A 
ATOM     19  C   UNL d   1     -45.080  12.040  22.830  0.00  0.00     0.027 A 
ATOM     20  C   UNL d   1     -45.812  12.412  22.757  0.00  0.00     0.035 A 
BRANCH  18  21
ATOM     21  O   UNL d   1     -44.277  10.977  23.335  0.00  0.00    -0.305 OA
BRANCH  21  22
ATOM     22  C   UNL d   1     -44.222  10.223  23.630  0.00  0.00     0.123 C 
ATOM     23  C   UNL d   1     -43.523   9.796  23.544  0.00  0.00     0.029 C 
ENDBRANCH  21  22
ENDBRANCH  18  21
ENDBRANCH  14  15
ENDBRANCH   1  14
TORSDOF 5
ENDMDL
MODEL 2
REMARK VINA RESULT:      -6.4      1.343      5.593
REMARK  5 active torsions:
REMARK  status: ('A' for Active; 'I' for Inactive)
REMARK    1  A    between atoms: C_6  and  S_1 
REMARK    2  A    between atoms: N_7  and  S_1 
REMARK    3  A    between atoms: C_15  and  N_7 
REMARK    4  A    between atoms: O_21  and  C_16 
REMARK    5  A    between atoms: C_22  and  O_21 
ROOT
ATOM      1  S   UNL d   1     -46.526  13.200  22.632  0.00  0.00     0.327 S 
ATOM      2  O   UNL d   1     -47.222  12.836  22.389  0.00  0.00    -0.186 OA
ATOM      3  O   UNL d   1     -46.542  13.973  22.910  0.00  0.00    -0.186 OA
ENDROOT
BRANCH   1   4
ATOM      4  C   UNL d   1     -45.815  12.793  22.597  0.00  0.00     0.118 A 
ATOM      5  C   UNL d   1     -45.699  12.132  23.069  0.00  0.00     0.035 A 
ATOM      6  C   UNL d   1     -44.983  11.718  23.038  0.00  0.00     0.105 A 
ATOM      7  N   UNL d   1     -44.709  11.049  23.436  0.00  0.00    -0.189 NA
ATOM      8  C   UNL d   1     -44.381  11.974  22.525  0.00  0.00     0.104 A 
ATOM      9  C   UNL d   1     -43.936  10.888  23.171  0.00  0.00     0.369 A 
ATOM     10  O   UNL d   1     -43.457  10.269  23.425  0.00  0.00    -0.242 OA
ATOM     11  N   UNL d   1     -43.740  11.461  22.610  0.00  0.00    -0.189 NA
ATOM     12  C   UNL d   1     -44.502  12.641  22.050  0.00  0.00     0.022 A 
ATOM     13  C   UNL d   1     -45.219  13.046  22.089  0.00  0.00     0.016 A 
ENDBRANCH   1   4
BRANCH   1  14
ATOM     14  N   UNL d   1     -47.233  13.616  22.670  0.00  0.00    -0.317 NA
BRANCH  14  15
ATOM     15  C   UNL d   1     -47.956  14.039  22.709  0.00  0.00     0.146 A 
ATOM     16  C   UNL d   1     -47.944  14.847  22.902  0.00  0.00     0.035 A 
ATOM     17  C   UNL d   1     -48.659  15.263  22.939  0.00  0.00     0.027 A 
ATOM     18  C   UNL d   1     -49.372  14.874  22.786  0.00  0.00     0.100 A 
ATOM     19  C   UNL d   1     -49.372  14.074  22.595  0.00  0.00     0.027 A 
ATOM     20  C   UNL d   1     -48.661  13.659  22.558  0.00  0.00     0.035 A 
BRANCH  18  21
ATOM     21  O   UNL d   1     -50.087  15.286  22.822  0.00  0.00    -0.305 OA
BRANCH  21  22
ATOM     22  C   UNL d   1     -50.279  15.718  23.482  0.00  0.00     0.123 C 
ATOM     23  C   UNL d   1     -51.064  15.920  23.629  0.00  0.00     0.029 C 
ENDBRANCH  21  22
ENDBRANCH  18  21
ENDBRANCH  14  15
ENDBRANCH   1  14
TORSDOF 5
ENDMDL
MODEL 3
REMARK VINA RESULT:      -6.4      1.194      1.516
REMARK  5 active torsions:
REMARK  status: ('A' for Active; 'I' for Inactive)
REMARK    1  A    between atoms: C_6  and  S_1 
REMARK    2  A    between atoms: N_7  and  S_1 
REMARK    3  A    between atoms: C_15  and  N_7 
REMARK    4  A    between atoms: O_21  and  C_16 
REMARK    5  A    between atoms: C_22  and  O_21 
ROOT
ATOM      1  S   UNL d   1     -47.562  13.479  22.804  0.00  0.00     0.327 S 
ATOM      2  O   UNL d   1     -47.384  13.205  22.050  0.00  0.00    -0.186 OA
ATOM      3  O   UNL d   1     -46.971  13.531  23.372  0.00  0.00    -0.186 OA
ENDROOT
BRANCH   1   4
ATOM      4  C   UNL d   1     -48.329  13.701  22.990  0.00  0.00     0.118 A 
ATOM      5  C   UNL d   1     -48.550  14.490  22.943  0.00  0.00     0.035 A 
ATOM      6  C   UNL d   1     -49.323  14.718  23.130  0.00  0.00     0.105 A 
ATOM      7  N   UNL d   1     -49.701  15.451  23.134  0.00  0.00    -0.189 NA
ATOM      8  C   UNL d   1     -49.877  14.145  23.366  0.00  0.00     0.104 A 
ATOM      9  C   UNL d   1     -50.490  15.336  23.374  0.00  0.00     0.369 A 
ATOM     10  O   UNL d   1     -51.062  15.922  23.454  0.00  0.00    -0.242 OA
ATOM     11  N   UNL d   1     -50.592  14.529  23.515  0.00  0.00    -0.189 NA
ATOM     12  C   UNL d   1     -49.650  13.350  23.413  0.00  0.00     0.022 A 
ATOM     13  C   UNL d   1     -48.877  13.133  23.224  0.00  0.00     0.016 A 
ENDBRANCH   1   4
BRANCH   1  14
ATOM     14  N   UNL d   1     -46.791  13.259  22.626  0.00  0.00    -0.317 NA
BRANCH  14  15
ATOM     15  C   UNL d   1     -46.004  13.034  22.444  0.00  0.00     0.146 A 
ATOM     16  C   UNL d   1     -45.695  12.335  22.769  0.00  0.00     0.035 A 
ATOM     17  C   UNL d   1     -44.918  12.115  22.587  0.00  0.00     0.027 A 
ATOM     18  C   UNL d   1     -44.460  12.590  22.089  0.00  0.00     0.100 A 
ATOM     19  C   UNL d   1     -44.776  13.280  21.773  0.00  0.00     0.027 A 
ATOM     20  C   UNL d   1     -45.550  13.500  21.953  0.00  0.00     0.035 A 
BRANCH  18  21
ATOM     21  O   UNL d   1     -43.684  12.373  21.906  0.00  0.00    -0.305 OA
BRANCH  21  22
ATOM     22  C   UNL d   1     -43.244  12.820  21.390  0.00  0.00     0.123 C 
ATOM     23  C   UNL d   1     -42.423  12.747  21.378  0.00  0.00     0.029 C 
ENDBRANCH  21  22
ENDBRANCH  18  21
ENDBRANCH  14  15
ENDBRANCH   1  14
TORSDOF 5
ENDMDL
MODEL 4
REMARK VINA RESULT:      -5.3      8.829      9.324
REMARK  5 active torsions:
REMARK  status: ('A' for Active; 'I' for Inactive)
REMARK    1  A    between atoms: C_6  and  S_1 
REMARK    2  A    between atoms: N_7  and  S_1 
REMARK    3  A    between atoms: C_15  and  N_7 
REMARK    4  A    between atoms: O_21  and  C_16 
REMARK    5  A    between atoms: C_22  and  O_21 
ROOT
ATOM      1  S   UNL d   1     -39.822  14.979  18.739  0.00  0.00     0.327 S 
ATOM      2  O   UNL d   1     -40.296  14.536  19.244  0.00  0.00    -0.186 OA
ATOM      3  O   UNL d   1     -39.063  15.191  18.968  0.00  0.00    -0.186 OA
ENDROOT
BRANCH   1   4
ATOM      4  C   UNL d   1     -40.107  15.208  18.004  0.00  0.00     0.118 A 
ATOM      5  C   UNL d   1     -40.915  15.221  17.866  0.00  0.00     0.035 A 
ATOM      6  C   UNL d   1     -41.207  15.452  17.126  0.00  0.00     0.105 A 
ATOM      7  N   UNL d   1     -41.973  15.520  16.826  0.00  0.00    -0.189 NA
ATOM      8  C   UNL d   1     -40.678  15.671  16.524  0.00  0.00     0.104 A 
ATOM      9  C   UNL d   1     -41.921  15.781  16.038  0.00  0.00     0.369 A 
ATOM     10  O   UNL d   1     -42.555  15.921  15.532  0.00  0.00    -0.242 OA
ATOM     11  N   UNL d   1     -41.120  15.872  15.857  0.00  0.00    -0.189 NA
ATOM     12  C   UNL d   1     -39.862  15.657  16.668  0.00  0.00     0.022 A 
ATOM     13  C   UNL d   1     -39.583  15.425  17.408  0.00  0.00     0.016 A 
ENDBRANCH   1   4
BRANCH   1  14
ATOM     14  N   UNL d   1     -39.529  14.753  19.471  0.00  0.00    -0.317 NA
BRANCH  14  15
ATOM     15  C   UNL d   1     -39.229  14.524  20.220  0.00  0.00     0.146 A 
ATOM     16  C   UNL d   1     -39.588  14.817  20.910  0.00  0.00     0.035 A 
ATOM     17  C   UNL d   1     -39.290  14.589  21.648  0.00  0.00     0.027 A 
ATOM     18  C   UNL d   1     -38.644  14.075  21.692  0.00  0.00     0.100 A 
ATOM     19  C   UNL d   1     -38.296  13.791  21.003  0.00  0.00     0.027 A 
ATOM     20  C   UNL d   1     -38.592  14.017  20.267  0.00  0.00     0.035 A 
BRANCH  18  21
ATOM     21  O   UNL d   1     -38.344  13.846  22.426  0.00  0.00    -0.305 OA
BRANCH  21  22
ATOM     22  C   UNL d   1     -38.743  13.305  22.882  0.00  0.00     0.123 C 
ATOM     23  C   UNL d   1     -38.581  13.246  23.688  0.00  0.00     0.029 C 
ENDBRANCH  21  22
ENDBRANCH  18  21
ENDBRANCH  14  15
ENDBRANCH   1  14
TORSDOF 5
ENDMDL
MODEL 5
REMARK VINA RESULT:      -4.9      1.825      2.407
REMARK  5 active torsions:
REMARK  status: ('A' for Active; 'I' for Inactive)
REMARK    1  A    between atoms: C_6  and  S_1 
REMARK    2  A    between atoms: N_7  and  S_1 
REMARK    3  A    between atoms: C_15  and  N_7 
REMARK    4  A    between atoms: O_21  and  C_16 
REMARK    5  A    between atoms: C_22  and  O_21 
ROOT
ATOM      1  S   UNL d   1     -46.953  12.936  22.698  0.00  0.00     0.327 S 
ATOM      2  O   UNL d   1     -46.379  12.840  23.279  0.00  0.00    -0.186 OA
ATOM      3  O   UNL d   1     -46.736  12.965  21.907  0.00  0.00    -0.186 OA
ENDROOT
BRANCH   1   4
ATOM      4  C   UNL d   1     -47.743  13.004  22.908  0.00  0.00     0.118 A 
ATOM      5  C   UNL d   1     -48.203  12.330  22.990  0.00  0.00     0.035 A 
ATOM      6  C   UNL d   1     -49.001  12.393  23.202  0.00  0.00     0.105 A 
ATOM      7  N   UNL d   1     -49.591  11.830  23.323  0.00  0.00    -0.189 NA
ATOM      8  C   UNL d   1     -49.335  13.143  23.331  0.00  0.00     0.104 A 
ATOM      9  C   UNL d   1     -50.293  12.228  23.529  0.00  0.00     0.369 A 
ATOM     10  O   UNL d   1     -51.017  11.876  23.698  0.00  0.00    -0.242 OA
ATOM     11  N   UNL d   1     -50.128  13.037  23.532  0.00  0.00    -0.189 NA
ATOM     12  C   UNL d   1     -48.867  13.822  23.247  0.00  0.00     0.022 A 
ATOM     13  C   UNL d   1     -48.074  13.747  23.036  0.00  0.00     0.016 A 
ENDBRANCH   1   4
BRANCH   1  14
ATOM     14  N   UNL d   1     -46.165  12.869  22.479  0.00  0.00    -0.317 NA
BRANCH  14  15
ATOM     15  C   UNL d   1     -45.360  12.801  22.255  0.00  0.00     0.146 A 
ATOM     16  C   UNL d   1     -44.905  12.173  22.554  0.00  0.00     0.035 A 
ATOM     17  C   UNL d   1     -44.111  12.108  22.330  0.00  0.00     0.027 A 
ATOM     18  C   UNL d   1     -43.779  12.664  21.816  0.00  0.00     0.100 A 
ATOM     19  C   UNL d   1     -44.238  13.282  21.526  0.00  0.00     0.027 A 
ATOM     20  C   UNL d   1     -45.029  13.348  21.748  0.00  0.00     0.035 A 
BRANCH  18  21
ATOM     21  O   UNL d   1     -42.987  12.603  21.591  0.00  0.00    -0.305 OA
BRANCH  21  22
ATOM     22  C   UNL d   1     -42.570  13.264  21.371  0.00  0.00     0.123 C 
ATOM     23  C   UNL d   1     -41.808  13.188  21.067  0.00  0.00     0.029 C 
ENDBRANCH  21  22
ENDBRANCH  18  21
ENDBRANCH  14  15
ENDBRANCH   1  14
TORSDOF 5
ENDMDL
MODEL 6
REMARK VINA RESULT:      -4.5      9.116     10.819
REMARK  5 active torsions:
REMARK  status: ('A' for Active; 'I' for Inactive)
REMARK    1  A    between atoms: C_6  and  S_1 
REMARK    2  A    between atoms: N_7  and  S_1 
REMARK    3  A    between atoms: C_15  and  N_7 
REMARK    4  A    between atoms: O_21  and  C_16 
REMARK    5  A    between atoms: C_22  and  O_21 
ROOT
ATOM      1  S   UNL d   1     -38.688  14.441  18.407  0.00  0.00     0.327 S 
ATOM      2  O   UNL d   1     -39.287  13.966  18.709  0.00  0.00    -0.186 OA
ATOM      3  O   UNL d   1     -38.176  14.832  18.917  0.00  0.00    -0.186 OA
ENDROOT
BRANCH   1   4
ATOM      4  C   UNL d   1     -38.601  14.526  17.596  0.00  0.00     0.118 A 
ATOM      5  C   UNL d   1     -38.399  13.878  17.136  0.00  0.00     0.035 A 
ATOM      6  C   UNL d   1     -38.310  13.959  16.317  0.00  0.00     0.105 A 
ATOM      7  N   UNL d   1     -38.115  13.422  15.723  0.00  0.00    -0.189 NA
ATOM      8  C   UNL d   1     -38.426  14.701  15.961  0.00  0.00     0.104 A 
ATOM      9  C   UNL d   1     -38.109  13.828  14.996  0.00  0.00     0.369 A 
ATOM     10  O   UNL d   1     -37.942  13.501  14.260  0.00  0.00    -0.242 OA
ATOM     11  N   UNL d   1     -38.302  14.616  15.150  0.00  0.00    -0.189 NA
ATOM     12  C   UNL d   1     -38.630  15.354  16.429  0.00  0.00     0.022 A 
ATOM     13  C   UNL d   1     -38.716  15.261  17.244  0.00  0.00     0.016 A 
ENDBRANCH   1   4
BRANCH   1  14
ATOM     14  N   UNL d   1     -38.768  14.362  19.220  0.00  0.00    -0.317 NA
BRANCH  14  15
ATOM     15  C   UNL d   1     -38.850  14.281  20.051  0.00  0.00     0.146 A 
ATOM     16  C   UNL d   1     -38.260  13.886  20.482  0.00  0.00     0.035 A 
ATOM     17  C   UNL d   1     -38.344  13.807  21.302  0.00  0.00     0.027 A 
ATOM     18  C   UNL d   1     -39.009  14.119  21.681  0.00  0.00     0.100 A 
ATOM     19  C   UNL d   1     -39.587  14.508  21.245  0.00  0.00     0.027 A 
ATOM     20  C   UNL d   1     -39.505  14.587  20.428  0.00  0.00     0.035 A 
BRANCH  18  21
ATOM     21  O   UNL d   1     -39.095  14.043  22.499  0.00  0.00    -0.305 OA
BRANCH  21  22
ATOM     22  C   UNL d   1     -38.715  13.447  22.898  0.00  0.00     0.123 C 
ATOM     23  C   UNL d   1     -38.909  13.287  23.683  0.00  0.00     0.029 C 
ENDBRANCH  21  22
ENDBRANCH  18  21
ENDBRANCH  14  15
ENDBRANCH   1  14
TORSDOF 5
ENDMDL
MODEL 7
REMARK VINA RESULT:      -4.4      8.957     10.463
REMARK  5 active torsions:
REMARK  status: ('A' for Active; 'I' for Inactive)
REMARK    1  A    between atoms: C_6  and  S_1 
REMARK    2  A    between atoms: N_7  and  S_1 
REMARK    3  A    between atoms: C_15  and  N_7 
REMARK    4  A    between atoms: O_21  and  C_16 
REMARK    5  A    between atoms: C_22  and  O_21 
ROOT
ATOM      1  S   UNL d   1     -39.060  14.669  19.562  0.00  0.00     0.327 S 
ATOM      2  O   UNL d   1     -39.627  14.938  19.032  0.00  0.00    -0.186 OA
ATOM      3  O   UNL d   1     -38.431  14.213  19.295  0.00  0.00    -0.186 OA
ENDROOT
BRANCH   1   4
ATOM      4  C   UNL d   1     -39.121  14.855  20.359  0.00  0.00     0.118 A 
ATOM      5  C   UNL d   1     -38.457  15.101  20.773  0.00  0.00     0.035 A 
ATOM      6  C   UNL d   1     -38.514  15.290  21.577  0.00  0.00     0.105 A 
ATOM      7  N   UNL d   1     -37.957  15.547  22.129  0.00  0.00    -0.189 NA
ATOM      8  C   UNL d   1     -39.247  15.229  21.964  0.00  0.00     0.104 A 
ATOM      9  C   UNL d   1     -38.343  15.647  22.860  0.00  0.00     0.369 A 
ATOM     10  O   UNL d   1     -37.993  15.898  23.562  0.00  0.00    -0.242 OA
ATOM     11  N   UNL d   1     -39.137  15.450  22.752  0.00  0.00    -0.189 NA
ATOM     12  C   UNL d   1     -39.915  14.981  21.542  0.00  0.00     0.022 A 
ATOM     13  C   UNL d   1     -39.847  14.795  20.742  0.00  0.00     0.016 A 
ENDBRANCH   1   4
BRANCH   1  14
ATOM     14  N   UNL d   1     -38.991  14.478  18.767  0.00  0.00    -0.317 NA
BRANCH  14  15
ATOM     15  C   UNL d   1     -38.920  14.283  17.954  0.00  0.00     0.146 A 
ATOM     16  C   UNL d   1     -38.452  13.634  17.731  0.00  0.00     0.035 A 
ATOM     17  C   UNL d   1     -38.383  13.444  16.928  0.00  0.00     0.027 A 
ATOM     18  C   UNL d   1     -38.778  13.897  16.360  0.00  0.00     0.100 A 
ATOM     19  C   UNL d   1     -39.238  14.537  16.593  0.00  0.00     0.027 A 
ATOM     20  C   UNL d   1     -39.308  14.728  17.392  0.00  0.00     0.035 A 
BRANCH  18  21
ATOM     21  O   UNL d   1     -38.712  13.710  15.559  0.00  0.00    -0.305 OA
BRANCH  21  22
ATOM     22  C   UNL d   1     -37.990  13.740  15.189  0.00  0.00     0.123 C 
ATOM     23  C   UNL d   1     -37.940  13.629  14.373  0.00  0.00     0.029 C 
ENDBRANCH  21  22
ENDBRANCH  18  21
ENDBRANCH  14  15
ENDBRANCH   1  14
TORSDOF 5
ENDMDL
