MODEL 1
REMARK VINA RESULT:       2.4      0.000      0.000
REMARK  9 active torsions:
REMARK  status: ('A' for Active; 'I' for Inactive)
REMARK    1  A    between atoms: C_6  and  C_1 
REMARK    2  A    between atoms: C_2  and  O_5 
REMARK    3  A    between atoms: C_4  and  C_2 
REMARK    4  A    between atoms: O_5  and  C_3 
REMARK    5  A    between atoms: C_7  and  C_6 
REMARK    6  A    between atoms: C_10  and  C_7 
REMARK    7  A    between atoms: O_25  and  C_8 
REMARK    8  A    between atoms: C_20  and  C_10 
REMARK    9  A    between atoms: O_27  and  C_14 
ROOT
ATOM      1  C   UNL d   1     -41.314-121.955 -52.277  0.00  0.00     0.062 A 
ATOM      2  C   UNL d   1     -41.487-121.678 -53.046  0.00  0.00     0.106 A 
ATOM      3  C   UNL d   1     -41.194-121.413 -51.668  0.00  0.00     0.012 A 
ATOM      4  C   UNL d   1     -41.535-120.870 -53.183  0.00  0.00     0.025 A 
ATOM      5  C   UNL d   1     -41.244-120.606 -51.814  0.00  0.00     0.035 A 
ATOM      6  C   UNL d   1     -41.415-120.331 -52.575  0.00  0.00     0.009 A 
ATOM      7 BR   UNL d   1     -41.123-120.065 -51.202  0.00  0.00    -0.049 Br
ENDROOT
BRANCH   1   8
ATOM      8  C   UNL d   1     -41.264-122.766 -52.133  0.00  0.00     0.198 C 
ATOM      9  O   UNL d   1     -41.288-123.298 -52.765  0.00  0.00    -0.286 OA
BRANCH   8  10
ATOM     10  C   UNL d   1     -41.191-123.044 -51.362  0.00  0.00     0.042 C 
BRANCH  10  11
ATOM     11  C   UNL d   1     -41.830-123.410 -50.991  0.00  0.00     0.003 C 
BRANCH  11  12
ATOM     12  C   UNL d   1     -41.835-123.508 -50.165  0.00  0.00     0.002 A 
ATOM     13  C   UNL d   1     -42.577-123.501 -49.777  0.00  0.00     0.026 A 
ATOM     14  C   UNL d   1     -42.560-123.602 -48.939  0.00  0.00     0.116 A 
ATOM     15  C   UNL d   1     -41.849-123.702 -48.529  0.00  0.00     0.116 A 
ATOM     16  C   UNL d   1     -41.125-123.704 -48.951  0.00  0.00     0.026 A 
ATOM     17  C   UNL d   1     -41.125-123.606 -49.771  0.00  0.00     0.002 A 
BRANCH  14  18
ATOM     18  O   UNL d   1     -43.263-123.602 -48.518  0.00  0.00    -0.326 OA
ATOM     19  C   UNL d   1     -43.680-122.898 -48.401  0.00  0.00     0.181 C 
ENDBRANCH  14  18
BRANCH  15  20
ATOM     20  O   UNL d   1     -41.849-123.800 -47.711  0.00  0.00    -0.326 OA
ATOM     21  C   UNL d   1     -41.141-123.746 -47.287  0.00  0.00     0.181 C 
ENDBRANCH  15  20
ENDBRANCH  11  12
ENDBRANCH  10  11
ENDBRANCH   8  10
ENDBRANCH   1   8
BRANCH   2  22
ATOM     22  O   UNL d   1     -41.606-122.216 -53.654  0.00  0.00    -0.271 OA
BRANCH  22  23
ATOM     23  C   UNL d   1     -41.675-121.945 -54.432  0.00  0.00     0.323 C 
ATOM     24  O   UNL d   1     -41.123-121.409 -54.742  0.00  0.00    -0.257 OA
BRANCH  23  25
ATOM     25  C   UNL d   1     -42.296-122.207 -54.907  0.00  0.00     0.163 A 
ATOM     26  O   UNL d   1     -43.088-121.993 -54.827  0.00  0.00    -0.300 OA
ATOM     27  C   UNL d   1     -43.520-122.387 -55.424  0.00  0.00     0.123 A 
ATOM     28  C   UNL d   1     -42.991-122.839 -55.866  0.00  0.00     0.029 A 
ATOM     29  C   UNL d   1     -42.234-122.728 -55.547  0.00  0.00     0.032 A 
ENDBRANCH  23  25
ENDBRANCH  22  23
ENDBRANCH   2  22
TORSDOF 9
ENDMDL
