MODEL 1
REMARK VINA RESULT:       5.5      0.000      0.000
REMARK  1 active torsions:
REMARK  status: ('A' for Active; 'I' for Inactive)
REMARK    1  A    between atoms: C_4  and  C_1 
ROOT
ATOM      1  C   UNL d   1     -55.417-102.740 -37.908  0.00  0.00     0.024 A 
ATOM      2  C   UNL d   1     -56.112-102.880 -37.487  0.00  0.00     0.002 A 
ATOM      3  C   UNL d   1     -54.720-102.555 -37.513  0.00  0.00     0.002 A 
ATOM      4  C   UNL d   1     -56.112-102.835 -36.671  0.00  0.00     0.000 A 
ATOM      5  C   UNL d   1     -54.716-102.509 -36.688  0.00  0.00     0.000 A 
ATOM      6  C   UNL d   1     -55.414-102.650 -36.272  0.00  0.00     0.000 A 
ATOM      7  C   UNL d   1     -55.416-102.605 -35.443  0.00  0.00     0.000 C 
ENDROOT
BRANCH   1   8
ATOM      8  C   UNL d   1     -55.421-102.785 -38.733  0.00  0.00     0.111 A 
ATOM      9  N   UNL d   1     -56.134-102.878 -39.137  0.00  0.00    -0.237 NA
ATOM     10  C   UNL d   1     -55.429-102.877 -40.381  0.00  0.00     0.106 A 
ATOM     11  C   UNL d   1     -54.716-102.784 -39.977  0.00  0.00     0.058 A 
ATOM     12  S   UNL d   1     -54.711-102.738 -39.152  0.00  0.00    -0.066 SA
ENDBRANCH   1   8
TORSDOF 1
ENDMDL
MODEL 2
REMARK VINA RESULT:       8.5      1.216      2.989
REMARK  1 active torsions:
REMARK  status: ('A' for Active; 'I' for Inactive)
REMARK    1  A    between atoms: C_4  and  C_1 
ROOT
ATOM      1  C   UNL d   1     -55.309-102.426 -38.009  0.00  0.00     0.024 A 
ATOM      2  C   UNL d   1     -55.966-102.800 -38.340  0.00  0.00     0.002 A 
ATOM      3  C   UNL d   1     -54.711-102.132 -38.491  0.00  0.00     0.002 A 
ATOM      4  C   UNL d   1     -56.025-102.880 -39.151  0.00  0.00     0.000 A 
ATOM      5  C   UNL d   1     -54.768-102.210 -39.311  0.00  0.00     0.000 A 
ATOM      6  C   UNL d   1     -55.427-102.585 -39.636  0.00  0.00     0.000 A 
ATOM      7  C   UNL d   1     -55.491-102.668 -40.460  0.00  0.00     0.000 C 
ENDROOT
BRANCH   1   8
ATOM      8  C   UNL d   1     -55.252-102.347 -37.189  0.00  0.00     0.111 A 
ATOM      9  N   UNL d   1     -55.672-102.857 -36.695  0.00  0.00    -0.237 NA
ATOM     10  C   UNL d   1     -55.137-102.189 -35.550  0.00  0.00     0.106 A 
ATOM     11  C   UNL d   1     -54.716-101.679 -36.044  0.00  0.00     0.058 A 
ATOM     12  S   UNL d   1     -54.773-101.758 -36.864  0.00  0.00    -0.066 SA
ENDBRANCH   1   8
TORSDOF 1
ENDMDL
