MODEL 1
REMARK VINA RESULT:      -5.0      0.000      0.000
REMARK  5 active torsions:
REMARK  status: ('A' for Active; 'I' for Inactive)
REMARK       I    between atoms: C_2  and  N_1 
REMARK    1  A    between atoms: C_3  and  N_1 
REMARK    2  A    between atoms: C_7  and  C_2 
REMARK    3  A    between atoms: N_5  and  C_3 
REMARK    4  A    between atoms: C_8  and  N_5 
REMARK    5  A    between atoms: C_9  and  C_8 
ROOT
ATOM      1  C   UNL d   1     -41.438-122.072 -51.777  0.00  0.00     0.179 C 
ATOM      2  S   UNL d   1     -41.128-121.304 -51.684  0.00  0.00    -0.040 SA
ENDROOT
BRANCH   1   3
ATOM      3  N   UNL d   1     -41.536-122.557 -51.125  0.00  0.00    -0.299 N 
ATOM      4  C   UNL d   1     -42.060-122.338 -50.515  0.00  0.00     0.259 C 
ATOM      5  O   UNL d   1     -42.478-121.626 -50.574  0.00  0.00    -0.267 OA
ATOM      6  H   UNL d   1     -41.116-123.263 -51.076  0.00  0.00     0.171 HD
BRANCH   4   7
ATOM      7  C   UNL d   1     -42.155-122.831 -49.860  0.00  0.00     0.056 A 
ATOM      8  C   UNL d   1     -42.905-123.089 -49.652  0.00  0.00     0.005 A 
ATOM      9  C   UNL d   1     -42.995-123.585 -48.991  0.00  0.00     0.000 A 
ATOM     10  C   UNL d   1     -42.334-123.817 -48.548  0.00  0.00     0.000 A 
ATOM     11  C   UNL d   1     -41.578-123.552 -48.766  0.00  0.00     0.000 A 
ATOM     12  C   UNL d   1     -41.488-123.052 -49.431  0.00  0.00     0.005 A 
ENDBRANCH   4   7
ENDBRANCH   1   3
BRANCH   1  13
ATOM     13  N   UNL d   1     -41.645-122.339 -52.533  0.00  0.00    -0.330 N 
ATOM     14  H   UNL d   1     -42.210-122.933 -52.607  0.00  0.00     0.168 HD
BRANCH  13  15
ATOM     15  C   UNL d   1     -41.294-122.018 -53.194  0.00  0.00     0.074 C 
BRANCH  15  16
ATOM     16  C   UNL d   1     -41.590-122.210 -53.959  0.00  0.00     0.017 A 
ATOM     17  C   UNL d   1     -42.187-121.755 -54.290  0.00  0.00     0.002 A 
ATOM     18  C   UNL d   1     -42.475-121.937 -55.029  0.00  0.00     0.000 A 
ATOM     19  C   UNL d   1     -42.170-122.576 -55.447  0.00  0.00     0.000 A 
ATOM     20  C   UNL d   1     -41.561-123.040 -55.109  0.00  0.00     0.000 A 
ATOM     21  C   UNL d   1     -41.278-122.849 -54.365  0.00  0.00     0.002 A 
ENDBRANCH  15  16
ENDBRANCH  13  15
ENDBRANCH   1  13
TORSDOF 5
ENDMDL
MODEL 2
REMARK VINA RESULT:      -4.7      0.681      4.637
REMARK  5 active torsions:
REMARK  status: ('A' for Active; 'I' for Inactive)
REMARK       I    between atoms: C_2  and  N_1 
REMARK    1  A    between atoms: C_3  and  N_1 
REMARK    2  A    between atoms: C_7  and  C_2 
REMARK    3  A    between atoms: N_5  and  C_3 
REMARK    4  A    between atoms: C_8  and  N_5 
REMARK    5  A    between atoms: C_9  and  C_8 
ROOT
ATOM      1  C   UNL d   1     -41.387-121.993 -51.664  0.00  0.00     0.179 C 
ATOM      2  S   UNL d   1     -41.133-121.220 -51.483  0.00  0.00    -0.040 SA
ENDROOT
BRANCH   1   3
ATOM      3  N   UNL d   1     -41.248-122.307 -52.407  0.00  0.00    -0.299 N 
ATOM      4  C   UNL d   1     -41.754-122.118 -53.043  0.00  0.00     0.259 C 
ATOM      5  O   UNL d   1     -42.395-121.610 -52.916  0.00  0.00    -0.267 OA
ATOM      6  H   UNL d   1     -40.608-122.811 -52.523  0.00  0.00     0.171 HD
BRANCH   4   7
ATOM      7  C   UNL d   1     -41.609-122.438 -53.789  0.00  0.00     0.056 A 
ATOM      8  C   UNL d   1     -41.266-123.179 -53.854  0.00  0.00     0.005 A 
ATOM      9  C   UNL d   1     -41.123-123.496 -54.609  0.00  0.00     0.000 A 
ATOM     10  C   UNL d   1     -41.325-123.068 -55.289  0.00  0.00     0.000 A 
ATOM     11  C   UNL d   1     -41.673-122.318 -55.215  0.00  0.00     0.000 A 
ATOM     12  C   UNL d   1     -41.817-121.998 -54.455  0.00  0.00     0.005 A 
ENDBRANCH   4   7
ENDBRANCH   1   3
BRANCH   1  13
ATOM     13  N   UNL d   1     -41.779-122.439 -51.087  0.00  0.00    -0.330 N 
ATOM     14  H   UNL d   1     -42.375-122.958 -51.318  0.00  0.00     0.168 HD
BRANCH  13  15
ATOM     15  C   UNL d   1     -41.578-122.365 -50.302  0.00  0.00     0.074 C 
BRANCH  15  16
ATOM     16  C   UNL d   1     -41.946-122.859 -49.727  0.00  0.00     0.017 A 
ATOM     17  C   UNL d   1     -42.764-122.870 -49.665  0.00  0.00     0.002 A 
ATOM     18  C   UNL d   1     -43.124-123.345 -49.112  0.00  0.00     0.000 A 
ATOM     19  C   UNL d   1     -42.671-123.816 -48.613  0.00  0.00     0.000 A 
ATOM     20  C   UNL d   1     -41.837-123.804 -48.676  0.00  0.00     0.000 A 
ATOM     21  C   UNL d   1     -41.484-123.323 -49.236  0.00  0.00     0.002 A 
ENDBRANCH  15  16
ENDBRANCH  13  15
ENDBRANCH   1  13
TORSDOF 5
ENDMDL
