MODEL 1
REMARK VINA RESULT:     116.0      0.000      0.000
REMARK  6 active torsions:
REMARK  status: ('A' for Active; 'I' for Inactive)
REMARK       I    between atoms: N_6  and  C_1 
REMARK       I    between atoms: N_9  and  C_1 
REMARK    1  A    between atoms: N_2  and  C_3 
REMARK    2  A    between atoms: C_3  and  C_5 
REMARK    3  A    between atoms: C_7  and  C_3 
REMARK    4  A    between atoms: C_16  and  N_4 
REMARK    5  A    between atoms: C_5  and  N_6 
REMARK    6  A    between atoms: C_19  and  N_9 
ROOT
ATOM      1  C   UNL d   1      60.449  47.189  50.715  0.00  0.00     0.088 C 
ENDROOT
BRANCH   1   2
ATOM      2  N   UNL d   1      59.731  47.594  50.628  0.00  0.00    -0.300 N 
ATOM      3  C   UNL d   1      59.601  48.060  49.962  0.00  0.00     0.100 A 
ATOM      4  C   UNL d   1      58.891  48.461  49.876  0.00  0.00     0.100 A 
ATOM      5  N   UNL d   1      58.296  48.404  50.453  0.00  0.00    -0.301 N 
ATOM      6  C   UNL d   1      58.440  47.923  51.133  0.00  0.00     0.100 A 
ATOM      7  C   UNL d   1      59.152  47.530  51.205  0.00  0.00     0.100 A 
BRANCH   5   8
ATOM      8  C   UNL d   1      57.587  48.796  50.382  0.00  0.00     0.064 A 
ATOM      9  C   UNL d   1      57.441  49.304  49.753  0.00  0.00     0.018 A 
ATOM     10  C   UNL d   1      56.717  49.698  49.689  0.00  0.00     0.002 A 
ATOM     11  C   UNL d   1      56.132  49.578  50.265  0.00  0.00     0.000 A 
ATOM     12  C   UNL d   1      56.277  49.065  50.901  0.00  0.00     0.002 A 
ATOM     13  C   UNL d   1      57.003  48.676  50.957  0.00  0.00     0.018 A 
ENDBRANCH   5   8
ENDBRANCH   1   2
BRANCH   1  14
ATOM     14  C   UNL d   1      61.151  47.606  50.812  0.00  0.00     0.103 C 
ATOM     15  C   UNL d   1      61.840  47.327  50.471  0.00  0.00     0.022 C 
BRANCH  14  16
ATOM     16  N   UNL d   1      61.152  48.299  51.251  0.00  0.00    -0.190 NA
ATOM     17  C   UNL d   1      61.379  49.012  50.897  0.00  0.00     0.369 C 
ATOM     18  N   UNL d   1      61.380  49.706  51.336  0.00  0.00    -0.191 NA
ATOM     19  O   UNL d   1      61.602  49.018  50.106  0.00  0.00    -0.242 OA
BRANCH  18  20
ATOM     20  C   UNL d   1      61.155  49.699  52.131  0.00  0.00     0.086 A 
ATOM     21  C   UNL d   1      60.346  49.699  52.326  0.00  0.00     0.019 A 
ATOM     22  C   UNL d   1      60.121  49.693  53.114  0.00  0.00     0.002 A 
ATOM     23  C   UNL d   1      60.691  49.687  53.710  0.00  0.00     0.000 A 
ATOM     24  C   UNL d   1      61.492  49.687  53.511  0.00  0.00     0.002 A 
ATOM     25  C   UNL d   1      61.726  49.693  52.717  0.00  0.00     0.019 A 
ENDBRANCH  18  20
ENDBRANCH  14  16
ENDBRANCH   1  14
BRANCH   1  26
ATOM     26  C   UNL d   1      60.456  46.367  50.703  0.00  0.00     0.047 A 
ATOM     27  S   UNL d   1      60.307  45.863  51.341  0.00  0.00    -0.085 SA
ATOM     28  C   UNL d   1      60.374  45.087  51.078  0.00  0.00     0.035 A 
ATOM     29  C   UNL d   1      60.564  45.103  50.273  0.00  0.00     0.007 A 
ATOM     30  C   UNL d   1      60.614  45.893  50.044  0.00  0.00     0.009 A 
ENDBRANCH   1  26
TORSDOF 6
ENDMDL
