MODEL 1
REMARK VINA RESULT:      -4.1      0.000      0.000
REMARK  5 active torsions:
REMARK  status: ('A' for Active; 'I' for Inactive)
REMARK    1  A    between atoms: C_6  and  C_1 
REMARK    2  A    between atoms: C_9  and  C_5 
REMARK       I    between atoms: N_13  and  C_6 
REMARK    3  A    between atoms: C_7  and  C_15 
REMARK    4  A    between atoms: N_10  and  N_13 
REMARK    5  A    between atoms: C_15  and  N_10 
ROOT
ATOM      1  C   UNL d   1      57.426  -0.741  30.664  0.00  0.00     0.316 C 
ATOM      2  N   UNL d   1      58.088  -0.288  30.121  0.00  0.00    -0.104 NA
ATOM      3  O   UNL d   1      57.217  -1.498  30.424  0.00  0.00    -0.262 OA
ENDROOT
BRANCH   1   4
ATOM      4  C   UNL d   1      57.074  -0.420  31.331  0.00  0.00     0.164 A 
ATOM      5  C   UNL d   1      56.624  -0.900  31.823  0.00  0.00     0.047 A 
ATOM      6  C   UNL d   1      56.364   0.203  32.666  0.00  0.00     0.105 A 
ATOM      7  N   UNL d   1      56.814   0.682  32.175  0.00  0.00    -0.148 NA
ATOM      8  N   UNL d   1      57.171   0.370  31.504  0.00  0.00    -0.143 NA
BRANCH   6   9
ATOM      9  C   UNL d   1      55.940   0.314  33.357  0.00  0.00     0.019 A 
ATOM     10  C   UNL d   1      56.336   0.345  34.072  0.00  0.00     0.002 A 
ATOM     11  C   UNL d   1      55.914   0.456  34.768  0.00  0.00     0.000 A 
ATOM     12  C   UNL d   1      56.305   0.488  35.484  0.00  0.00     0.000 A 
ATOM     13  C   UNL d   1      55.093   0.537  34.740  0.00  0.00     0.000 A 
ATOM     14  C   UNL d   1      55.887   0.598  36.173  0.00  0.00     0.000 A 
ATOM     15  C   UNL d   1      55.068   0.680  36.155  0.00  0.00     0.000 A 
ATOM     16  C   UNL d   1      54.673   0.649  35.441  0.00  0.00     0.000 A 
ATOM     17  C   UNL d   1      54.713   0.505  34.027  0.00  0.00     0.000 A 
ATOM     18  C   UNL d   1      55.136   0.393  33.335  0.00  0.00     0.002 A 
ENDBRANCH   6   9
ENDBRANCH   1   4
BRANCH   2  19
ATOM     19  N   UNL d   1      58.585  -0.568  29.296  0.00  0.00    -0.143 NA
BRANCH  19  20
ATOM     20  C   UNL d   1      58.705  -1.400  29.122  0.00  0.00     0.126 C 
BRANCH  20  21
ATOM     21  C   UNL d   1      59.502  -1.699  28.973  0.00  0.00     0.060 A 
ATOM     22  C   UNL d   1      59.635  -2.540  28.850  0.00  0.00     0.005 A 
ATOM     23  C   UNL d   1      60.431  -2.839  28.701  0.00  0.00     0.000 A 
ATOM     24  C   UNL d   1      58.966  -3.092  28.877  0.00  0.00     0.000 A 
ATOM     25  C   UNL d   1      60.564  -3.690  28.577  0.00  0.00     0.000 A 
ATOM     26  C   UNL d   1      61.106  -2.296  28.672  0.00  0.00     0.003 A 
ATOM     27  C   UNL d   1      59.895  -4.238  28.604  0.00  0.00     0.000 A 
ATOM     28  C   UNL d   1      59.098  -3.943  28.753  0.00  0.00     0.000 A 
ATOM     29  C   UNL d   1      60.964  -1.451  28.796  0.00  0.00     0.042 A 
ATOM     30  C   UNL d   1      60.167  -1.152  28.946  0.00  0.00     0.197 A 
ATOM     31  O   UNL d   1      60.035  -0.315  29.068  0.00  0.00    -0.286 OA
ENDBRANCH  20  21
ENDBRANCH  19  20
ENDBRANCH   2  19
TORSDOF 5
ENDMDL
MODEL 2
REMARK VINA RESULT:      -1.6      2.619      7.117
REMARK  5 active torsions:
REMARK  status: ('A' for Active; 'I' for Inactive)
REMARK    1  A    between atoms: C_6  and  C_1 
REMARK    2  A    between atoms: C_9  and  C_5 
REMARK       I    between atoms: N_13  and  C_6 
REMARK    3  A    between atoms: C_7  and  C_15 
REMARK    4  A    between atoms: N_10  and  N_13 
REMARK    5  A    between atoms: C_15  and  N_10 
ROOT
ATOM      1  C   UNL d   1      58.892  -2.917  28.778  0.00  0.00     0.316 C 
ATOM      2  N   UNL d   1      58.249  -2.343  29.221  0.00  0.00    -0.104 NA
ATOM      3  O   UNL d   1      59.552  -2.545  28.461  0.00  0.00    -0.262 OA
ENDROOT
BRANCH   1   4
ATOM      4  C   UNL d   1      58.816  -3.729  28.705  0.00  0.00     0.164 A 
ATOM      5  C   UNL d   1      58.081  -4.079  28.812  0.00  0.00     0.047 A 
ATOM      6  C   UNL d   1      58.644  -5.350  28.563  0.00  0.00     0.105 A 
ATOM      7  N   UNL d   1      59.379  -5.000  28.455  0.00  0.00    -0.148 NA
ATOM      8  N   UNL d   1      59.466  -4.187  28.526  0.00  0.00    -0.143 NA
BRANCH   6   9
ATOM      9  C   UNL d   1      58.355  -6.115  28.537  0.00  0.00     0.019 A 
ATOM     10  C   UNL d   1      58.879  -6.743  28.535  0.00  0.00     0.002 A 
ATOM     11  C   UNL d   1      58.593  -7.513  28.509  0.00  0.00     0.000 A 
ATOM     12  C   UNL d   1      59.112  -8.143  28.507  0.00  0.00     0.000 A 
ATOM     13  C   UNL d   1      57.779  -7.646  28.485  0.00  0.00     0.000 A 
ATOM     14  C   UNL d   1      58.829  -8.906  28.481  0.00  0.00     0.000 A 
ATOM     15  C   UNL d   1      58.019  -9.048  28.457  0.00  0.00     0.000 A 
ATOM     16  C   UNL d   1      57.496  -8.420  28.459  0.00  0.00     0.000 A 
ATOM     17  C   UNL d   1      57.271  -7.017  28.487  0.00  0.00     0.000 A 
ATOM     18  C   UNL d   1      57.559  -6.251  28.513  0.00  0.00     0.002 A 
ENDBRANCH   6   9
ENDBRANCH   1   4
BRANCH   2  19
ATOM     19  N   UNL d   1      58.228  -1.352  29.374  0.00  0.00    -0.143 NA
BRANCH  19  20
ATOM     20  C   UNL d   1      57.622  -1.001  29.869  0.00  0.00     0.126 C 
BRANCH  20  21
ATOM     21  C   UNL d   1      57.844  -0.458  30.504  0.00  0.00     0.060 A 
ATOM     22  C   UNL d   1      57.463  -0.510  31.273  0.00  0.00     0.005 A 
ATOM     23  C   UNL d   1      57.685   0.033  31.908  0.00  0.00     0.000 A 
ATOM     24  C   UNL d   1      56.852  -1.110  31.415  0.00  0.00     0.000 A 
ATOM     25  C   UNL d   1      57.299  -0.020  32.686  0.00  0.00     0.000 A 
ATOM     26  C   UNL d   1      58.293   0.636  31.777  0.00  0.00     0.003 A 
ATOM     27  C   UNL d   1      56.690  -0.620  32.823  0.00  0.00     0.000 A 
ATOM     28  C   UNL d   1      56.466  -1.164  32.192  0.00  0.00     0.000 A 
ATOM     29  C   UNL d   1      58.672   0.682  31.000  0.00  0.00     0.042 A 
ATOM     30  C   UNL d   1      58.450   0.138  30.365  0.00  0.00     0.197 A 
ATOM     31  O   UNL d   1      58.830   0.190  29.599  0.00  0.00    -0.286 OA
ENDBRANCH  20  21
ENDBRANCH  19  20
ENDBRANCH   2  19
TORSDOF 5
ENDMDL
