MODEL 1
REMARK VINA RESULT:      59.9      0.000      0.000
REMARK  3 active torsions:
REMARK  status: ('A' for Active; 'I' for Inactive)
REMARK    1  A    between atoms: C_6  and  C_1 
REMARK    2  A    between atoms: C_4  and  C_8 
REMARK       I    between atoms: N_11  and  C_6 
REMARK       I    between atoms: C_8  and  N_12 
REMARK    3  A    between atoms: N_12  and  N_11 
ROOT
ATOM      1  C   UNL d   1     -49.847  26.923  33.639  0.00  0.00     0.302 C 
ATOM      2  N   UNL d   1     -49.139  27.028  34.046  0.00  0.00    -0.102 NA
ATOM      3  O   UNL d   1     -50.242  27.569  33.308  0.00  0.00    -0.263 OA
ENDROOT
BRANCH   1   4
ATOM      4  C   UNL d   1     -50.174  26.165  33.554  0.00  0.00     0.123 A 
ATOM      5  C   UNL d   1     -49.689  25.519  33.447  0.00  0.00     0.305 A 
ATOM      6  O   UNL d   1     -50.028  24.763  33.363  0.00  0.00    -0.273 OA
ATOM      7  O   UNL d   1     -48.873  25.613  33.421  0.00  0.00    -0.259 OA
ATOM      8  C   UNL d   1     -50.844  24.670  33.389  0.00  0.00     0.103 A 
ATOM      9  C   UNL d   1     -51.334  25.329  33.498  0.00  0.00     0.024 A 
ATOM     10  C   UNL d   1     -51.172  23.921  33.306  0.00  0.00     0.025 A 
ATOM     11  C   UNL d   1     -50.995  26.079  33.581  0.00  0.00     0.012 A 
ATOM     12  C   UNL d   1     -52.149  25.235  33.523  0.00  0.00     0.009 A 
ATOM     13  C   UNL d   1     -52.487  24.490  33.441  0.00  0.00     0.035 A 
ATOM     14  C   UNL d   1     -51.995  23.828  33.331  0.00  0.00     0.009 A 
ATOM     15 BR   UNL d   1     -53.303  24.397  33.467  0.00  0.00    -0.049 Br
ENDBRANCH   1   4
BRANCH   2  16
ATOM     16  N   UNL d   1     -48.826  27.788  34.121  0.00  0.00    -0.102 NA
ATOM     17  C   UNL d   1     -48.636  28.073  34.870  0.00  0.00     0.300 C 
ATOM     18  O   UNL d   1     -48.755  27.605  35.540  0.00  0.00    -0.264 OA
BRANCH  17  19
ATOM     19  C   UNL d   1     -48.323  28.832  34.956  0.00  0.00     0.098 A 
ATOM     20  C   UNL d   1     -47.952  29.045  35.661  0.00  0.00     0.203 A 
ATOM     21  C   UNL d   1     -47.641  29.795  35.751  0.00  0.00     0.084 A 
ATOM     22  O   UNL d   1     -47.895  28.501  36.277  0.00  0.00    -0.286 OA
ATOM     23  C   UNL d   1     -47.696  30.342  35.137  0.00  0.00     0.199 A 
ATOM     24  C   UNL d   1     -48.067  30.132  34.429  0.00  0.00     0.042 A 
ATOM     25  O   UNL d   1     -47.383  31.099  35.225  0.00  0.00    -0.286 OA
ATOM     26  C   UNL d   1     -48.382  29.370  34.341  0.00  0.00     0.011 A 
ENDBRANCH  17  19
ENDBRANCH   2  16
TORSDOF 3
ENDMDL
MODEL 2
REMARK VINA RESULT:      62.3      1.096      1.424
REMARK  3 active torsions:
REMARK  status: ('A' for Active; 'I' for Inactive)
REMARK    1  A    between atoms: C_6  and  C_1 
REMARK    2  A    between atoms: C_4  and  C_8 
REMARK       I    between atoms: N_11  and  C_6 
REMARK       I    between atoms: C_8  and  N_12 
REMARK    3  A    between atoms: N_12  and  N_11 
ROOT
ATOM      1  C   UNL d   1     -49.707  27.375  33.912  0.00  0.00     0.302 C 
ATOM      2  N   UNL d   1     -49.656  27.733  34.652  0.00  0.00    -0.102 NA
ATOM      3  O   UNL d   1     -49.187  27.589  33.306  0.00  0.00    -0.263 OA
ENDROOT
BRANCH   1   4
ATOM      4  C   UNL d   1     -50.281  26.795  33.763  0.00  0.00     0.123 A 
ATOM      5  C   UNL d   1     -51.057  27.010  33.637  0.00  0.00     0.305 A 
ATOM      6  O   UNL d   1     -51.625  26.420  33.489  0.00  0.00    -0.273 OA
ATOM      7  O   UNL d   1     -51.277  27.802  33.656  0.00  0.00    -0.259 OA
ATOM      8  C   UNL d   1     -51.405  25.628  33.471  0.00  0.00     0.103 A 
ATOM      9  C   UNL d   1     -50.616  25.414  33.600  0.00  0.00     0.024 A 
ATOM     10  C   UNL d   1     -51.971  25.050  33.325  0.00  0.00     0.025 A 
ATOM     11  C   UNL d   1     -50.053  26.002  33.746  0.00  0.00     0.012 A 
ATOM     12  C   UNL d   1     -50.397  24.623  33.581  0.00  0.00     0.009 A 
ATOM     13  C   UNL d   1     -50.955  24.037  33.435  0.00  0.00     0.035 A 
ATOM     14  C   UNL d   1     -51.748  24.253  33.306  0.00  0.00     0.009 A 
ATOM     15 BR   UNL d   1     -50.735  23.246  33.417  0.00  0.00    -0.049 Br
ENDBRANCH   1   4
BRANCH   2  16
ATOM     16  N   UNL d   1     -49.080  28.308  34.784  0.00  0.00    -0.102 NA
ATOM     17  C   UNL d   1     -48.773  28.405  35.542  0.00  0.00     0.300 C 
ATOM     18  O   UNL d   1     -49.038  27.933  36.166  0.00  0.00    -0.264 OA
BRANCH  17  19
ATOM     19  C   UNL d   1     -48.196  28.977  35.683  0.00  0.00     0.098 A 
ATOM     20  C   UNL d   1     -48.113  29.297  36.439  0.00  0.00     0.203 A 
ATOM     21  C   UNL d   1     -47.543  29.865  36.584  0.00  0.00     0.084 A 
ATOM     22  O   UNL d   1     -48.605  29.045  37.050  0.00  0.00    -0.286 OA
ATOM     23  C   UNL d   1     -47.049  30.119  35.976  0.00  0.00     0.199 A 
ATOM     24  C   UNL d   1     -47.129  29.801  35.218  0.00  0.00     0.042 A 
ATOM     25  O   UNL d   1     -46.473  30.691  36.121  0.00  0.00    -0.286 OA
ATOM     26  C   UNL d   1     -47.708  29.225  35.074  0.00  0.00     0.011 A 
ENDBRANCH  17  19
ENDBRANCH   2  16
TORSDOF 3
ENDMDL
