MODEL 1
REMARK VINA RESULT:      -2.4      0.000      0.000
REMARK  4 active torsions:
REMARK  status: ('A' for Active; 'I' for Inactive)
REMARK    1  A    between atoms: C_2  and  S_1 
REMARK    2  A    between atoms: N_4  and  S_1 
REMARK    3  A    between atoms: O_12  and  C_5 
REMARK    4  A    between atoms: O_13  and  C_7 
ROOT
ATOM      1  C   UNL d   1      30.665  17.141 -24.391  0.00  0.00     0.128 A 
ATOM      2  C   UNL d   1      29.880  17.376 -24.300  0.00  0.00     0.040 A 
ATOM      3  C   UNL d   1      30.847  16.353 -24.541  0.00  0.00     0.107 A 
ATOM      4  C   UNL d   1      30.244  15.797 -24.600  0.00  0.00     0.034 A 
ATOM      5  C   UNL d   1      29.277  16.819 -24.359  0.00  0.00     0.101 A 
ATOM      6  C   UNL d   1      29.455  16.023 -24.510  0.00  0.00     0.059 A 
ATOM      7 BR   UNL d   1      28.855  15.469 -24.568  0.00  0.00    -0.047 Br
ENDROOT
BRANCH   1   8
ATOM      8  S   UNL d   1      31.272  17.701 -24.332  0.00  0.00     0.273 S 
ATOM      9  O   UNL d   1      31.108  17.959 -25.097  0.00  0.00    -0.200 OA
ATOM     10  O   UNL d   1      31.437  17.441 -23.563  0.00  0.00    -0.200 OA
BRANCH   8  11
ATOM     11  N   UNL d   1      31.876  18.258 -24.273  0.00  0.00    -0.229 N 
ATOM     12  C   UNL d   1      32.069  18.655 -24.968  0.00  0.00     0.092 A 
ATOM     13  C   UNL d   1      32.639  19.237 -25.092  0.00  0.00     0.020 A 
ATOM     14  C   UNL d   1      33.164  19.572 -24.550  0.00  0.00     0.002 A 
ATOM     15  C   UNL d   1      33.241  19.398 -23.745  0.00  0.00     0.002 A 
ATOM     16  C   UNL d   1      32.819  18.857 -23.290  0.00  0.00     0.020 A 
ATOM     17  C   UNL d   1      32.211  18.347 -23.518  0.00  0.00     0.092 A 
ENDBRANCH   8  11
ENDBRANCH   1   8
BRANCH   3  18
ATOM     18  O   UNL d   1      31.627  16.124 -24.631  0.00  0.00    -0.327 OA
ATOM     19  C   UNL d   1      31.814  15.459 -25.081  0.00  0.00     0.181 C 
ENDBRANCH   3  18
BRANCH   5  20
ATOM     20  O   UNL d   1      28.496  17.048 -24.269  0.00  0.00    -0.328 OA
ATOM     21  C   UNL d   1      28.265  17.461 -23.600  0.00  0.00     0.181 C 
ENDBRANCH   5  20
TORSDOF 4
ENDMDL
MODEL 2
REMARK VINA RESULT:      -1.7      2.298      4.166
REMARK  4 active torsions:
REMARK  status: ('A' for Active; 'I' for Inactive)
REMARK    1  A    between atoms: C_2  and  S_1 
REMARK    2  A    between atoms: N_4  and  S_1 
REMARK    3  A    between atoms: O_12  and  C_5 
REMARK    4  A    between atoms: O_13  and  C_7 
ROOT
ATOM      1  C   UNL d   1      32.666  18.978 -23.187  0.00  0.00     0.128 A 
ATOM      2  C   UNL d   1      32.622  19.189 -22.391  0.00  0.00     0.040 A 
ATOM      3  C   UNL d   1      32.900  19.529 -23.750  0.00  0.00     0.107 A 
ATOM      4  C   UNL d   1      33.091  20.296 -23.519  0.00  0.00     0.034 A 
ATOM      5  C   UNL d   1      32.814  19.956 -22.160  0.00  0.00     0.101 A 
ATOM      6  C   UNL d   1      33.050  20.515 -22.724  0.00  0.00     0.059 A 
ATOM      7 BR   UNL d   1      33.241  21.279 -22.494  0.00  0.00    -0.047 Br
ENDROOT
BRANCH   1   8
ATOM      8  S   UNL d   1      32.473  18.207 -23.420  0.00  0.00     0.273 S 
ATOM      9  O   UNL d   1      33.200  17.940 -23.136  0.00  0.00    -0.200 OA
ATOM     10  O   UNL d   1      31.743  18.475 -23.704  0.00  0.00    -0.200 OA
BRANCH   8  11
ATOM     11  N   UNL d   1      32.282  17.439 -23.651  0.00  0.00    -0.229 N 
ATOM     12  C   UNL d   1      31.481  17.291 -23.777  0.00  0.00     0.092 A 
ATOM     13  C   UNL d   1      31.114  16.590 -24.009  0.00  0.00     0.020 A 
ATOM     14  C   UNL d   1      31.456  15.856 -24.174  0.00  0.00     0.002 A 
ATOM     15  C   UNL d   1      32.256  15.652 -24.144  0.00  0.00     0.002 A 
ATOM     16  C   UNL d   1      32.903  16.120 -23.946  0.00  0.00     0.020 A 
ATOM     17  C   UNL d   1      32.922  16.915 -23.726  0.00  0.00     0.092 A 
ENDBRANCH   8  11
ENDBRANCH   1   8
BRANCH   3  18
ATOM     18  O   UNL d   1      32.942  19.316 -24.539  0.00  0.00    -0.327 OA
ATOM     19  C   UNL d   1      33.240  19.847 -25.096  0.00  0.00     0.181 C 
ENDBRANCH   3  18
BRANCH   5  20
ATOM     20  O   UNL d   1      32.771  20.169 -21.371  0.00  0.00    -0.328 OA
ATOM     21  C   UNL d   1      33.131  19.704 -20.801  0.00  0.00     0.181 C 
ENDBRANCH   5  20
TORSDOF 4
ENDMDL
MODEL 3
REMARK VINA RESULT:       0.4      1.230      1.572
REMARK  4 active torsions:
REMARK  status: ('A' for Active; 'I' for Inactive)
REMARK    1  A    between atoms: C_2  and  S_1 
REMARK    2  A    between atoms: N_4  and  S_1 
REMARK    3  A    between atoms: O_12  and  C_5 
REMARK    4  A    between atoms: O_13  and  C_7 
ROOT
ATOM      1  C   UNL d   1      29.989  16.731 -23.956  0.00  0.00     0.128 A 
ATOM      2  C   UNL d   1      29.335  17.128 -24.264  0.00  0.00     0.040 A 
ATOM      3  C   UNL d   1      29.886  16.076 -23.472  0.00  0.00     0.107 A 
ATOM      4  C   UNL d   1      29.126  15.813 -23.293  0.00  0.00     0.034 A 
ATOM      5  C   UNL d   1      28.575  16.866 -24.085  0.00  0.00     0.101 A 
ATOM      6  C   UNL d   1      28.466  16.205 -23.597  0.00  0.00     0.059 A 
ATOM      7 BR   UNL d   1      27.710  15.943 -23.419  0.00  0.00    -0.047 Br
ENDROOT
BRANCH   1   8
ATOM      8  S   UNL d   1      30.753  16.995 -24.136  0.00  0.00     0.273 S 
ATOM      9  O   UNL d   1      30.727  16.583 -24.850  0.00  0.00    -0.200 OA
ATOM     10  O   UNL d   1      30.779  17.410 -23.420  0.00  0.00    -0.200 OA
BRANCH   8  11
ATOM     11  N   UNL d   1      31.513  17.258 -24.316  0.00  0.00    -0.229 N 
ATOM     12  C   UNL d   1      31.738  17.972 -23.971  0.00  0.00     0.092 A 
ATOM     13  C   UNL d   1      32.452  18.378 -24.039  0.00  0.00     0.020 A 
ATOM     14  C   UNL d   1      33.125  18.174 -24.471  0.00  0.00     0.002 A 
ATOM     15  C   UNL d   1      33.241  17.505 -24.943  0.00  0.00     0.002 A 
ATOM     16  C   UNL d   1      32.723  16.885 -25.097  0.00  0.00     0.020 A 
ATOM     17  C   UNL d   1      31.953  16.768 -24.822  0.00  0.00     0.092 A 
ENDBRANCH   8  11
ENDBRANCH   1   8
BRANCH   3  18
ATOM     18  O   UNL d   1      30.537  15.684 -23.169  0.00  0.00    -0.327 OA
ATOM     19  C   UNL d   1      30.549  15.453 -22.377  0.00  0.00     0.181 C 
ENDBRANCH   3  18
BRANCH   5  20
ATOM     20  O   UNL d   1      27.924  17.257 -24.389  0.00  0.00    -0.328 OA
ATOM     21  C   UNL d   1      27.908  18.076 -24.406  0.00  0.00     0.181 C 
ENDBRANCH   5  20
TORSDOF 4
ENDMDL
MODEL 4
REMARK VINA RESULT:       0.6      3.064      4.778
REMARK  4 active torsions:
REMARK  status: ('A' for Active; 'I' for Inactive)
REMARK    1  A    between atoms: C_2  and  S_1 
REMARK    2  A    between atoms: N_4  and  S_1 
REMARK    3  A    between atoms: O_12  and  C_5 
REMARK    4  A    between atoms: O_13  and  C_7 
ROOT
ATOM      1  C   UNL d   1      32.833  20.337 -22.728  0.00  0.00     0.128 A 
ATOM      2  C   UNL d   1      32.687  20.488 -21.930  0.00  0.00     0.040 A 
ATOM      3  C   UNL d   1      33.098  20.937 -23.222  0.00  0.00     0.107 A 
ATOM      4  C   UNL d   1      33.219  21.693 -22.920  0.00  0.00     0.034 A 
ATOM      5  C   UNL d   1      32.808  21.244 -21.628  0.00  0.00     0.101 A 
ATOM      6  C   UNL d   1      33.076  21.853 -22.122  0.00  0.00     0.059 A 
ATOM      7 BR   UNL d   1      33.197  22.606 -21.822  0.00  0.00    -0.047 Br
ENDROOT
BRANCH   1   8
ATOM      8  S   UNL d   1      32.711  19.576 -23.032  0.00  0.00     0.273 S 
ATOM      9  O   UNL d   1      32.286  19.896 -23.661  0.00  0.00    -0.200 OA
ATOM     10  O   UNL d   1      33.138  19.255 -22.399  0.00  0.00    -0.200 OA
BRANCH   8  11
ATOM     11  N   UNL d   1      32.589  18.819 -23.334  0.00  0.00    -0.229 N 
ATOM     12  C   UNL d   1      31.903  18.715 -23.778  0.00  0.00     0.092 A 
ATOM     13  C   UNL d   1      31.626  18.034 -24.151  0.00  0.00     0.020 A 
ATOM     14  C   UNL d   1      31.965  17.281 -24.175  0.00  0.00     0.002 A 
ATOM     15  C   UNL d   1      32.672  17.033 -23.825  0.00  0.00     0.002 A 
ATOM     16  C   UNL d   1      33.206  17.465 -23.373  0.00  0.00     0.020 A 
ATOM     17  C   UNL d   1      33.176  18.260 -23.151  0.00  0.00     0.092 A 
ENDBRANCH   8  11
ENDBRANCH   1   8
BRANCH   3  18
ATOM     18  O   UNL d   1      33.241  20.784 -24.012  0.00  0.00    -0.327 OA
ATOM     19  C   UNL d   1      33.236  21.400 -24.561  0.00  0.00     0.181 C 
ENDBRANCH   3  18
BRANCH   5  20
ATOM     20  O   UNL d   1      32.665  21.397 -20.837  0.00  0.00    -0.328 OA
ATOM     21  C   UNL d   1      31.922  21.641 -20.595  0.00  0.00     0.181 C 
ENDBRANCH   5  20
TORSDOF 4
ENDMDL
