MODEL 1
REMARK VINA RESULT:      -2.8      0.000      0.000
REMARK  6 active torsions:
REMARK  status: ('A' for Active; 'I' for Inactive)
REMARK    1  A    between atoms: C_5  and  C_1 
REMARK       I    between atoms: N_10  and  C_5 
REMARK    2  A    between atoms: C_9  and  C_6 
REMARK    3  A    between atoms: C_17  and  N_7 
REMARK    4  A    between atoms: O_23  and  C_8 
REMARK    5  A    between atoms: O_25  and  C_12 
REMARK    6  A    between atoms: C_18  and  C_17 
ROOT
ATOM      1  C   UNL d   1      58.498   0.467  31.759  0.00  0.00     0.316 C 
ATOM      2  N   UNL d   1      59.622   0.012  30.055  0.00  0.00    -0.143 NA
ATOM      3  N   UNL d   1      58.556   0.088  30.637  0.00  0.00    -0.104 NA
ATOM      4  O   UNL d   1      59.183   0.682  32.151  0.00  0.00    -0.262 OA
ENDROOT
BRANCH   1   5
ATOM      5  C   UNL d   1      57.770   0.512  32.136  0.00  0.00     0.164 A 
ATOM      6  C   UNL d   1      57.720   0.449  32.945  0.00  0.00     0.047 A 
ATOM      7  C   UNL d   1      56.312   0.605  32.873  0.00  0.00     0.105 A 
ATOM      8  N   UNL d   1      56.366   0.668  32.054  0.00  0.00    -0.148 NA
ATOM      9  N   UNL d   1      57.085   0.623  31.687  0.00  0.00    -0.143 NA
BRANCH   7  10
ATOM     10  C   UNL d   1      55.698   0.624  33.416  0.00  0.00     0.019 A 
ATOM     11  C   UNL d   1      54.927   0.606  33.169  0.00  0.00     0.002 A 
ATOM     12  C   UNL d   1      54.313   0.625  33.706  0.00  0.00     0.011 A 
ATOM     13  C   UNL d   1      54.486   0.662  34.506  0.00  0.00     0.058 A 
ATOM     14  C   UNL d   1      55.257   0.681  34.763  0.00  0.00     0.011 A 
ATOM     15 CL   UNL d   1      53.873   0.682  35.054  0.00  0.00    -0.082 Cl
ATOM     16  C   UNL d   1      55.872   0.662  34.220  0.00  0.00     0.002 A 
ENDBRANCH   7  10
ENDBRANCH   1   5
BRANCH   2  17
ATOM     17  C   UNL d   1      59.660  -0.259  29.257  0.00  0.00     0.122 C 
BRANCH  17  18
ATOM     18  C   UNL d   1      59.917  -1.091  29.070  0.00  0.00     0.023 A 
ATOM     19  C   UNL d   1      59.299  -1.738  28.987  0.00  0.00     0.028 A 
ATOM     20  C   UNL d   1      59.563  -2.577  28.798  0.00  0.00     0.116 A 
ATOM     21  C   UNL d   1      60.436  -2.769  28.694  0.00  0.00     0.116 A 
ATOM     22  C   UNL d   1      61.040  -2.121  28.779  0.00  0.00     0.026 A 
ATOM     23  C   UNL d   1      60.784  -1.275  28.968  0.00  0.00     0.004 A 
BRANCH  20  24
ATOM     24  O   UNL d   1      58.946  -3.224  28.715  0.00  0.00    -0.326 OA
ATOM     25  C   UNL d   1      58.102  -3.011  28.525  0.00  0.00     0.181 C 
ENDBRANCH  20  24
BRANCH  21  26
ATOM     26  O   UNL d   1      60.685  -3.606  28.507  0.00  0.00    -0.326 OA
ATOM     27  C   UNL d   1      61.110  -4.084  29.130  0.00  0.00     0.181 C 
ENDBRANCH  21  26
ENDBRANCH  17  18
ENDBRANCH   2  17
TORSDOF 6
ENDMDL
MODEL 2
REMARK VINA RESULT:      -2.7      2.805      6.997
REMARK  6 active torsions:
REMARK  status: ('A' for Active; 'I' for Inactive)
REMARK    1  A    between atoms: C_5  and  C_1 
REMARK       I    between atoms: N_10  and  C_5 
REMARK    2  A    between atoms: C_9  and  C_6 
REMARK    3  A    between atoms: C_17  and  N_7 
REMARK    4  A    between atoms: O_23  and  C_8 
REMARK    5  A    between atoms: O_25  and  C_12 
REMARK    6  A    between atoms: C_18  and  C_17 
ROOT
ATOM      1  C   UNL d   1      58.082  -0.885  29.779  0.00  0.00     0.316 C 
ATOM      2  N   UNL d   1      57.561   0.410  31.335  0.00  0.00    -0.143 NA
ATOM      3  N   UNL d   1      58.232  -0.501  30.891  0.00  0.00    -0.104 NA
ATOM      4  O   UNL d   1      57.519  -0.534  29.301  0.00  0.00    -0.262 OA
ENDROOT
BRANCH   1   5
ATOM      5  C   UNL d   1      58.544  -1.503  29.495  0.00  0.00     0.164 A 
ATOM      6  C   UNL d   1      58.668  -2.167  29.948  0.00  0.00     0.047 A 
ATOM      7  C   UNL d   1      59.467  -2.723  28.916  0.00  0.00     0.105 A 
ATOM      8  N   UNL d   1      59.339  -2.049  28.460  0.00  0.00    -0.148 NA
ATOM      9  N   UNL d   1      58.883  -1.444  28.744  0.00  0.00    -0.143 NA
BRANCH   7  10
ATOM     10  C   UNL d   1      59.883  -3.422  28.812  0.00  0.00     0.019 A 
ATOM     11  C   UNL d   1      60.689  -3.438  28.888  0.00  0.00     0.002 A 
ATOM     12  C   UNL d   1      61.106  -4.132  28.785  0.00  0.00     0.011 A 
ATOM     13  C   UNL d   1      60.698  -4.818  28.602  0.00  0.00     0.058 A 
ATOM     14  C   UNL d   1      59.889  -4.811  28.524  0.00  0.00     0.011 A 
ATOM     15 CL   UNL d   1      61.112  -5.521  28.497  0.00  0.00    -0.082 Cl
ATOM     16  C   UNL d   1      59.472  -4.112  28.628  0.00  0.00     0.002 A 
ENDBRANCH   7  10
ENDBRANCH   1   5
BRANCH   2  17
ATOM     17  C   UNL d   1      57.671   0.682  32.127  0.00  0.00     0.122 C 
BRANCH  17  18
ATOM     18  C   UNL d   1      56.999   0.662  32.711  0.00  0.00     0.023 A 
ATOM     19  C   UNL d   1      57.177   0.646  33.592  0.00  0.00     0.028 A 
ATOM     20  C   UNL d   1      56.496   0.626  34.180  0.00  0.00     0.116 A 
ATOM     21  C   UNL d   1      55.644   0.623  33.890  0.00  0.00     0.116 A 
ATOM     22  C   UNL d   1      55.478   0.640  33.016  0.00  0.00     0.026 A 
ATOM     23  C   UNL d   1      56.156   0.659  32.418  0.00  0.00     0.004 A 
BRANCH  20  24
ATOM     24  O   UNL d   1      56.674   0.610  35.060  0.00  0.00    -0.326 OA
ATOM     25  C   UNL d   1      57.518   0.632  35.342  0.00  0.00     0.181 C 
ENDBRANCH  20  24
BRANCH  21  26
ATOM     26  O   UNL d   1      54.976   0.603  34.483  0.00  0.00    -0.326 OA
ATOM     27  C   UNL d   1      54.134   0.653  34.193  0.00  0.00     0.181 C 
ENDBRANCH  21  26
ENDBRANCH  17  18
ENDBRANCH   2  17
TORSDOF 6
ENDMDL
