MODEL 1
REMARK VINA RESULT:      -1.2      0.000      0.000
REMARK  3 active torsions:
REMARK  status: ('A' for Active; 'I' for Inactive)
REMARK    1  A    between atoms: N_3  and  S_1 
REMARK    2  A    between atoms: C_5  and  S_1 
REMARK       I    between atoms: C_2  and  N_4 
REMARK       I    between atoms: N_6  and  C_2 
REMARK    3  A    between atoms: C_13  and  N_6 
ROOT
ATOM      1  C   UNL d   1      32.886  18.814 -23.122  0.00  0.00     0.339 C 
ATOM      2  N   UNL d   1      33.019  20.663 -21.463  0.00  0.00    -0.226 N 
ATOM      3  N   UNL d   1      32.930  19.427 -22.572  0.00  0.00    -0.254 N 
ATOM      4  N   UNL d   1      32.784  18.035 -22.870  0.00  0.00    -0.257 N 
ATOM      5  C   UNL d   1      32.916  19.881 -21.202  0.00  0.00     0.111 A 
ATOM      6  C   UNL d   1      33.077  20.823 -22.271  0.00  0.00     0.111 A 
ATOM      7  O   UNL d   1      32.946  18.992 -23.930  0.00  0.00    -0.245 OA
ATOM      8  C   UNL d   1      32.872  19.265 -21.755  0.00  0.00     0.104 A 
ATOM      9  C   UNL d   1      33.033  20.210 -22.821  0.00  0.00     0.104 A 
ATOM     10  C   UNL d   1      32.726  17.866 -22.070  0.00  0.00     0.104 C 
ENDROOT
BRANCH   2  11
ATOM     11  S   UNL d   1      33.063  21.273 -20.915  0.00  0.00     0.271 S 
ATOM     12  O   UNL d   1      33.104  21.815 -21.536  0.00  0.00    -0.200 OA
ATOM     13  O   UNL d   1      33.022  20.718 -20.306  0.00  0.00    -0.200 OA
BRANCH  11  14
ATOM     14  C   UNL d   1      33.107  21.886 -20.366  0.00  0.00     0.104 A 
ATOM     15  C   UNL d   1      33.146  21.711 -19.566  0.00  0.00     0.013 A 
ATOM     16  C   UNL d   1      33.190  22.314 -19.025  0.00  0.00     0.001 A 
ATOM     17  C   UNL d   1      33.229  22.145 -18.219  0.00  0.00     0.000 C 
ATOM     18  C   UNL d   1      33.195  23.089 -19.270  0.00  0.00     0.000 A 
ATOM     19  C   UNL d   1      33.156  23.258 -20.074  0.00  0.00     0.001 A 
ATOM     20  C   UNL d   1      33.239  23.702 -18.719  0.00  0.00     0.000 C 
ATOM     21  C   UNL d   1      33.112  22.655 -20.616  0.00  0.00     0.013 A 
ENDBRANCH  11  14
ENDBRANCH   2  11
BRANCH   4  22
ATOM     22  C   UNL d   1      32.741  17.424 -23.435  0.00  0.00     0.068 A 
ATOM     23  C   UNL d   1      32.210  17.469 -24.067  0.00  0.00     0.018 A 
ATOM     24  C   UNL d   1      32.179  16.856 -24.618  0.00  0.00     0.002 A 
ATOM     25  C   UNL d   1      32.672  16.201 -24.541  0.00  0.00     0.000 A 
ATOM     26  C   UNL d   1      33.205  16.160 -23.901  0.00  0.00     0.002 A 
ATOM     27  C   UNL d   1      32.638  15.590 -25.094  0.00  0.00     0.000 C 
ATOM     28  C   UNL d   1      33.234  16.775 -23.352  0.00  0.00     0.018 A 
ENDBRANCH   4  22
TORSDOF 3
ENDMDL
MODEL 2
REMARK VINA RESULT:      -0.4      1.246      6.023
REMARK  3 active torsions:
REMARK  status: ('A' for Active; 'I' for Inactive)
REMARK    1  A    between atoms: N_3  and  S_1 
REMARK    2  A    between atoms: C_5  and  S_1 
REMARK       I    between atoms: C_2  and  N_4 
REMARK       I    between atoms: N_6  and  C_2 
REMARK    3  A    between atoms: C_13  and  N_6 
ROOT
ATOM      1  C   UNL d   1      32.839  21.897 -19.966  0.00  0.00     0.339 C 
ATOM      2  N   UNL d   1      32.953  20.344 -21.907  0.00  0.00    -0.226 N 
ATOM      3  N   UNL d   1      32.877  21.382 -20.610  0.00  0.00    -0.254 N 
ATOM      4  N   UNL d   1      33.021  21.630 -19.207  0.00  0.00    -0.257 N 
ATOM      5  C   UNL d   1      33.137  20.067 -21.145  0.00  0.00     0.111 A 
ATOM      6  C   UNL d   1      32.732  21.132 -22.016  0.00  0.00     0.111 A 
ATOM      7  O   UNL d   1      32.616  22.686 -20.093  0.00  0.00    -0.245 OA
ATOM      8  C   UNL d   1      33.099  20.585 -20.499  0.00  0.00     0.104 A 
ATOM      9  C   UNL d   1      32.695  21.647 -21.373  0.00  0.00     0.104 A 
ATOM     10  C   UNL d   1      33.241  20.849 -19.088  0.00  0.00     0.104 C 
ENDROOT
BRANCH   2  11
ATOM     11  S   UNL d   1      32.990  19.831 -22.547  0.00  0.00     0.271 S 
ATOM     12  O   UNL d   1      32.776  19.209 -22.050  0.00  0.00    -0.200 OA
ATOM     13  O   UNL d   1      33.203  20.465 -23.030  0.00  0.00    -0.200 OA
BRANCH  11  14
ATOM     14  C   UNL d   1      33.027  19.317 -23.190  0.00  0.00     0.104 A 
ATOM     15  C   UNL d   1      32.891  18.517 -23.077  0.00  0.00     0.013 A 
ATOM     16  C   UNL d   1      32.928  18.010 -23.710  0.00  0.00     0.001 A 
ATOM     17  C   UNL d   1      32.793  17.204 -23.603  0.00  0.00     0.000 C 
ATOM     18  C   UNL d   1      33.099  18.290 -24.454  0.00  0.00     0.000 A 
ATOM     19  C   UNL d   1      33.235  19.095 -24.560  0.00  0.00     0.001 A 
ATOM     20  C   UNL d   1      33.137  17.775 -25.097  0.00  0.00     0.000 C 
ATOM     21  C   UNL d   1      33.198  19.602 -23.927  0.00  0.00     0.013 A 
ENDBRANCH  11  14
ENDBRANCH   2  11
BRANCH   4  22
ATOM     22  C   UNL d   1      32.980  22.158 -18.565  0.00  0.00     0.068 A 
ATOM     23  C   UNL d   1      32.894  22.971 -18.692  0.00  0.00     0.018 A 
ATOM     24  C   UNL d   1      32.855  23.483 -18.046  0.00  0.00     0.002 A 
ATOM     25  C   UNL d   1      32.900  23.188 -17.278  0.00  0.00     0.000 A 
ATOM     26  C   UNL d   1      32.987  22.367 -17.156  0.00  0.00     0.002 A 
ATOM     27  C   UNL d   1      32.861  23.702 -16.634  0.00  0.00     0.000 C 
ATOM     28  C   UNL d   1      33.026  21.859 -17.804  0.00  0.00     0.018 A 
ENDBRANCH   4  22
TORSDOF 3
ENDMDL
