MODEL 1
REMARK VINA RESULT:      -8.3      0.000      0.000
REMARK  5 active torsions:
REMARK  status: ('A' for Active; 'I' for Inactive)
REMARK    1  A    between atoms: C_3  and  C_1 
REMARK    2  A    between atoms: C_2  and  C_3 
REMARK    3  A    between atoms: C_4  and  C_2 
REMARK    4  A    between atoms: C_7  and  C_4 
REMARK    5  A    between atoms: O_14  and  C_8 
ROOT
ATOM      1  C   UNL d   1      52.858  33.173  53.564  0.00  0.00     0.042 C 
ENDROOT
BRANCH   1   2
ATOM      2  C   UNL d   1      53.514  32.685  53.818  0.00  0.00     0.199 C 
ATOM      3  O   UNL d   1      53.543  31.889  53.576  0.00  0.00    -0.286 OA
BRANCH   2   4
ATOM      4  C   UNL d   1      54.104  33.022  54.299  0.00  0.00     0.078 A 
ATOM      5  C   UNL d   1      54.856  33.148  53.994  0.00  0.00     0.199 A 
ATOM      6  O   UNL d   1      55.023  32.936  53.203  0.00  0.00    -0.286 OA
ATOM      7  C   UNL d   1      55.437  33.475  54.455  0.00  0.00     0.042 A 
ATOM      8  C   UNL d   1      55.257  33.687  55.256  0.00  0.00     0.003 A 
ATOM      9  C   UNL d   1      54.530  33.564  55.545  0.00  0.00     0.000 A 
ATOM     10  C   UNL d   1      53.942  33.232  55.078  0.00  0.00     0.006 A 
ENDBRANCH   2   4
ENDBRANCH   1   2
BRANCH   1  11
ATOM     11  C   UNL d   1      52.236  32.825  53.110  0.00  0.00     0.003 C 
BRANCH  11  12
ATOM     12  C   UNL d   1      51.622  33.310  52.907  0.00  0.00     0.000 A 
ATOM     13  C   UNL d   1      51.677  33.842  52.300  0.00  0.00     0.002 A 
ATOM     14  C   UNL d   1      51.033  34.323  52.118  0.00  0.00     0.024 A 
ATOM     15  C   UNL d   1      50.325  34.277  52.538  0.00  0.00     0.094 A 
ATOM     16  C   UNL d   1      50.272  33.732  53.158  0.00  0.00     0.024 A 
ATOM     17  C   UNL d   1      50.914  33.244  53.349  0.00  0.00     0.002 A 
BRANCH  15  18
ATOM     18  O   UNL d   1      49.680  34.767  52.347  0.00  0.00    -0.328 OA
ATOM     19  C   UNL d   1      49.240  35.146  52.935  0.00  0.00     0.181 C 
ENDBRANCH  15  18
ENDBRANCH  11  12
ENDBRANCH   1  11
TORSDOF 5
ENDMDL
MODEL 2
REMARK VINA RESULT:      -8.1      2.203      3.921
REMARK  5 active torsions:
REMARK  status: ('A' for Active; 'I' for Inactive)
REMARK    1  A    between atoms: C_3  and  C_1 
REMARK    2  A    between atoms: C_2  and  C_3 
REMARK    3  A    between atoms: C_4  and  C_2 
REMARK    4  A    between atoms: C_7  and  C_4 
REMARK    5  A    between atoms: O_14  and  C_8 
ROOT
ATOM      1  C   UNL d   1      52.797  32.431  53.283  0.00  0.00     0.042 C 
ENDROOT
BRANCH   1   2
ATOM      2  C   UNL d   1      52.620  33.197  52.944  0.00  0.00     0.199 C 
ATOM      3  O   UNL d   1      52.357  33.240  52.157  0.00  0.00    -0.286 OA
BRANCH   2   4
ATOM      4  C   UNL d   1      52.718  33.877  53.415  0.00  0.00     0.078 A 
ATOM      5  C   UNL d   1      52.113  34.430  53.462  0.00  0.00     0.199 A 
ATOM      6  O   UNL d   1      51.404  34.306  53.037  0.00  0.00    -0.286 OA
ATOM      7  C   UNL d   1      52.199  35.095  53.918  0.00  0.00     0.042 A 
ATOM      8  C   UNL d   1      52.922  35.212  54.345  0.00  0.00     0.003 A 
ATOM      9  C   UNL d   1      53.503  34.676  54.296  0.00  0.00     0.000 A 
ATOM     10  C   UNL d   1      53.415  34.002  53.834  0.00  0.00     0.006 A 
ENDBRANCH   2   4
ENDBRANCH   1   2
BRANCH   1  11
ATOM     11  C   UNL d   1      52.863  31.760  52.773  0.00  0.00     0.003 C 
BRANCH  11  12
ATOM     12  C   UNL d   1      52.979  31.045  53.131  0.00  0.00     0.000 A 
ATOM     13  C   UNL d   1      53.631  30.891  53.584  0.00  0.00     0.002 A 
ATOM     14  C   UNL d   1      53.720  30.151  53.936  0.00  0.00     0.024 A 
ATOM     15  C   UNL d   1      53.159  29.555  53.839  0.00  0.00     0.094 A 
ATOM     16  C   UNL d   1      52.493  29.714  53.375  0.00  0.00     0.024 A 
ATOM     17  C   UNL d   1      52.395  30.456  53.018  0.00  0.00     0.002 A 
BRANCH  15  18
ATOM     18  O   UNL d   1      53.258  28.811  54.198  0.00  0.00    -0.328 OA
ATOM     19  C   UNL d   1      53.389  28.741  55.011  0.00  0.00     0.181 C 
ENDBRANCH  15  18
ENDBRANCH  11  12
ENDBRANCH   1  11
TORSDOF 5
ENDMDL
MODEL 3
REMARK VINA RESULT:      -8.0      1.570      2.230
REMARK  5 active torsions:
REMARK  status: ('A' for Active; 'I' for Inactive)
REMARK    1  A    between atoms: C_3  and  C_1 
REMARK    2  A    between atoms: C_2  and  C_3 
REMARK    3  A    between atoms: C_4  and  C_2 
REMARK    4  A    between atoms: C_7  and  C_4 
REMARK    5  A    between atoms: O_14  and  C_8 
ROOT
ATOM      1  C   UNL d   1      52.373  32.713  53.022  0.00  0.00     0.042 C 
ENDROOT
BRANCH   1   2
ATOM      2  C   UNL d   1      53.142  32.352  53.129  0.00  0.00     0.199 C 
ATOM      3  O   UNL d   1      53.823  32.826  53.072  0.00  0.00    -0.286 OA
BRANCH   2   4
ATOM      4  C   UNL d   1      53.185  31.535  53.286  0.00  0.00     0.078 A 
ATOM      5  C   UNL d   1      53.540  31.272  53.977  0.00  0.00     0.199 A 
ATOM      6  O   UNL d   1      53.856  31.826  54.518  0.00  0.00    -0.286 OA
ATOM      7  C   UNL d   1      53.587  30.479  54.140  0.00  0.00     0.042 A 
ATOM      8  C   UNL d   1      53.263  29.925  53.585  0.00  0.00     0.003 A 
ATOM      9  C   UNL d   1      52.921  30.184  52.919  0.00  0.00     0.000 A 
ATOM     10  C   UNL d   1      52.874  30.988  52.755  0.00  0.00     0.006 A 
ENDBRANCH   2   4
ENDBRANCH   1   2
BRANCH   1  11
ATOM     11  C   UNL d   1      52.324  33.544  52.876  0.00  0.00     0.003 C 
BRANCH  11  12
ATOM     12  C   UNL d   1      51.588  33.841  52.723  0.00  0.00     0.000 A 
ATOM     13  C   UNL d   1      51.018  33.891  53.295  0.00  0.00     0.002 A 
ATOM     14  C   UNL d   1      50.276  34.199  53.109  0.00  0.00     0.024 A 
ATOM     15  C   UNL d   1      50.095  34.461  52.348  0.00  0.00     0.094 A 
ATOM     16  C   UNL d   1      50.679  34.409  51.766  0.00  0.00     0.024 A 
ATOM     17  C   UNL d   1      51.428  34.101  51.944  0.00  0.00     0.002 A 
BRANCH  15  18
ATOM     18  O   UNL d   1      49.344  34.771  52.169  0.00  0.00    -0.328 OA
ATOM     19  C   UNL d   1      48.955  34.573  51.467  0.00  0.00     0.181 C 
ENDBRANCH  15  18
ENDBRANCH  11  12
ENDBRANCH   1  11
TORSDOF 5
ENDMDL
MODEL 4
REMARK VINA RESULT:      -7.7      2.223      3.526
REMARK  5 active torsions:
REMARK  status: ('A' for Active; 'I' for Inactive)
REMARK    1  A    between atoms: C_3  and  C_1 
REMARK    2  A    between atoms: C_2  and  C_3 
REMARK    3  A    between atoms: C_4  and  C_2 
REMARK    4  A    between atoms: C_7  and  C_4 
REMARK    5  A    between atoms: O_14  and  C_8 
ROOT
ATOM      1  C   UNL d   1      53.700  31.869  53.823  0.00  0.00     0.042 C 
ENDROOT
BRANCH   1   2
ATOM      2  C   UNL d   1      53.924  31.148  53.419  0.00  0.00     0.199 C 
ATOM      3  O   UNL d   1      54.570  31.161  52.895  0.00  0.00    -0.286 OA
BRANCH   2   4
ATOM      4  C   UNL d   1      53.487  30.454  53.564  0.00  0.00     0.078 A 
ATOM      5  C   UNL d   1      52.900  30.225  53.037  0.00  0.00     0.199 A 
ATOM      6  O   UNL d   1      52.746  30.691  52.360  0.00  0.00    -0.286 OA
ATOM      7  C   UNL d   1      52.469  29.551  53.169  0.00  0.00     0.042 A 
ATOM      8  C   UNL d   1      52.633  29.086  53.858  0.00  0.00     0.003 A 
ATOM      9  C   UNL d   1      53.201  29.311  54.363  0.00  0.00     0.000 A 
ATOM     10  C   UNL d   1      53.637  29.993  54.229  0.00  0.00     0.006 A 
ENDBRANCH   2   4
ENDBRANCH   1   2
BRANCH   1  11
ATOM     11  C   UNL d   1      54.207  32.544  53.773  0.00  0.00     0.003 C 
BRANCH  11  12
ATOM     12  C   UNL d   1      53.930  33.228  54.102  0.00  0.00     0.000 A 
ATOM     13  C   UNL d   1      53.376  33.688  53.735  0.00  0.00     0.002 A 
ATOM     14  C   UNL d   1      53.114  34.381  54.097  0.00  0.00     0.024 A 
ATOM     15  C   UNL d   1      53.403  34.623  54.831  0.00  0.00     0.094 A 
ATOM     16  C   UNL d   1      53.970  34.150  55.204  0.00  0.00     0.024 A 
ATOM     17  C   UNL d   1      54.239  33.452  54.847  0.00  0.00     0.002 A 
BRANCH  15  18
ATOM     18  O   UNL d   1      53.132  35.323  55.189  0.00  0.00    -0.328 OA
ATOM     19  C   UNL d   1      52.982  36.003  54.742  0.00  0.00     0.181 C 
ENDBRANCH  15  18
ENDBRANCH  11  12
ENDBRANCH   1  11
TORSDOF 5
ENDMDL
