MODEL 1
REMARK VINA RESULT:      66.9      0.000      0.000
REMARK  5 active torsions:
REMARK  status: ('A' for Active; 'I' for Inactive)
REMARK    1  A    between atoms: C_12  and  C_4 
REMARK    2  A    between atoms: N_10  and  C_6 
REMARK    3  A    between atoms: C_11  and  C_9 
REMARK    4  A    between atoms: C_14  and  N_10 
REMARK    5  A    between atoms: C_15  and  C_14 
ROOT
ATOM      1  C   UNL d   1     -52.219  25.350  33.420  0.00  0.00     0.167 A 
ATOM      2  N   UNL d   1     -51.816  26.071  33.369  0.00  0.00    -0.195 N 
ATOM      3  N   UNL d   1     -53.050  26.743  33.321  0.00  0.00    -0.163 NA
ATOM      4  C   UNL d   1     -53.025  25.330  33.421  0.00  0.00     0.055 A 
ATOM      5  N   UNL d   1     -51.797  24.647  33.470  0.00  0.00    -0.231 NA
ATOM      6  C   UNL d   1     -51.001  26.071  33.370  0.00  0.00     0.167 A 
ATOM      7  C   UNL d   1     -53.447  26.033  33.371  0.00  0.00     0.104 A 
ATOM      8  C   UNL d   1     -50.575  25.366  33.420  0.00  0.00     0.054 A 
ATOM      9  C   UNL d   1     -50.972  24.656  33.470  0.00  0.00     0.063 A 
ATOM     10  C   UNL d   1     -54.260  26.028  33.371  0.00  0.00     0.023 C 
ENDROOT
BRANCH   6  11
ATOM     11  N   UNL d   1     -50.584  26.815  33.318  0.00  0.00    -0.224 NA
BRANCH  11  12
ATOM     12  C   UNL d   1     -49.807  27.137  33.311  0.00  0.00     0.120 C 
BRANCH  12  13
ATOM     13  C   UNL d   1     -49.547  27.642  33.931  0.00  0.00     0.101 A 
ATOM     14  N   UNL d   1     -49.389  28.454  33.767  0.00  0.00    -0.242 NA
ATOM     15  C   UNL d   1     -49.125  28.965  34.401  0.00  0.00     0.099 A 
ATOM     16  C   UNL d   1     -49.024  28.658  35.179  0.00  0.00     0.021 A 
ATOM     17  C   UNL d   1     -49.186  27.829  35.338  0.00  0.00     0.003 A 
ATOM     18  C   UNL d   1     -49.446  27.332  34.712  0.00  0.00     0.021 A 
ENDBRANCH  12  13
ENDBRANCH  11  12
ENDBRANCH   6  11
BRANCH   9  19
ATOM     19  C   UNL d   1     -50.537  23.926  33.522  0.00  0.00     0.036 C 
ATOM     20  C   UNL d   1     -50.102  23.207  33.575  0.00  0.00     0.006 C 
ATOM     21  C   UNL d   1     -50.914  23.190  33.313  0.00  0.00     0.006 C 
ATOM     22  C   UNL d   1     -49.729  23.943  33.782  0.00  0.00     0.006 C 
ENDBRANCH   9  19
BRANCH   4  23
ATOM     23  C   UNL d   1     -53.424  24.617  33.471  0.00  0.00     0.004 A 
ATOM     24  C   UNL d   1     -54.227  24.595  33.322  0.00  0.00     0.000 A 
ATOM     25  C   UNL d   1     -54.631  23.874  33.372  0.00  0.00     0.000 A 
ATOM     26  C   UNL d   1     -54.219  23.196  33.570  0.00  0.00     0.000 A 
ATOM     27  C   UNL d   1     -53.413  23.232  33.717  0.00  0.00     0.000 A 
ATOM     28  C   UNL d   1     -53.016  23.942  33.667  0.00  0.00     0.000 A 
ENDBRANCH   4  23
TORSDOF 5
ENDMDL
