MODEL 1
REMARK VINA RESULT:      14.0      0.000      0.000
REMARK  1 active torsions:
REMARK  status: ('A' for Active; 'I' for Inactive)
REMARK    1  A    between atoms: C_11  and  C_3 
ROOT
ATOM      1  C   UNL d   1      23.568  12.663  -1.471  0.00  0.00     0.052 A 
ATOM      2  C   UNL d   1      23.898  12.424  -0.741  0.00  0.00     0.115 A 
ATOM      3  C   UNL d   1      24.100  12.489  -2.069  0.00  0.00     0.011 A 
ATOM      4  C   UNL d   1      22.787  13.025  -1.487  0.00  0.00     0.139 A 
ATOM      5  N   UNL d   1      23.452  12.543  -0.014  0.00  0.00    -0.217 NA
ATOM      6  S   UNL d   1      24.636  12.099  -0.879  0.00  0.00    -0.067 SA
ATOM      7  C   UNL d   1      24.763  12.140  -1.711  0.00  0.00     0.037 A 
ATOM      8  N   UNL d   1      22.376  13.131  -0.780  0.00  0.00    -0.213 NA
ATOM      9  C   UNL d   1      22.718  12.883  -0.021  0.00  0.00     0.200 A 
ATOM     10  S   UNL d   1      22.428  13.277  -2.208  0.00  0.00    -0.057 SA
ENDROOT
BRANCH   3  11
ATOM     11  C   UNL d   1      24.318  12.479  -2.835  0.00  0.00     0.001 A 
ATOM     12  C   UNL d   1      24.525  11.780  -3.221  0.00  0.00     0.000 A 
ATOM     13  C   UNL d   1      24.751  11.782  -4.021  0.00  0.00     0.000 A 
ATOM     14  C   UNL d   1      24.768  12.499  -4.430  0.00  0.00     0.000 A 
ATOM     15  C   UNL d   1      24.562  13.197  -4.043  0.00  0.00     0.000 A 
ATOM     16  C   UNL d   1      24.338  13.181  -3.247  0.00  0.00     0.000 A 
ENDBRANCH   3  11
TORSDOF 1
ENDMDL
