MODEL 1
REMARK VINA RESULT:     -11.6      0.000      0.000
REMARK  3 active torsions:
REMARK  status: ('A' for Active; 'I' for Inactive)
REMARK    1  A    between atoms: C_6  and  N_3 
REMARK    2  A    between atoms: C_5  and  C_4 
REMARK    3  A    between atoms: O_18  and  C_14 
ROOT
ATOM      1  C   UNL d   1      53.642  31.325  53.378  0.00  0.00     0.366 A 
ATOM      2  C   UNL d   1      52.939  31.422  52.958  0.00  0.00     0.308 A 
ATOM      3  N   UNL d   1      52.869  32.184  53.219  0.00  0.00    -0.272 N 
ATOM      4  C   UNL d   1      53.587  32.100  53.655  0.00  0.00     0.115 A 
ATOM      5  O   UNL d   1      52.477  30.949  52.466  0.00  0.00    -0.265 OA
ATOM      6  F   UNL d   1      53.572  30.579  53.031  0.00  0.00    -0.188 F 
ATOM      7  F   UNL d   1      54.287  30.876  53.619  0.00  0.00    -0.188 F 
ENDROOT
BRANCH   3   8
ATOM      8  C   UNL d   1      52.320  32.814  53.115  0.00  0.00     0.067 A 
ATOM      9  C   UNL d   1      51.670  32.867  53.604  0.00  0.00     0.020 A 
ATOM     10  C   UNL d   1      51.123  33.479  53.514  0.00  0.00     0.026 A 
ATOM     11  C   UNL d   1      51.251  34.034  52.917  0.00  0.00     0.094 A 
ATOM     12  C   UNL d   1      51.901  33.993  52.417  0.00  0.00     0.026 A 
ATOM     13  C   UNL d   1      52.448  33.381  52.508  0.00  0.00     0.020 A 
BRANCH  11  14
ATOM     14  O   UNL d   1      50.703  34.661  52.815  0.00  0.00    -0.328 OA
ATOM     15  C   UNL d   1      49.936  34.503  52.529  0.00  0.00     0.181 C 
ENDBRANCH  11  14
ENDBRANCH   3   8
BRANCH   4  16
ATOM     16  C   UNL d   1      54.037  32.595  54.149  0.00  0.00     0.045 A 
ATOM     17  C   UNL d   1      54.679  32.994  53.838  0.00  0.00     0.141 A 
ATOM     18  F   UNL d   1      54.890  32.910  53.029  0.00  0.00    -0.204 F 
ATOM     19  C   UNL d   1      55.128  33.494  54.350  0.00  0.00     0.030 A 
ATOM     20  C   UNL d   1      54.903  33.560  55.134  0.00  0.00     0.002 A 
ATOM     21  C   UNL d   1      54.264  33.164  55.448  0.00  0.00     0.000 A 
ATOM     22  C   UNL d   1      53.812  32.666  54.952  0.00  0.00     0.004 A 
ENDBRANCH   4  16
TORSDOF 3
ENDMDL
MODEL 2
REMARK VINA RESULT:     -10.3      1.361      2.213
REMARK  3 active torsions:
REMARK  status: ('A' for Active; 'I' for Inactive)
REMARK    1  A    between atoms: C_6  and  N_3 
REMARK    2  A    between atoms: C_5  and  C_4 
REMARK    3  A    between atoms: O_18  and  C_14 
ROOT
ATOM      1  C   UNL d   1      54.152  33.392  54.992  0.00  0.00     0.366 A 
ATOM      2  C   UNL d   1      53.673  34.054  54.879  0.00  0.00     0.308 A 
ATOM      3  N   UNL d   1      53.270  33.680  54.285  0.00  0.00    -0.272 N 
ATOM      4  C   UNL d   1      53.753  32.995  54.389  0.00  0.00     0.115 A 
ATOM      5  O   UNL d   1      53.612  34.801  55.220  0.00  0.00    -0.265 OA
ATOM      6  F   UNL d   1      54.461  33.899  55.566  0.00  0.00    -0.188 F 
ATOM      7  F   UNL d   1      54.762  32.994  55.374  0.00  0.00    -0.188 F 
ENDROOT
BRANCH   3   8
ATOM      8  C   UNL d   1      52.634  33.873  53.767  0.00  0.00     0.067 A 
ATOM      9  C   UNL d   1      51.880  33.620  53.945  0.00  0.00     0.020 A 
ATOM     10  C   UNL d   1      51.246  33.802  53.448  0.00  0.00     0.026 A 
ATOM     11  C   UNL d   1      51.396  34.245  52.769  0.00  0.00     0.094 A 
ATOM     12  C   UNL d   1      52.150  34.506  52.577  0.00  0.00     0.026 A 
ATOM     13  C   UNL d   1      52.784  34.324  53.074  0.00  0.00     0.020 A 
BRANCH  11  14
ATOM     14  O   UNL d   1      50.761  34.436  52.255  0.00  0.00    -0.328 OA
ATOM     15  C   UNL d   1      49.976  34.422  52.537  0.00  0.00     0.181 C 
ENDBRANCH  11  14
ENDBRANCH   3   8
BRANCH   4  16
ATOM     16  C   UNL d   1      53.796  32.247  54.029  0.00  0.00     0.045 A 
ATOM     17  C   UNL d   1      54.329  32.125  53.421  0.00  0.00     0.141 A 
ATOM     18  F   UNL d   1      54.830  32.744  53.156  0.00  0.00    -0.204 F 
ATOM     19  C   UNL d   1      54.363  31.360  53.064  0.00  0.00     0.030 A 
ATOM     20  C   UNL d   1      53.864  30.773  53.340  0.00  0.00     0.002 A 
ATOM     21  C   UNL d   1      53.332  30.890  53.946  0.00  0.00     0.000 A 
ATOM     22  C   UNL d   1      53.288  31.642  54.307  0.00  0.00     0.004 A 
ENDBRANCH   4  16
TORSDOF 3
ENDMDL
MODEL 3
REMARK VINA RESULT:     -10.1      2.056      3.795
REMARK  3 active torsions:
REMARK  status: ('A' for Active; 'I' for Inactive)
REMARK    1  A    between atoms: C_6  and  N_3 
REMARK    2  A    between atoms: C_5  and  C_4 
REMARK    3  A    between atoms: O_18  and  C_14 
ROOT
ATOM      1  C   UNL d   1      52.970  34.967  54.310  0.00  0.00     0.366 A 
ATOM      2  C   UNL d   1      53.582  34.473  54.560  0.00  0.00     0.308 A 
ATOM      3  N   UNL d   1      53.284  33.859  54.126  0.00  0.00    -0.272 N 
ATOM      4  C   UNL d   1      52.652  34.352  53.861  0.00  0.00     0.115 A 
ATOM      5  O   UNL d   1      54.238  34.553  55.051  0.00  0.00    -0.265 OA
ATOM      6  F   UNL d   1      53.390  35.486  54.795  0.00  0.00    -0.188 F 
ATOM      7  F   UNL d   1      52.580  35.690  54.299  0.00  0.00    -0.188 F 
ENDROOT
BRANCH   3   8
ATOM      8  C   UNL d   1      53.498  33.056  53.984  0.00  0.00     0.067 A 
ATOM      9  C   UNL d   1      53.212  32.471  54.474  0.00  0.00     0.020 A 
ATOM     10  C   UNL d   1      53.413  31.680  54.347  0.00  0.00     0.026 A 
ATOM     11  C   UNL d   1      53.909  31.499  53.713  0.00  0.00     0.094 A 
ATOM     12  C   UNL d   1      54.205  32.077  53.212  0.00  0.00     0.026 A 
ATOM     13  C   UNL d   1      54.004  32.868  53.339  0.00  0.00     0.020 A 
BRANCH  11  14
ATOM     14  O   UNL d   1      54.121  30.698  53.574  0.00  0.00    -0.328 OA
ATOM     15  C   UNL d   1      53.528  30.118  53.491  0.00  0.00     0.181 C 
ENDBRANCH  11  14
ENDBRANCH   3   8
BRANCH   4  16
ATOM     16  C   UNL d   1      51.996  34.248  53.361  0.00  0.00     0.045 A 
ATOM     17  C   UNL d   1      52.038  34.506  52.587  0.00  0.00     0.141 A 
ATOM     18  F   UNL d   1      52.734  34.871  52.291  0.00  0.00    -0.204 F 
ATOM     19  C   UNL d   1      51.365  34.395  52.089  0.00  0.00     0.030 A 
ATOM     20  C   UNL d   1      50.699  34.036  52.401  0.00  0.00     0.002 A 
ATOM     21  C   UNL d   1      50.652  33.778  53.172  0.00  0.00     0.000 A 
ATOM     22  C   UNL d   1      51.312  33.881  53.674  0.00  0.00     0.004 A 
ENDBRANCH   4  16
TORSDOF 3
ENDMDL
MODEL 4
REMARK VINA RESULT:     -10.0      1.462      3.326
REMARK  3 active torsions:
REMARK  status: ('A' for Active; 'I' for Inactive)
REMARK    1  A    between atoms: C_6  and  N_3 
REMARK    2  A    between atoms: C_5  and  C_4 
REMARK    3  A    between atoms: O_18  and  C_14 
ROOT
ATOM      1  C   UNL d   1      52.581  31.449  52.833  0.00  0.00     0.366 A 
ATOM      2  C   UNL d   1      53.255  31.282  53.280  0.00  0.00     0.308 A 
ATOM      3  N   UNL d   1      53.300  32.051  53.528  0.00  0.00    -0.272 N 
ATOM      4  C   UNL d   1      52.612  32.237  53.075  0.00  0.00     0.115 A 
ATOM      5  O   UNL d   1      53.711  30.613  53.429  0.00  0.00    -0.265 OA
ATOM      6  F   UNL d   1      52.670  30.644  52.674  0.00  0.00    -0.188 F 
ATOM      7  F   UNL d   1      51.974  31.227  52.326  0.00  0.00    -0.188 F 
ENDROOT
BRANCH   3   8
ATOM      8  C   UNL d   1      53.810  32.499  54.026  0.00  0.00     0.067 A 
ATOM      9  C   UNL d   1      54.460  32.873  53.706  0.00  0.00     0.020 A 
ATOM     10  C   UNL d   1      54.969  33.315  54.182  0.00  0.00     0.026 A 
ATOM     11  C   UNL d   1      54.803  33.370  54.988  0.00  0.00     0.094 A 
ATOM     12  C   UNL d   1      54.153  33.000  55.324  0.00  0.00     0.026 A 
ATOM     13  C   UNL d   1      53.644  32.557  54.848  0.00  0.00     0.020 A 
BRANCH  11  14
ATOM     14  O   UNL d   1      55.313  33.817  55.482  0.00  0.00    -0.328 OA
ATOM     15  C   UNL d   1      55.788  34.420  55.156  0.00  0.00     0.181 C 
ENDBRANCH  11  14
ENDBRANCH   3   8
BRANCH   4  16
ATOM     16  C   UNL d   1      52.166  32.926  52.940  0.00  0.00     0.045 A 
ATOM     17  C   UNL d   1      51.457  33.027  53.334  0.00  0.00     0.141 A 
ATOM     18  F   UNL d   1      51.175  32.447  53.872  0.00  0.00    -0.204 F 
ATOM     19  C   UNL d   1      51.013  33.731  53.188  0.00  0.00     0.030 A 
ATOM     20  C   UNL d   1      51.309  34.282  52.660  0.00  0.00     0.002 A 
ATOM     21  C   UNL d   1      52.015  34.185  52.265  0.00  0.00     0.000 A 
ATOM     22  C   UNL d   1      52.463  33.493  52.401  0.00  0.00     0.004 A 
ENDBRANCH   4  16
TORSDOF 3
ENDMDL
MODEL 5
REMARK VINA RESULT:      -9.6      1.647      2.925
REMARK  3 active torsions:
REMARK  status: ('A' for Active; 'I' for Inactive)
REMARK    1  A    between atoms: C_6  and  N_3 
REMARK    2  A    between atoms: C_5  and  C_4 
REMARK    3  A    between atoms: O_18  and  C_14 
ROOT
ATOM      1  C   UNL d   1      52.737  34.071  53.000  0.00  0.00     0.366 A 
ATOM      2  C   UNL d   1      52.317  33.469  52.624  0.00  0.00     0.308 A 
ATOM      3  N   UNL d   1      52.709  32.906  53.052  0.00  0.00    -0.272 N 
ATOM      4  C   UNL d   1      53.147  33.510  53.446  0.00  0.00     0.115 A 
ATOM      5  O   UNL d   1      51.732  33.433  52.046  0.00  0.00    -0.265 OA
ATOM      6  F   UNL d   1      52.259  34.517  52.496  0.00  0.00    -0.188 F 
ATOM      7  F   UNL d   1      52.915  34.864  53.124  0.00  0.00    -0.188 F 
ENDROOT
BRANCH   3   8
ATOM      8  C   UNL d   1      52.701  32.065  53.100  0.00  0.00     0.067 A 
ATOM      9  C   UNL d   1      52.106  31.692  53.514  0.00  0.00     0.020 A 
ATOM     10  C   UNL d   1      52.084  30.868  53.571  0.00  0.00     0.026 A 
ATOM     11  C   UNL d   1      52.679  30.434  53.199  0.00  0.00     0.094 A 
ATOM     12  C   UNL d   1      53.284  30.796  52.779  0.00  0.00     0.026 A 
ATOM     13  C   UNL d   1      53.305  31.620  52.723  0.00  0.00     0.020 A 
BRANCH  11  14
ATOM     14  O   UNL d   1      52.668  29.596  53.249  0.00  0.00    -0.328 OA
ATOM     15  C   UNL d   1      53.020  29.212  53.900  0.00  0.00     0.181 C 
ENDBRANCH  11  14
ENDBRANCH   3   8
BRANCH   4  16
ATOM     16  C   UNL d   1      53.738  33.522  54.031  0.00  0.00     0.045 A 
ATOM     17  C   UNL d   1      53.528  33.665  54.808  0.00  0.00     0.141 A 
ATOM     18  F   UNL d   1      52.727  33.799  55.022  0.00  0.00    -0.204 F 
ATOM     19  C   UNL d   1      54.138  33.674  55.394  0.00  0.00     0.030 A 
ATOM     20  C   UNL d   1      54.910  33.541  55.160  0.00  0.00     0.002 A 
ATOM     21  C   UNL d   1      55.124  33.398  54.387  0.00  0.00     0.000 A 
ATOM     22  C   UNL d   1      54.531  33.386  53.799  0.00  0.00     0.004 A 
ENDBRANCH   4  16
TORSDOF 3
ENDMDL
