MODEL 1
REMARK VINA RESULT:      -3.9      0.000      0.000
REMARK  4 active torsions:
REMARK  status: ('A' for Active; 'I' for Inactive)
REMARK    1  A    between atoms: N_2  and  S_1 
REMARK    2  A    between atoms: C_3  and  S_1 
REMARK       I    between atoms: C_5  and  N_4 
REMARK    3  A    between atoms: O_17  and  C_5 
REMARK    4  A    between atoms: C_18  and  O_17 
ROOT
ATOM      1  N   UNL d   1      56.533   0.076  32.383  0.00  0.00    -0.226 N 
ATOM      2  N   UNL d   1      57.466  -0.269  31.043  0.00  0.00    -0.248 N 
ATOM      3  C   UNL d   1      57.931  -0.425  30.380  0.00  0.00     0.378 C 
ATOM      4  C   UNL d   1      56.921   0.682  31.970  0.00  0.00     0.111 A 
ATOM      5  C   UNL d   1      56.618  -0.710  32.117  0.00  0.00     0.111 A 
ATOM      6  C   UNL d   1      57.079  -0.880  31.454  0.00  0.00     0.105 A 
ATOM      7  C   UNL d   1      57.382   0.512  31.307  0.00  0.00     0.105 A 
ATOM      8  O   UNL d   1      58.309   0.190  29.981  0.00  0.00    -0.237 OA
ENDROOT
BRANCH   1   9
ATOM      9  S   UNL d   1      56.071   0.246  33.046  0.00  0.00     0.277 S 
ATOM     10  O   UNL d   1      55.507   0.604  32.561  0.00  0.00    -0.199 OA
ATOM     11  O   UNL d   1      56.645  -0.118  33.539  0.00  0.00    -0.199 OA
BRANCH   9  12
ATOM     12  C   UNL d   1      55.611   0.417  33.695  0.00  0.00     0.133 A 
ATOM     13  S   UNL d   1      55.893   0.515  34.426  0.00  0.00    -0.074 SA
ATOM     14  C   UNL d   1      55.252   0.682  34.932  0.00  0.00     0.036 A 
ATOM     15  C   UNL d   1      54.557   0.681  34.468  0.00  0.00     0.008 A 
ATOM     16  C   UNL d   1      54.771   0.519  33.712  0.00  0.00     0.020 A 
ENDBRANCH   9  12
ENDBRANCH   1   9
BRANCH   3  17
ATOM     17  O   UNL d   1      58.007  -1.199  30.127  0.00  0.00    -0.257 OA
BRANCH  17  18
ATOM     18  C   UNL d   1      58.465  -1.368  29.462  0.00  0.00     0.128 C 
ATOM     19  C   UNL d   1      58.530  -2.131  29.181  0.00  0.00     0.029 C 
ENDBRANCH  17  18
ENDBRANCH   3  17
TORSDOF 4
ENDMDL
MODEL 2
REMARK VINA RESULT:      -2.8      1.619      4.415
REMARK  4 active torsions:
REMARK  status: ('A' for Active; 'I' for Inactive)
REMARK    1  A    between atoms: N_2  and  S_1 
REMARK    2  A    between atoms: C_3  and  S_1 
REMARK       I    between atoms: C_5  and  N_4 
REMARK    3  A    between atoms: O_17  and  C_5 
REMARK    4  A    between atoms: C_18  and  O_17 
ROOT
ATOM      1  N   UNL d   1      57.055   0.444  32.055  0.00  0.00    -0.226 N 
ATOM      2  N   UNL d   1      56.052   0.424  33.389  0.00  0.00    -0.248 N 
ATOM      3  C   UNL d   1      55.544   0.409  34.039  0.00  0.00     0.378 C 
ATOM      4  C   UNL d   1      56.265   0.197  31.988  0.00  0.00     0.111 A 
ATOM      5  C   UNL d   1      57.338   0.682  32.802  0.00  0.00     0.111 A 
ATOM      6  C   UNL d   1      56.842   0.672  33.462  0.00  0.00     0.105 A 
ATOM      7  C   UNL d   1      55.769   0.187  32.647  0.00  0.00     0.105 A 
ATOM      8  O   UNL d   1      54.762   0.161  33.954  0.00  0.00    -0.237 OA
ENDROOT
BRANCH   1   9
ATOM      9  S   UNL d   1      57.551   0.453  31.396  0.00  0.00     0.277 S 
ATOM     10  O   UNL d   1      56.893   0.509  30.902  0.00  0.00    -0.199 OA
ATOM     11  O   UNL d   1      58.221   0.396  31.899  0.00  0.00    -0.199 OA
BRANCH   9  12
ATOM     12  C   UNL d   1      58.035   0.463  30.741  0.00  0.00     0.133 A 
ATOM     13  S   UNL d   1      58.820   0.548  30.770  0.00  0.00    -0.074 SA
ATOM     14  C   UNL d   1      59.112   0.530  29.990  0.00  0.00     0.036 A 
ATOM     15  C   UNL d   1      58.459   0.429  29.478  0.00  0.00     0.008 A 
ATOM     16  C   UNL d   1      57.799   0.388  29.932  0.00  0.00     0.020 A 
ENDBRANCH   9  12
ENDBRANCH   1   9
BRANCH   3  17
ATOM     17  O   UNL d   1      55.833   0.645  34.767  0.00  0.00    -0.257 OA
BRANCH  17  18
ATOM     18  C   UNL d   1      55.325   0.681  35.416  0.00  0.00     0.128 C 
ATOM     19  C   UNL d   1      55.615   0.670  36.178  0.00  0.00     0.029 C 
ENDBRANCH  17  18
ENDBRANCH   3  17
TORSDOF 4
ENDMDL
