MODEL 1
REMARK VINA RESULT:      41.5      0.000      0.000
REMARK  4 active torsions:
REMARK  status: ('A' for Active; 'I' for Inactive)
REMARK    1  A    between atoms: C_6  and  C_1 
REMARK    2  A    between atoms: C_7  and  C_4 
REMARK       I    between atoms: N_9  and  C_6 
REMARK    3  A    between atoms: C_23  and  N_9 
REMARK    4  A    between atoms: C_11  and  C_23 
ROOT
ATOM      1  C   UNL d   1      14.769  13.469  -1.197  0.00  0.00     0.168 A 
ATOM      2  N   UNL d   1      15.265  13.357  -0.560  0.00  0.00    -0.121 NA
ATOM      3  C   UNL d   1      14.728  14.286  -1.345  0.00  0.00     0.053 A 
ATOM      4  C   UNL d   1      15.202  14.661  -0.794  0.00  0.00     0.127 A 
ATOM      5  O   UNL d   1      15.532  14.083  -0.311  0.00  0.00    -0.211 OA
ENDROOT
BRANCH   1   6
ATOM      6  C   UNL d   1      13.974  12.359  -2.064  0.00  0.00     0.299 C 
ATOM      7  N   UNL d   1      14.063  12.363  -2.917  0.00  0.00    -0.203 NA
ATOM      8  O   UNL d   1      13.490  11.791  -1.725  0.00  0.00    -0.263 OA
BRANCH   7   9
ATOM      9  C   UNL d   1      13.648  11.780  -3.397  0.00  0.00     0.127 C 
BRANCH   9  10
ATOM     10  C   UNL d   1      13.530  11.913  -4.240  0.00  0.00     0.119 A 
ATOM     11  O   UNL d   1      14.126  12.150  -4.805  0.00  0.00    -0.304 OA
ATOM     12  C   UNL d   1      13.755  12.212  -5.568  0.00  0.00     0.123 A 
ATOM     13  C   UNL d   1      12.911  12.010  -5.479  0.00  0.00     0.029 A 
ATOM     14  C   UNL d   1      12.777  11.823  -4.645  0.00  0.00     0.028 A 
ENDBRANCH   9  10
ENDBRANCH   7   9
ENDBRANCH   1   6
BRANCH   4  15
ATOM     15  C   UNL d   1      15.343  15.450  -0.711  0.00  0.00     0.027 A 
ATOM     16  C   UNL d   1      14.862  15.997  -1.087  0.00  0.00     0.028 A 
ATOM     17  C   UNL d   1      15.009  16.787  -0.998  0.00  0.00     0.119 A 
ATOM     18  O   UNL d   1      14.631  17.444  -1.300  0.00  0.00    -0.300 OA
ATOM     19  C   UNL d   1      15.627  17.056  -0.543  0.00  0.00     0.119 A 
ATOM     20  C   UNL d   1      15.014  18.107  -1.032  0.00  0.00     0.304 A 
ATOM     21  O   UNL d   1      15.632  17.869  -0.562  0.00  0.00    -0.300 OA
ATOM     22  C   UNL d   1      16.116  16.512  -0.162  0.00  0.00     0.026 A 
ATOM     23  C   UNL d   1      15.972  15.726  -0.247  0.00  0.00     0.004 A 
ENDBRANCH   4  15
TORSDOF 4
ENDMDL
MODEL 2
REMARK VINA RESULT:      43.6      3.117      4.740
REMARK  4 active torsions:
REMARK  status: ('A' for Active; 'I' for Inactive)
REMARK    1  A    between atoms: C_6  and  C_1 
REMARK    2  A    between atoms: C_7  and  C_4 
REMARK       I    between atoms: N_9  and  C_6 
REMARK    3  A    between atoms: C_23  and  N_9 
REMARK    4  A    between atoms: C_11  and  C_23 
ROOT
ATOM      1  C   UNL d   1      13.519  12.809  -4.380  0.00  0.00     0.168 A 
ATOM      2  N   UNL d   1      13.125  12.097  -4.394  0.00  0.00    -0.121 NA
ATOM      3  C   UNL d   1      13.785  12.937  -3.603  0.00  0.00     0.053 A 
ATOM      4  C   UNL d   1      13.548  12.296  -3.152  0.00  0.00     0.127 A 
ATOM      5  O   UNL d   1      13.140  11.779  -3.646  0.00  0.00    -0.211 OA
ENDROOT
BRANCH   1   6
ATOM      6  C   UNL d   1      13.777  13.843  -5.597  0.00  0.00     0.299 C 
ATOM      7  N   UNL d   1      13.755  14.684  -5.433  0.00  0.00    -0.203 NA
ATOM      8  O   UNL d   1      13.928  13.599  -6.365  0.00  0.00    -0.263 OA
BRANCH   7   9
ATOM      9  C   UNL d   1      13.890  15.251  -6.068  0.00  0.00     0.127 C 
BRANCH   9  10
ATOM     10  C   UNL d   1      14.028  16.083  -5.889  0.00  0.00     0.119 A 
ATOM     11  O   UNL d   1      14.573  16.394  -5.309  0.00  0.00    -0.304 OA
ATOM     12  C   UNL d   1      14.520  17.243  -5.326  0.00  0.00     0.123 A 
ATOM     13  C   UNL d   1      13.931  17.467  -5.929  0.00  0.00     0.029 A 
ATOM     14  C   UNL d   1      13.627  16.736  -6.277  0.00  0.00     0.028 A 
ENDBRANCH   9  10
ENDBRANCH   7   9
ENDBRANCH   1   6
BRANCH   4  15
ATOM     15  C   UNL d   1      13.674  12.163  -2.368  0.00  0.00     0.027 A 
ATOM     16  C   UNL d   1      14.419  12.273  -2.045  0.00  0.00     0.028 A 
ATOM     17  C   UNL d   1      14.538  12.138  -1.257  0.00  0.00     0.119 A 
ATOM     18  O   UNL d   1      15.205  12.200  -0.793  0.00  0.00    -0.300 OA
ATOM     19  C   UNL d   1      13.933  11.893  -0.772  0.00  0.00     0.119 A 
ATOM     20  C   UNL d   1      15.011  11.996  -0.032  0.00  0.00     0.304 A 
ATOM     21  O   UNL d   1      14.221  11.805  -0.016  0.00  0.00    -0.300 OA
ATOM     22  C   UNL d   1      13.180  11.780  -1.089  0.00  0.00     0.026 A 
ATOM     23  C   UNL d   1      13.058  11.914  -1.872  0.00  0.00     0.004 A 
ENDBRANCH   4  15
TORSDOF 4
ENDMDL
