MODEL 1
REMARK VINA RESULT:      67.4      0.000      0.000
REMARK  8 active torsions:
REMARK  status: ('A' for Active; 'I' for Inactive)
REMARK    1  A    between atoms: C_8  and  N_1 
REMARK    2  A    between atoms: C_7  and  N_3 
REMARK    3  A    between atoms: C_11  and  C_7 
REMARK    4  A    between atoms: C_20  and  C_8 
REMARK    5  A    between atoms: C_9  and  C_13 
REMARK       I    between atoms: N_16  and  C_9 
REMARK    6  A    between atoms: C_24  and  N_16 
REMARK    7  A    between atoms: C_27  and  C_24 
REMARK    8  A    between atoms: C_25  and  C_27 
ROOT
ATOM      1  N   UNL d   1      44.990 -12.555  42.981  0.00  0.00    -0.226 N 
ATOM      2  C   UNL d   1      45.395 -12.999  43.546  0.00  0.00     0.342 A 
ATOM      3  N   UNL d   1      44.976 -13.436  44.104  0.00  0.00    -0.259 N 
ATOM      4  C   UNL d   1      44.162 -12.543  42.969  0.00  0.00     0.270 A 
ATOM      5  C   UNL d   1      43.749 -12.985  43.533  0.00  0.00     0.073 A 
ATOM      6  C   UNL d   1      44.154 -13.430  44.097  0.00  0.00     0.073 A 
ATOM      7  O   UNL d   1      46.232 -13.004  43.551  0.00  0.00    -0.245 OA
ATOM      8  O   UNL d   1      43.761 -12.103  42.409  0.00  0.00    -0.266 OA
ATOM      9  C   UNL d   1      42.921 -12.974  43.520  0.00  0.00     0.006 A 
ATOM     10  C   UNL d   1      43.735 -13.867  44.655  0.00  0.00     0.018 A 
ATOM     11  C   UNL d   1      42.503 -13.418  44.086  0.00  0.00     0.000 A 
ATOM     12  C   UNL d   1      42.908 -13.862  44.651  0.00  0.00     0.002 A 
ENDROOT
BRANCH   1  13
ATOM     13  C   UNL d   1      45.415 -12.109  42.412  0.00  0.00     0.087 C 
BRANCH  13  14
ATOM     14  C   UNL d   1      45.310 -12.254  41.615  0.00  0.00     0.018 A 
ATOM     15  C   UNL d   1      45.964 -12.358  41.126  0.00  0.00     0.002 A 
ATOM     16  C   UNL d   1      45.857 -12.506  40.313  0.00  0.00     0.005 A 
ATOM     17  C   UNL d   1      45.097 -12.549  39.998  0.00  0.00     0.058 A 
ATOM     18  C   UNL d   1      44.436 -12.445  40.489  0.00  0.00     0.005 A 
ATOM     19  C   UNL d   1      44.543 -12.297  41.302  0.00  0.00     0.002 A 
BRANCH  17  20
ATOM     20  C   UNL d   1      44.991 -12.696  39.193  0.00  0.00     0.279 C 
ATOM     21  O   UNL d   1      45.055 -12.080  38.650  0.00  0.00    -0.265 OA
ATOM     22  N   UNL d   1      44.822 -13.458  38.932  0.00  0.00    -0.206 NA
BRANCH  22  23
ATOM     23  C   UNL d   1      44.716 -13.604  38.127  0.00  0.00     0.102 C 
BRANCH  23  24
ATOM     24  C   UNL d   1      45.210 -14.135  37.735  0.00  0.00     0.021 C 
BRANCH  24  25
ATOM     25  C   UNL d   1      44.892 -14.809  37.372  0.00  0.00     0.002 A 
ATOM     26  C   UNL d   1      45.274 -15.142  36.716  0.00  0.00     0.000 A 
ATOM     27  C   UNL d   1      44.954 -15.821  36.351  0.00  0.00     0.000 A 
ATOM     28  C   UNL d   1      44.256 -16.157  36.647  0.00  0.00     0.000 A 
ATOM     29  C   UNL d   1      43.879 -15.824  37.299  0.00  0.00     0.000 A 
ATOM     30  C   UNL d   1      44.199 -15.146  37.664  0.00  0.00     0.000 A 
ENDBRANCH  24  25
ENDBRANCH  23  24
ENDBRANCH  22  23
ENDBRANCH  17  20
ENDBRANCH  13  14
ENDBRANCH   1  13
BRANCH   3  31
ATOM     31  C   UNL d   1      45.382 -13.881  44.669  0.00  0.00     0.084 C 
BRANCH  31  32
ATOM     32  C   UNL d   1      45.337 -14.703  44.657  0.00  0.00     0.018 A 
ATOM     33  C   UNL d   1      45.963 -15.149  44.346  0.00  0.00     0.001 A 
ATOM     34  C   UNL d   1      46.646 -14.767  44.041  0.00  0.00     0.000 C 
ATOM     35  C   UNL d   1      45.918 -15.971  44.334  0.00  0.00     0.000 A 
ATOM     36  C   UNL d   1      45.250 -16.350  44.632  0.00  0.00     0.000 A 
ATOM     37  C   UNL d   1      44.624 -15.904  44.943  0.00  0.00     0.000 A 
ATOM     38  C   UNL d   1      44.669 -15.081  44.955  0.00  0.00     0.002 A 
ENDBRANCH  31  32
ENDBRANCH   3  31
TORSDOF 8
ENDMDL
MODEL 2
REMARK VINA RESULT:      68.3      3.965      7.239
REMARK  8 active torsions:
REMARK  status: ('A' for Active; 'I' for Inactive)
REMARK    1  A    between atoms: C_8  and  N_1 
REMARK    2  A    between atoms: C_7  and  N_3 
REMARK    3  A    between atoms: C_11  and  C_7 
REMARK    4  A    between atoms: C_20  and  C_8 
REMARK    5  A    between atoms: C_9  and  C_13 
REMARK       I    between atoms: N_16  and  C_9 
REMARK    6  A    between atoms: C_24  and  N_16 
REMARK    7  A    between atoms: C_27  and  C_24 
REMARK    8  A    between atoms: C_25  and  C_27 
ROOT
ATOM      1  N   UNL d   1      45.342 -16.543  37.533  0.00  0.00    -0.226 N 
ATOM      2  C   UNL d   1      44.659 -16.259  37.167  0.00  0.00     0.342 A 
ATOM      3  N   UNL d   1      44.597 -15.462  36.973  0.00  0.00    -0.259 N 
ATOM      4  C   UNL d   1      45.969 -16.031  37.707  0.00  0.00     0.270 A 
ATOM      5  C   UNL d   1      45.899 -15.231  37.509  0.00  0.00     0.073 A 
ATOM      6  C   UNL d   1      45.216 -14.948  37.144  0.00  0.00     0.073 A 
ATOM      7  O   UNL d   1      44.031 -16.783  36.994  0.00  0.00    -0.245 OA
ATOM      8  O   UNL d   1      46.646 -16.312  38.069  0.00  0.00    -0.266 OA
ATOM      9  C   UNL d   1      46.526 -14.720  37.684  0.00  0.00     0.006 A 
ATOM     10  C   UNL d   1      45.153 -14.150  36.949  0.00  0.00     0.018 A 
ATOM     11  C   UNL d   1      46.458 -13.915  37.486  0.00  0.00     0.000 A 
ATOM     12  C   UNL d   1      45.774 -13.632  37.120  0.00  0.00     0.002 A 
ENDROOT
BRANCH   1  13
ATOM     13  C   UNL d   1      45.408 -17.355  37.731  0.00  0.00     0.087 C 
BRANCH  13  14
ATOM     14  C   UNL d   1      45.323 -17.595  38.507  0.00  0.00     0.018 A 
ATOM     15  C   UNL d   1      44.852 -18.246  38.688  0.00  0.00     0.002 A 
ATOM     16  C   UNL d   1      44.765 -18.491  39.479  0.00  0.00     0.005 A 
ATOM     17  C   UNL d   1      45.151 -18.084  40.082  0.00  0.00     0.058 A 
ATOM     18  C   UNL d   1      45.627 -17.428  39.903  0.00  0.00     0.005 A 
ATOM     19  C   UNL d   1      45.713 -17.182  39.112  0.00  0.00     0.002 A 
BRANCH  17  20
ATOM     20  C   UNL d   1      45.066 -18.327  40.866  0.00  0.00     0.279 C 
ATOM     21  O   UNL d   1      44.365 -18.174  41.271  0.00  0.00    -0.265 OA
ATOM     22  N   UNL d   1      45.680 -18.722  41.244  0.00  0.00    -0.206 NA
BRANCH  22  23
ATOM     23  C   UNL d   1      45.595 -18.965  42.028  0.00  0.00     0.102 C 
BRANCH  23  24
ATOM     24  C   UNL d   1      46.259 -19.158  42.475  0.00  0.00     0.021 C 
BRANCH  24  25
ATOM     25  C   UNL d   1      46.342 -18.862  43.245  0.00  0.00     0.002 A 
ATOM     26  C   UNL d   1      46.561 -19.372  43.862  0.00  0.00     0.000 A 
ATOM     27  C   UNL d   1      46.644 -19.074  44.636  0.00  0.00     0.000 A 
ATOM     28  C   UNL d   1      46.507 -18.269  44.785  0.00  0.00     0.000 A 
ATOM     29  C   UNL d   1      46.290 -17.766  44.171  0.00  0.00     0.000 A 
ATOM     30  C   UNL d   1      46.207 -18.064  43.396  0.00  0.00     0.000 A 
ENDBRANCH  24  25
ENDBRANCH  23  24
ENDBRANCH  22  23
ENDBRANCH  17  20
ENDBRANCH  13  14
ENDBRANCH   1  13
BRANCH   3  31
ATOM     31  C   UNL d   1      43.913 -15.178  36.607  0.00  0.00     0.084 C 
BRANCH  31  32
ATOM     32  C   UNL d   1      43.233 -15.042  37.052  0.00  0.00     0.018 A 
ATOM     33  C   UNL d   1      42.552 -15.496  36.919  0.00  0.00     0.001 A 
ATOM     34  C   UNL d   1      42.550 -16.097  36.332  0.00  0.00     0.000 C 
ATOM     35  C   UNL d   1      41.873 -15.360  37.363  0.00  0.00     0.000 A 
ATOM     36  C   UNL d   1      41.871 -14.771  37.940  0.00  0.00     0.000 A 
ATOM     37  C   UNL d   1      42.552 -14.318  38.073  0.00  0.00     0.000 A 
ATOM     38  C   UNL d   1      43.232 -14.454  37.628  0.00  0.00     0.002 A 
ENDBRANCH  31  32
ENDBRANCH   3  31
TORSDOF 8
ENDMDL
