MODEL 1
REMARK VINA RESULT:      -8.0      0.000      0.000
REMARK  3 active torsions:
REMARK  status: ('A' for Active; 'I' for Inactive)
REMARK    1  A    between atoms: C_4  and  C_1 
REMARK       I    between atoms: C_5  and  N_6 
REMARK    2  A    between atoms: C_8  and  C_5 
REMARK    3  A    between atoms: N_6  and  C_7 
ROOT
ATOM      1  C   UNL d   1     -47.959  14.239  22.685  0.00  0.00     0.042 A 
ATOM      2  C   UNL d   1     -47.251  13.843  22.842  0.00  0.00     0.087 A 
ATOM      3  C   UNL d   1     -47.940  15.038  22.480  0.00  0.00     0.004 A 
ATOM      4  C   UNL d   1     -46.529  14.239  22.796  0.00  0.00     0.019 A 
ATOM      5  C   UNL d   1     -47.227  15.442  22.431  0.00  0.00     0.000 A 
ATOM      6  C   UNL d   1     -46.515  15.038  22.591  0.00  0.00     0.002 A 
ENDROOT
BRANCH   1   7
ATOM      7  C   UNL d   1     -48.680  13.839  22.731  0.00  0.00     0.112 A 
ATOM      8  N   UNL d   1     -49.122  13.600  23.376  0.00  0.00    -0.238 NA
ATOM      9  C   UNL d   1     -49.796  13.223  23.091  0.00  0.00     0.088 A 
ATOM     10  C   UNL d   1     -50.433  12.873  23.471  0.00  0.00     0.020 A 
ATOM     11  C   UNL d   1     -49.763  13.233  22.273  0.00  0.00     0.049 A 
ATOM     12  C   UNL d   1     -51.041  12.531  23.029  0.00  0.00     0.002 A 
ATOM     13  C   UNL d   1     -51.008  12.541  22.210  0.00  0.00     0.001 A 
ATOM     14  C   UNL d   1     -50.371  12.891  21.831  0.00  0.00     0.008 A 
ATOM     15  S   UNL d   1     -49.065  13.618  22.052  0.00  0.00    -0.066 SA
ENDBRANCH   1   7
BRANCH   2  16
ATOM     16  N   UNL d   1     -47.269  13.044  23.047  0.00  0.00    -0.206 NA
ATOM     17  C   UNL d   1     -46.556  12.632  23.175  0.00  0.00     0.302 C 
ATOM     18  O   UNL d   1     -45.836  13.024  23.097  0.00  0.00    -0.263 OA
BRANCH  17  19
ATOM     19  C   UNL d   1     -46.570  11.832  23.380  0.00  0.00     0.158 A 
ATOM     20  O   UNL d   1     -47.194  11.303  23.507  0.00  0.00    -0.300 OA
ATOM     21  C   UNL d   1     -46.869  10.579  23.698  0.00  0.00     0.123 A 
ATOM     22  C   UNL d   1     -46.047  10.642  23.693  0.00  0.00     0.029 A 
ATOM     23  C   UNL d   1     -45.864  11.422  23.495  0.00  0.00     0.032 A 
ENDBRANCH  17  19
ENDBRANCH   2  16
TORSDOF 3
ENDMDL
MODEL 2
REMARK VINA RESULT:      -7.9      1.456      2.768
REMARK  3 active torsions:
REMARK  status: ('A' for Active; 'I' for Inactive)
REMARK    1  A    between atoms: C_4  and  C_1 
REMARK       I    between atoms: C_5  and  N_6 
REMARK    2  A    between atoms: C_8  and  C_5 
REMARK    3  A    between atoms: N_6  and  C_7 
ROOT
ATOM      1  C   UNL d   1     -49.214  12.415  23.316  0.00  0.00     0.042 A 
ATOM      2  C   UNL d   1     -48.404  12.254  23.319  0.00  0.00     0.087 A 
ATOM      3  C   UNL d   1     -49.747  11.815  23.506  0.00  0.00     0.004 A 
ATOM      4  C   UNL d   1     -48.125  11.502  23.509  0.00  0.00     0.019 A 
ATOM      5  C   UNL d   1     -49.481  11.061  23.696  0.00  0.00     0.000 A 
ATOM      6  C   UNL d   1     -48.662  10.904  23.698  0.00  0.00     0.002 A 
ENDROOT
BRANCH   1   7
ATOM      7  C   UNL d   1     -49.489  13.169  23.125  0.00  0.00     0.112 A 
ATOM      8  N   UNL d   1     -49.489  13.579  22.418  0.00  0.00    -0.238 NA
ATOM      9  C   UNL d   1     -49.836  14.314  22.554  0.00  0.00     0.088 A 
ATOM     10  C   UNL d   1     -49.987  14.951  22.061  0.00  0.00     0.020 A 
ATOM     11  C   UNL d   1     -50.047  14.349  23.345  0.00  0.00     0.049 A 
ATOM     12  C   UNL d   1     -50.350  15.629  22.362  0.00  0.00     0.002 A 
ATOM     13  C   UNL d   1     -50.561  15.664  23.153  0.00  0.00     0.001 A 
ATOM     14  C   UNL d   1     -50.411  15.027  23.645  0.00  0.00     0.008 A 
ATOM     15  S   UNL d   1     -49.829  13.633  23.698  0.00  0.00    -0.066 SA
ENDBRANCH   1   7
BRANCH   2  16
ATOM     16  N   UNL d   1     -47.870  12.853  23.129  0.00  0.00    -0.206 NA
ATOM     17  C   UNL d   1     -47.050  12.705  23.157  0.00  0.00     0.302 C 
ATOM     18  O   UNL d   1     -46.776  11.959  23.373  0.00  0.00    -0.263 OA
BRANCH  17  19
ATOM     19  C   UNL d   1     -46.513  13.302  22.968  0.00  0.00     0.158 A 
ATOM     20  O   UNL d   1     -46.313  14.010  23.350  0.00  0.00    -0.300 OA
ATOM     21  C   UNL d   1     -45.741  14.379  22.900  0.00  0.00     0.123 A 
ATOM     22  C   UNL d   1     -45.575  13.916  22.239  0.00  0.00     0.029 A 
ATOM     23  C   UNL d   1     -46.057  13.247  22.284  0.00  0.00     0.032 A 
ENDBRANCH  17  19
ENDBRANCH   2  16
TORSDOF 3
ENDMDL
MODEL 3
REMARK VINA RESULT:      -7.9      1.941      4.296
REMARK  3 active torsions:
REMARK  status: ('A' for Active; 'I' for Inactive)
REMARK    1  A    between atoms: C_4  and  C_1 
REMARK       I    between atoms: C_5  and  N_6 
REMARK    2  A    between atoms: C_8  and  C_5 
REMARK    3  A    between atoms: N_6  and  C_7 
ROOT
ATOM      1  C   UNL d   1     -48.618  12.205  23.353  0.00  0.00     0.042 A 
ATOM      2  C   UNL d   1     -49.343  12.599  23.394  0.00  0.00     0.087 A 
ATOM      3  C   UNL d   1     -48.591  11.391  23.484  0.00  0.00     0.004 A 
ATOM      4  C   UNL d   1     -50.036  12.187  23.564  0.00  0.00     0.019 A 
ATOM      5  C   UNL d   1     -49.276  10.971  23.655  0.00  0.00     0.000 A 
ATOM      6  C   UNL d   1     -50.005  11.373  23.695  0.00  0.00     0.002 A 
ENDROOT
BRANCH   1   7
ATOM      7  C   UNL d   1     -47.926  12.621  23.182  0.00  0.00     0.112 A 
ATOM      8  N   UNL d   1     -47.520  13.188  23.608  0.00  0.00    -0.238 NA
ATOM      9  C   UNL d   1     -46.862  13.411  23.165  0.00  0.00     0.088 A 
ATOM     10  C   UNL d   1     -46.261  13.950  23.306  0.00  0.00     0.020 A 
ATOM     11  C   UNL d   1     -46.870  12.979  22.469  0.00  0.00     0.049 A 
ATOM     12  C   UNL d   1     -45.663  14.058  22.746  0.00  0.00     0.002 A 
ATOM     13  C   UNL d   1     -45.671  13.625  22.050  0.00  0.00     0.001 A 
ATOM     14  C   UNL d   1     -46.272  13.087  21.910  0.00  0.00     0.008 A 
ATOM     15  S   UNL d   1     -47.535  12.487  22.483  0.00  0.00    -0.066 SA
ENDBRANCH   1   7
BRANCH   2  16
ATOM     16  N   UNL d   1     -49.371  13.413  23.263  0.00  0.00    -0.206 NA
ATOM     17  C   UNL d   1     -50.107  13.800  23.201  0.00  0.00     0.302 C 
ATOM     18  O   UNL d   1     -50.804  13.367  23.272  0.00  0.00    -0.263 OA
BRANCH  17  19
ATOM     19  C   UNL d   1     -50.139  14.614  23.070  0.00  0.00     0.158 A 
ATOM     20  O   UNL d   1     -50.021  15.071  22.390  0.00  0.00    -0.300 OA
ATOM     21  C   UNL d   1     -50.126  15.853  22.597  0.00  0.00     0.123 A 
ATOM     22  C   UNL d   1     -50.309  15.899  23.400  0.00  0.00     0.029 A 
ATOM     23  C   UNL d   1     -50.317  15.126  23.691  0.00  0.00     0.032 A 
ENDBRANCH  17  19
ENDBRANCH   2  16
TORSDOF 3
ENDMDL
MODEL 4
REMARK VINA RESULT:      -7.3      1.106      2.865
REMARK  3 active torsions:
REMARK  status: ('A' for Active; 'I' for Inactive)
REMARK    1  A    between atoms: C_4  and  C_1 
REMARK       I    between atoms: C_5  and  N_6 
REMARK    2  A    between atoms: C_8  and  C_5 
REMARK    3  A    between atoms: N_6  and  C_7 
ROOT
ATOM      1  C   UNL d   1     -47.583  11.481  23.309  0.00  0.00     0.042 A 
ATOM      2  C   UNL d   1     -46.997  12.063  23.311  0.00  0.00     0.087 A 
ATOM      3  C   UNL d   1     -47.384  10.705  23.503  0.00  0.00     0.004 A 
ATOM      4  C   UNL d   1     -46.218  11.875  23.504  0.00  0.00     0.019 A 
ATOM      5  C   UNL d   1     -46.611  10.506  23.697  0.00  0.00     0.000 A 
ATOM      6  C   UNL d   1     -46.023  11.097  23.698  0.00  0.00     0.002 A 
ENDROOT
BRANCH   1   7
ATOM      7  C   UNL d   1     -48.362  11.674  23.114  0.00  0.00     0.112 A 
ATOM      8  N   UNL d   1     -48.712  11.837  22.395  0.00  0.00    -0.238 NA
ATOM      9  C   UNL d   1     -49.509  11.993  22.533  0.00  0.00     0.088 A 
ATOM     10  C   UNL d   1     -50.127  12.188  22.031  0.00  0.00     0.020 A 
ATOM     11  C   UNL d   1     -49.642  11.924  23.338  0.00  0.00     0.049 A 
ATOM     12  C   UNL d   1     -50.883  12.315  22.337  0.00  0.00     0.002 A 
ATOM     13  C   UNL d   1     -51.016  12.246  23.143  0.00  0.00     0.001 A 
ATOM     14  C   UNL d   1     -50.399  12.051  23.644  0.00  0.00     0.008 A 
ATOM     15  S   UNL d   1     -48.924  11.725  23.698  0.00  0.00    -0.066 SA
ENDBRANCH   1   7
BRANCH   2  16
ATOM     16  N   UNL d   1     -47.195  12.840  23.117  0.00  0.00    -0.206 NA
ATOM     17  C   UNL d   1     -46.595  13.410  23.015  0.00  0.00     0.302 C 
ATOM     18  O   UNL d   1     -45.806  13.194  23.109  0.00  0.00    -0.263 OA
BRANCH  17  19
ATOM     19  C   UNL d   1     -46.790  14.188  22.821  0.00  0.00     0.158 A 
ATOM     20  O   UNL d   1     -47.518  14.576  22.749  0.00  0.00    -0.300 OA
ATOM     21  C   UNL d   1     -47.365  15.351  22.542  0.00  0.00     0.123 A 
ATOM     22  C   UNL d   1     -46.550  15.459  22.481  0.00  0.00     0.029 A 
ATOM     23  C   UNL d   1     -46.195  14.734  22.655  0.00  0.00     0.032 A 
ENDBRANCH  17  19
ENDBRANCH   2  16
TORSDOF 3
ENDMDL
MODEL 5
REMARK VINA RESULT:      -6.4      1.444      3.457
REMARK  3 active torsions:
REMARK  status: ('A' for Active; 'I' for Inactive)
REMARK    1  A    between atoms: C_4  and  C_1 
REMARK       I    between atoms: C_5  and  N_6 
REMARK    2  A    between atoms: C_8  and  C_5 
REMARK    3  A    between atoms: N_6  and  C_7 
ROOT
ATOM      1  C   UNL d   1     -47.694  14.143  22.650  0.00  0.00     0.042 A 
ATOM      2  C   UNL d   1     -48.518  14.211  22.631  0.00  0.00     0.087 A 
ATOM      3  C   UNL d   1     -47.230  14.790  22.436  0.00  0.00     0.004 A 
ATOM      4  C   UNL d   1     -48.876  14.917  22.403  0.00  0.00     0.019 A 
ATOM      5  C   UNL d   1     -47.576  15.498  22.207  0.00  0.00     0.000 A 
ATOM      6  C   UNL d   1     -48.407  15.562  22.190  0.00  0.00     0.002 A 
ENDROOT
BRANCH   1   7
ATOM      7  C   UNL d   1     -47.339  13.434  22.879  0.00  0.00     0.112 A 
ATOM      8  N   UNL d   1     -47.639  12.786  23.276  0.00  0.00    -0.238 NA
ATOM      9  C   UNL d   1     -47.031  12.236  23.354  0.00  0.00     0.088 A 
ATOM     10  C   UNL d   1     -47.001  11.492  23.698  0.00  0.00     0.020 A 
ATOM     11  C   UNL d   1     -46.361  12.551  23.004  0.00  0.00     0.049 A 
ATOM     12  C   UNL d   1     -46.297  11.061  23.691  0.00  0.00     0.002 A 
ATOM     13  C   UNL d   1     -45.626  11.377  23.339  0.00  0.00     0.001 A 
ATOM     14  C   UNL d   1     -45.656  12.120  22.996  0.00  0.00     0.008 A 
ATOM     15  S   UNL d   1     -46.557  13.299  22.708  0.00  0.00    -0.066 SA
ENDBRANCH   1   7
BRANCH   2  16
ATOM     16  N   UNL d   1     -48.983  13.564  22.844  0.00  0.00    -0.206 NA
ATOM     17  C   UNL d   1     -49.801  13.569  22.683  0.00  0.00     0.302 C 
ATOM     18  O   UNL d   1     -50.141  14.220  22.311  0.00  0.00    -0.263 OA
BRANCH  17  19
ATOM     19  C   UNL d   1     -50.270  12.924  22.894  0.00  0.00     0.158 A 
ATOM     20  O   UNL d   1     -50.474  12.230  22.491  0.00  0.00    -0.300 OA
ATOM     21  C   UNL d   1     -50.958  11.792  22.981  0.00  0.00     0.123 A 
ATOM     22  C   UNL d   1     -51.064  12.199  23.690  0.00  0.00     0.029 A 
ATOM     23  C   UNL d   1     -50.636  12.903  23.633  0.00  0.00     0.032 A 
ENDBRANCH  17  19
ENDBRANCH   2  16
TORSDOF 3
ENDMDL
MODEL 6
REMARK VINA RESULT:      -6.1      1.959      3.180
REMARK  3 active torsions:
REMARK  status: ('A' for Active; 'I' for Inactive)
REMARK    1  A    between atoms: C_4  and  C_1 
REMARK       I    between atoms: C_5  and  N_6 
REMARK    2  A    between atoms: C_8  and  C_5 
REMARK    3  A    between atoms: N_6  and  C_7 
ROOT
ATOM      1  C   UNL d   1     -47.192  13.563  22.716  0.00  0.00     0.042 A 
ATOM      2  C   UNL d   1     -47.391  14.360  22.810  0.00  0.00     0.087 A 
ATOM      3  C   UNL d   1     -46.418  13.360  22.516  0.00  0.00     0.004 A 
ATOM      4  C   UNL d   1     -46.824  14.949  22.707  0.00  0.00     0.019 A 
ATOM      5  C   UNL d   1     -45.846  13.939  22.411  0.00  0.00     0.000 A 
ATOM      6  C   UNL d   1     -46.051  14.741  22.507  0.00  0.00     0.002 A 
ENDROOT
BRANCH   1   7
ATOM      7  C   UNL d   1     -47.763  12.976  22.820  0.00  0.00     0.112 A 
ATOM      8  N   UNL d   1     -48.081  12.650  23.498  0.00  0.00    -0.238 NA
ATOM      9  C   UNL d   1     -48.632  12.081  23.268  0.00  0.00     0.088 A 
ATOM     10  C   UNL d   1     -49.118  11.581  23.698  0.00  0.00     0.020 A 
ATOM     11  C   UNL d   1     -48.646  12.063  22.449  0.00  0.00     0.049 A 
ATOM     12  C   UNL d   1     -49.623  11.058  23.305  0.00  0.00     0.002 A 
ATOM     13  C   UNL d   1     -49.638  11.040  22.486  0.00  0.00     0.001 A 
ATOM     14  C   UNL d   1     -49.151  11.540  22.057  0.00  0.00     0.008 A 
ATOM     15  S   UNL d   1     -48.103  12.622  22.173  0.00  0.00    -0.066 SA
ENDBRANCH   1   7
BRANCH   2  16
ATOM     16  N   UNL d   1     -48.165  14.564  23.010  0.00  0.00    -0.206 NA
ATOM     17  C   UNL d   1     -48.473  15.304  22.778  0.00  0.00     0.302 C 
ATOM     18  O   UNL d   1     -48.003  15.827  22.350  0.00  0.00    -0.263 OA
BRANCH  17  19
ATOM     19  C   UNL d   1     -49.247  15.512  22.976  0.00  0.00     0.158 A 
ATOM     20  O   UNL d   1     -49.600  15.711  23.698  0.00  0.00    -0.300 OA
ATOM     21  C   UNL d   1     -50.388  15.866  23.552  0.00  0.00     0.123 A 
ATOM     22  C   UNL d   1     -50.540  15.767  22.748  0.00  0.00     0.029 A 
ATOM     23  C   UNL d   1     -49.828  15.547  22.392  0.00  0.00     0.032 A 
ENDBRANCH  17  19
ENDBRANCH   2  16
TORSDOF 3
ENDMDL
MODEL 7
REMARK VINA RESULT:      -5.8      9.093     10.391
REMARK  3 active torsions:
REMARK  status: ('A' for Active; 'I' for Inactive)
REMARK    1  A    between atoms: C_4  and  C_1 
REMARK       I    between atoms: C_5  and  N_6 
REMARK    2  A    between atoms: C_8  and  C_5 
REMARK    3  A    between atoms: N_6  and  C_7 
ROOT
ATOM      1  C   UNL d   1     -38.601  13.334  19.015  0.00  0.00     0.042 A 
ATOM      2  C   UNL d   1     -38.979  13.480  18.294  0.00  0.00     0.087 A 
ATOM      3  C   UNL d   1     -38.083  12.695  19.078  0.00  0.00     0.004 A 
ATOM      4  C   UNL d   1     -38.843  12.995  17.642  0.00  0.00     0.019 A 
ATOM      5  C   UNL d   1     -37.940  12.205  18.434  0.00  0.00     0.000 A 
ATOM      6  C   UNL d   1     -38.323  12.357  17.710  0.00  0.00     0.002 A 
ENDROOT
BRANCH   1   7
ATOM      7  C   UNL d   1     -38.740  13.822  19.666  0.00  0.00     0.112 A 
ATOM      8  N   UNL d   1     -39.413  13.945  20.112  0.00  0.00    -0.238 NA
ATOM      9  C   UNL d   1     -39.229  14.496  20.696  0.00  0.00     0.088 A 
ATOM     10  C   UNL d   1     -39.675  14.830  21.297  0.00  0.00     0.020 A 
ATOM     11  C   UNL d   1     -38.443  14.707  20.604  0.00  0.00     0.049 A 
ATOM     12  C   UNL d   1     -39.332  15.379  21.810  0.00  0.00     0.002 A 
ATOM     13  C   UNL d   1     -38.546  15.591  21.717  0.00  0.00     0.001 A 
ATOM     14  C   UNL d   1     -38.100  15.257  21.116  0.00  0.00     0.008 A 
ATOM     15  S   UNL d   1     -38.141  14.284  19.960  0.00  0.00    -0.066 SA
ENDBRANCH   1   7
BRANCH   2  16
ATOM     16  N   UNL d   1     -39.497  14.118  18.230  0.00  0.00    -0.206 NA
ATOM     17  C   UNL d   1     -39.870  14.280  17.502  0.00  0.00     0.302 C 
ATOM     18  O   UNL d   1     -39.719  13.801  16.850  0.00  0.00    -0.263 OA
BRANCH  17  19
ATOM     19  C   UNL d   1     -40.389  14.918  17.435  0.00  0.00     0.158 A 
ATOM     20  O   UNL d   1     -40.885  15.291  17.983  0.00  0.00    -0.300 OA
ATOM     21  C   UNL d   1     -41.272  15.896  17.595  0.00  0.00     0.123 A 
ATOM     22  C   UNL d   1     -41.028  15.912  16.808  0.00  0.00     0.029 A 
ATOM     23  C   UNL d   1     -40.479  15.303  16.711  0.00  0.00     0.032 A 
ENDBRANCH  17  19
ENDBRANCH   2  16
TORSDOF 3
ENDMDL
MODEL 8
REMARK VINA RESULT:      -5.5      1.625      2.037
REMARK  3 active torsions:
REMARK  status: ('A' for Active; 'I' for Inactive)
REMARK    1  A    between atoms: C_4  and  C_1 
REMARK       I    between atoms: C_5  and  N_6 
REMARK    2  A    between atoms: C_8  and  C_5 
REMARK    3  A    between atoms: N_6  and  C_7 
ROOT
ATOM      1  C   UNL d   1     -47.501  14.499  22.929  0.00  0.00     0.042 A 
ATOM      2  C   UNL d   1     -47.368  13.697  23.075  0.00  0.00     0.087 A 
ATOM      3  C   UNL d   1     -46.865  14.986  22.735  0.00  0.00     0.004 A 
ATOM      4  C   UNL d   1     -46.608  13.382  23.028  0.00  0.00     0.019 A 
ATOM      5  C   UNL d   1     -46.103  14.683  22.685  0.00  0.00     0.000 A 
ATOM      6  C   UNL d   1     -45.975  13.873  22.834  0.00  0.00     0.002 A 
ENDROOT
BRANCH   1   7
ATOM      7  C   UNL d   1     -48.264  14.811  22.977  0.00  0.00     0.112 A 
ATOM      8  N   UNL d   1     -48.667  15.153  23.600  0.00  0.00    -0.238 NA
ATOM      9  C   UNL d   1     -49.415  15.365  23.329  0.00  0.00     0.088 A 
ATOM     10  C   UNL d   1     -50.054  15.724  23.697  0.00  0.00     0.020 A 
ATOM     11  C   UNL d   1     -49.466  15.151  22.540  0.00  0.00     0.049 A 
ATOM     12  C   UNL d   1     -50.747  15.869  23.273  0.00  0.00     0.002 A 
ATOM     13  C   UNL d   1     -50.798  15.655  22.484  0.00  0.00     0.001 A 
ATOM     14  C   UNL d   1     -50.160  15.296  22.116  0.00  0.00     0.008 A 
ATOM     15  S   UNL d   1     -48.746  14.806  22.324  0.00  0.00    -0.066 SA
ENDBRANCH   1   7
BRANCH   2  16
ATOM     16  N   UNL d   1     -48.004  13.208  23.270  0.00  0.00    -0.206 NA
ATOM     17  C   UNL d   1     -47.929  12.381  23.201  0.00  0.00     0.302 C 
ATOM     18  O   UNL d   1     -47.220  12.054  22.940  0.00  0.00    -0.263 OA
BRANCH  17  19
ATOM     19  C   UNL d   1     -48.563  11.889  23.395  0.00  0.00     0.158 A 
ATOM     20  O   UNL d   1     -49.370  12.042  23.506  0.00  0.00    -0.300 OA
ATOM     21  C   UNL d   1     -49.731  11.334  23.691  0.00  0.00     0.123 A 
ATOM     22  C   UNL d   1     -49.166  10.734  23.698  0.00  0.00     0.029 A 
ATOM     23  C   UNL d   1     -48.440  11.083  23.514  0.00  0.00     0.032 A 
ENDBRANCH  17  19
ENDBRANCH   2  16
TORSDOF 3
ENDMDL
MODEL 9
REMARK VINA RESULT:      -5.3      7.957      9.492
REMARK  3 active torsions:
REMARK  status: ('A' for Active; 'I' for Inactive)
REMARK    1  A    between atoms: C_4  and  C_1 
REMARK       I    between atoms: C_5  and  N_6 
REMARK    2  A    between atoms: C_8  and  C_5 
REMARK    3  A    between atoms: N_6  and  C_7 
ROOT
ATOM      1  C   UNL d   1     -40.365  15.162  19.828  0.00  0.00     0.042 A 
ATOM      2  C   UNL d   1     -40.248  15.092  20.643  0.00  0.00     0.087 A 
ATOM      3  C   UNL d   1     -41.020  15.578  19.548  0.00  0.00     0.004 A 
ATOM      4  C   UNL d   1     -40.778  15.433  21.175  0.00  0.00     0.019 A 
ATOM      5  C   UNL d   1     -41.554  15.922  20.068  0.00  0.00     0.000 A 
ATOM      6  C   UNL d   1     -41.431  15.848  20.889  0.00  0.00     0.002 A 
ENDROOT
BRANCH   1   7
ATOM      7  C   UNL d   1     -39.833  14.820  19.299  0.00  0.00     0.112 A 
ATOM      8  N   UNL d   1     -39.031  14.933  19.194  0.00  0.00    -0.238 NA
ATOM      9  C   UNL d   1     -38.786  14.440  18.581  0.00  0.00     0.088 A 
ATOM     10  C   UNL d   1     -38.053  14.315  18.234  0.00  0.00     0.020 A 
ATOM     11  C   UNL d   1     -39.441  14.027  18.314  0.00  0.00     0.049 A 
ATOM     12  C   UNL d   1     -37.977  13.773  17.616  0.00  0.00     0.002 A 
ATOM     13  C   UNL d   1     -38.633  13.360  17.349  0.00  0.00     0.001 A 
ATOM     14  C   UNL d   1     -39.364  13.485  17.696  0.00  0.00     0.008 A 
ATOM     15  S   UNL d   1     -40.093  14.267  18.764  0.00  0.00    -0.066 SA
ENDBRANCH   1   7
BRANCH   2  16
ATOM     16  N   UNL d   1     -39.594  14.677  20.925  0.00  0.00    -0.206 NA
ATOM     17  C   UNL d   1     -39.641  14.266  21.649  0.00  0.00     0.302 C 
ATOM     18  O   UNL d   1     -40.343  14.277  22.080  0.00  0.00    -0.263 OA
BRANCH  17  19
ATOM     19  C   UNL d   1     -38.989  13.849  21.934  0.00  0.00     0.158 A 
ATOM     20  O   UNL d   1     -38.643  13.133  21.702  0.00  0.00    -0.300 OA
ATOM     21  C   UNL d   1     -38.004  12.997  22.191  0.00  0.00     0.123 A 
ATOM     22  C   UNL d   1     -37.940  13.617  22.730  0.00  0.00     0.029 A 
ATOM     23  C   UNL d   1     -38.553  14.146  22.568  0.00  0.00     0.032 A 
ENDBRANCH  17  19
ENDBRANCH   2  16
TORSDOF 3
ENDMDL
