MODEL 1
REMARK VINA RESULT:      -4.2      0.000      0.000
REMARK  5 active torsions:
REMARK  status: ('A' for Active; 'I' for Inactive)
REMARK    1  A    between atoms: N_2  and  S_1 
REMARK    2  A    between atoms: C_3  and  S_1 
REMARK    3  A    between atoms: C_6  and  C_4 
REMARK    4  A    between atoms: O_15  and  C_6 
REMARK    5  A    between atoms: C_18  and  O_15 
ROOT
ATOM      1  N   UNL d   1      57.745  -0.019  30.632  0.00  0.00    -0.229 N 
ATOM      2  C   UNL d   1      58.598  -0.625  29.671  0.00  0.00     0.082 A 
ATOM      3  C   UNL d   1      58.212  -0.647  30.399  0.00  0.00     0.097 A 
ATOM      4  C   UNL d   1      57.656   0.639  30.143  0.00  0.00     0.092 A 
ATOM      5  C   UNL d   1      58.517   0.025  29.177  0.00  0.00     0.008 A 
ATOM      6  C   UNL d   1      58.045   0.659  29.413  0.00  0.00     0.020 A 
ENDROOT
BRANCH   1   7
ATOM      7  S   UNL d   1      57.359  -0.041  31.360  0.00  0.00     0.277 S 
ATOM      8  O   UNL d   1      57.902   0.498  31.664  0.00  0.00    -0.199 OA
ATOM      9  O   UNL d   1      56.814  -0.582  31.055  0.00  0.00    -0.199 OA
BRANCH   7  10
ATOM     10  C   UNL d   1      56.972  -0.063  32.089  0.00  0.00     0.133 A 
ATOM     11  S   UNL d   1      56.835   0.356  32.777  0.00  0.00    -0.074 SA
ATOM     12  C   UNL d   1      56.347  -0.099  33.266  0.00  0.00     0.036 A 
ATOM     13  C   UNL d   1      56.187  -0.806  32.863  0.00  0.00     0.008 A 
ATOM     14  C   UNL d   1      56.573  -0.784  32.136  0.00  0.00     0.020 A 
ENDBRANCH   7  10
ENDBRANCH   1   7
BRANCH   2  15
ATOM     15  C   UNL d   1      59.071  -1.265  29.440  0.00  0.00     0.302 C 
ATOM     16  O   UNL d   1      59.891  -1.205  29.448  0.00  0.00    -0.259 OA
BRANCH  15  17
ATOM     17  O   UNL d   1      58.713  -1.970  29.199  0.00  0.00    -0.271 OA
BRANCH  17  18
ATOM     18  C   UNL d   1      59.175  -2.612  28.986  0.00  0.00     0.126 C 
ATOM     19  C   UNL d   1      58.818  -3.328  28.778  0.00  0.00     0.029 C 
ENDBRANCH  17  18
ENDBRANCH  15  17
ENDBRANCH   2  15
TORSDOF 5
ENDMDL
MODEL 2
REMARK VINA RESULT:      -4.2      1.791      4.590
REMARK  5 active torsions:
REMARK  status: ('A' for Active; 'I' for Inactive)
REMARK    1  A    between atoms: N_2  and  S_1 
REMARK    2  A    between atoms: C_3  and  S_1 
REMARK    3  A    between atoms: C_6  and  C_4 
REMARK    4  A    between atoms: O_15  and  C_6 
REMARK    5  A    between atoms: C_18  and  O_15 
ROOT
ATOM      1  N   UNL d   1      56.644  -0.413  32.191  0.00  0.00    -0.229 N 
ATOM      2  C   UNL d   1      55.663  -0.197  33.195  0.00  0.00     0.082 A 
ATOM      3  C   UNL d   1      56.221   0.099  32.666  0.00  0.00     0.097 A 
ATOM      4  C   UNL d   1      56.517  -1.227  32.237  0.00  0.00     0.092 A 
ATOM      5  C   UNL d   1      55.528  -1.005  33.250  0.00  0.00     0.008 A 
ATOM      6  C   UNL d   1      55.956  -1.521  32.769  0.00  0.00     0.020 A 
ENDROOT
BRANCH   1   7
ATOM      7  S   UNL d   1      57.202  -0.117  31.662  0.00  0.00     0.277 S 
ATOM      8  O   UNL d   1      57.695   0.079  32.292  0.00  0.00    -0.199 OA
ATOM      9  O   UNL d   1      56.707  -0.314  31.030  0.00  0.00    -0.199 OA
BRANCH   7  10
ATOM     10  C   UNL d   1      57.761   0.180  31.131  0.00  0.00     0.133 A 
ATOM     11  S   UNL d   1      58.405   0.677  31.060  0.00  0.00    -0.074 SA
ATOM     12  C   UNL d   1      58.663   0.658  30.275  0.00  0.00     0.036 A 
ATOM     13  C   UNL d   1      58.164   0.138  29.865  0.00  0.00     0.008 A 
ATOM     14  C   UNL d   1      57.606  -0.158  30.395  0.00  0.00     0.020 A 
ENDBRANCH   7  10
ENDBRANCH   1   7
BRANCH   2  15
ATOM     15  C   UNL d   1      55.236   0.327  33.675  0.00  0.00     0.302 C 
ATOM     16  O   UNL d   1      54.499   0.605  33.440  0.00  0.00    -0.259 OA
BRANCH  15  17
ATOM     17  O   UNL d   1      55.556   0.571  34.397  0.00  0.00    -0.271 OA
BRANCH  17  18
ATOM     18  C   UNL d   1      55.068   0.682  35.046  0.00  0.00     0.126 C 
ATOM     19  C   UNL d   1      55.379   0.641  35.810  0.00  0.00     0.029 C 
ENDBRANCH  17  18
ENDBRANCH  15  17
ENDBRANCH   2  15
TORSDOF 5
ENDMDL
MODEL 3
REMARK VINA RESULT:      -3.8      1.391      3.761
REMARK  5 active torsions:
REMARK  status: ('A' for Active; 'I' for Inactive)
REMARK    1  A    between atoms: N_2  and  S_1 
REMARK    2  A    between atoms: C_3  and  S_1 
REMARK    3  A    between atoms: C_6  and  C_4 
REMARK    4  A    between atoms: O_15  and  C_6 
REMARK    5  A    between atoms: C_18  and  O_15 
ROOT
ATOM      1  N   UNL d   1      58.611  -0.666  29.433  0.00  0.00    -0.229 N 
ATOM      2  C   UNL d   1      57.885   0.047  30.424  0.00  0.00     0.082 A 
ATOM      3  C   UNL d   1      58.294  -0.627  30.184  0.00  0.00     0.097 A 
ATOM      4  C   UNL d   1      58.524  -0.034  28.910  0.00  0.00     0.092 A 
ATOM      5  C   UNL d   1      57.792   0.681  29.913  0.00  0.00     0.008 A 
ATOM      6  C   UNL d   1      58.113   0.641  29.154  0.00  0.00     0.020 A 
ENDROOT
BRANCH   1   7
ATOM      7  S   UNL d   1      59.020  -1.340  29.193  0.00  0.00     0.277 S 
ATOM      8  O   UNL d   1      58.312  -1.681  28.944  0.00  0.00    -0.199 OA
ATOM      9  O   UNL d   1      59.729  -0.998  29.442  0.00  0.00    -0.199 OA
BRANCH   7  10
ATOM     10  C   UNL d   1      59.430  -2.015  28.952  0.00  0.00     0.133 A 
ATOM     11  S   UNL d   1      60.143  -2.285  28.659  0.00  0.00    -0.074 SA
ATOM     12  C   UNL d   1      60.092  -3.105  28.564  0.00  0.00     0.036 A 
ATOM     13  C   UNL d   1      59.331  -3.333  28.805  0.00  0.00     0.008 A 
ATOM     14  C   UNL d   1      58.922  -2.659  29.045  0.00  0.00     0.020 A 
ENDBRANCH   7  10
ENDBRANCH   1   7
BRANCH   2  15
ATOM     15  C   UNL d   1      57.565   0.081  31.188  0.00  0.00     0.302 C 
ATOM     16  O   UNL d   1      57.847   0.626  31.737  0.00  0.00    -0.259 OA
BRANCH  15  17
ATOM     17  O   UNL d   1      56.958  -0.438  31.399  0.00  0.00    -0.271 OA
BRANCH  17  18
ATOM     18  C   UNL d   1      56.669  -0.441  32.166  0.00  0.00     0.126 C 
ATOM     19  C   UNL d   1      56.211  -1.075  32.434  0.00  0.00     0.029 C 
ENDBRANCH  17  18
ENDBRANCH  15  17
ENDBRANCH   2  15
TORSDOF 5
ENDMDL
MODEL 4
REMARK VINA RESULT:      -3.7      1.950      2.937
REMARK  5 active torsions:
REMARK  status: ('A' for Active; 'I' for Inactive)
REMARK    1  A    between atoms: N_2  and  S_1 
REMARK    2  A    between atoms: C_3  and  S_1 
REMARK    3  A    between atoms: C_6  and  C_4 
REMARK    4  A    between atoms: O_15  and  C_6 
REMARK    5  A    between atoms: C_18  and  O_15 
ROOT
ATOM      1  N   UNL d   1      56.241  -0.480  32.711  0.00  0.00    -0.229 N 
ATOM      2  C   UNL d   1      57.009  -0.318  31.527  0.00  0.00     0.082 A 
ATOM      3  C   UNL d   1      56.653   0.003  32.198  0.00  0.00     0.097 A 
ATOM      4  C   UNL d   1      56.179  -1.289  32.564  0.00  0.00     0.092 A 
ATOM      5  C   UNL d   1      56.953  -1.121  31.371  0.00  0.00     0.008 A 
ATOM      6  C   UNL d   1      56.537  -1.608  31.891  0.00  0.00     0.020 A 
ENDROOT
BRANCH   1   7
ATOM      7  S   UNL d   1      55.885  -0.159  33.382  0.00  0.00     0.277 S 
ATOM      8  O   UNL d   1      56.534   0.338  33.489  0.00  0.00    -0.199 OA
ATOM      9  O   UNL d   1      55.234  -0.656  33.274  0.00  0.00    -0.199 OA
BRANCH   7  10
ATOM     10  C   UNL d   1      55.528   0.163  34.053  0.00  0.00     0.133 A 
ATOM     11  S   UNL d   1      55.658   0.380  34.830  0.00  0.00    -0.074 SA
ATOM     12  C   UNL d   1      54.951   0.682  35.138  0.00  0.00     0.036 A 
ATOM     13  C   UNL d   1      54.385   0.644  34.533  0.00  0.00     0.008 A 
ATOM     14  C   UNL d   1      54.742   0.324  33.862  0.00  0.00     0.020 A 
ENDBRANCH   7  10
ENDBRANCH   1   7
BRANCH   2  15
ATOM     15  C   UNL d   1      57.426   0.177  31.009  0.00  0.00     0.302 C 
ATOM     16  O   UNL d   1      57.024   0.678  30.495  0.00  0.00    -0.259 OA
BRANCH  15  17
ATOM     17  O   UNL d   1      58.251   0.166  31.010  0.00  0.00    -0.271 OA
BRANCH  17  18
ATOM     18  C   UNL d   1      58.668   0.454  30.366  0.00  0.00     0.126 C 
ATOM     19  C   UNL d   1      59.465   0.656  30.444  0.00  0.00     0.029 C 
ENDBRANCH  17  18
ENDBRANCH  15  17
ENDBRANCH   2  15
TORSDOF 5
ENDMDL
MODEL 5
REMARK VINA RESULT:      -3.5      1.248      1.715
REMARK  5 active torsions:
REMARK  status: ('A' for Active; 'I' for Inactive)
REMARK    1  A    between atoms: N_2  and  S_1 
REMARK    2  A    between atoms: C_3  and  S_1 
REMARK    3  A    between atoms: C_6  and  C_4 
REMARK    4  A    between atoms: O_15  and  C_6 
REMARK    5  A    between atoms: C_18  and  O_15 
ROOT
ATOM      1  N   UNL d   1      57.437   0.307  32.018  0.00  0.00    -0.229 N 
ATOM      2  C   UNL d   1      58.118   0.079  30.793  0.00  0.00     0.082 A 
ATOM      3  C   UNL d   1      57.434   0.031  31.250  0.00  0.00     0.097 A 
ATOM      4  C   UNL d   1      58.121   0.635  32.341  0.00  0.00     0.092 A 
ATOM      5  C   UNL d   1      58.805   0.403  31.104  0.00  0.00     0.008 A 
ATOM      6  C   UNL d   1      58.806   0.682  31.880  0.00  0.00     0.020 A 
ENDROOT
BRANCH   1   7
ATOM      7  S   UNL d   1      56.753   0.260  32.475  0.00  0.00     0.277 S 
ATOM      8  O   UNL d   1      56.340   0.682  31.900  0.00  0.00    -0.199 OA
ATOM      9  O   UNL d   1      57.167  -0.163  33.051  0.00  0.00    -0.199 OA
BRANCH   7  10
ATOM     10  C   UNL d   1      56.067   0.212  32.933  0.00  0.00     0.133 A 
ATOM     11  S   UNL d   1      55.517   0.652  33.345  0.00  0.00    -0.074 SA
ATOM     12  C   UNL d   1      54.961   0.135  33.672  0.00  0.00     0.036 A 
ATOM     13  C   UNL d   1      55.182  -0.634  33.451  0.00  0.00     0.008 A 
ATOM     14  C   UNL d   1      55.866  -0.586  32.994  0.00  0.00     0.020 A 
ENDBRANCH   7  10
ENDBRANCH   1   7
BRANCH   2  15
ATOM     15  C   UNL d   1      58.110  -0.203  30.013  0.00  0.00     0.302 C 
ATOM     16  O   UNL d   1      57.521   0.032  29.488  0.00  0.00    -0.259 OA
BRANCH  15  17
ATOM     17  O   UNL d   1      58.699  -0.725  29.762  0.00  0.00    -0.271 OA
BRANCH  17  18
ATOM     18  C   UNL d   1      58.654  -1.069  29.020  0.00  0.00     0.126 C 
ATOM     19  C   UNL d   1      59.253  -1.576  28.761  0.00  0.00     0.029 C 
ENDBRANCH  17  18
ENDBRANCH  15  17
ENDBRANCH   2  15
TORSDOF 5
ENDMDL
MODEL 6
REMARK VINA RESULT:      -3.4      1.451      4.076
REMARK  5 active torsions:
REMARK  status: ('A' for Active; 'I' for Inactive)
REMARK    1  A    between atoms: N_2  and  S_1 
REMARK    2  A    between atoms: C_3  and  S_1 
REMARK    3  A    between atoms: C_6  and  C_4 
REMARK    4  A    between atoms: O_15  and  C_6 
REMARK    5  A    between atoms: C_18  and  O_15 
ROOT
ATOM      1  N   UNL d   1      57.820   0.333  31.451  0.00  0.00    -0.229 N 
ATOM      2  C   UNL d   1      56.906   0.117  32.517  0.00  0.00     0.082 A 
ATOM      3  C   UNL d   1      57.092   0.074  31.715  0.00  0.00     0.097 A 
ATOM      4  C   UNL d   1      58.373   0.637  31.982  0.00  0.00     0.092 A 
ATOM      5  C   UNL d   1      57.448   0.418  33.054  0.00  0.00     0.008 A 
ATOM      6  C   UNL d   1      58.183   0.679  32.786  0.00  0.00     0.020 A 
ENDROOT
BRANCH   1   7
ATOM      7  S   UNL d   1      58.006   0.290  30.649  0.00  0.00     0.277 S 
ATOM      8  O   UNL d   1      58.796   0.155  30.840  0.00  0.00    -0.199 OA
ATOM      9  O   UNL d   1      57.214   0.425  30.458  0.00  0.00    -0.199 OA
BRANCH   7  10
ATOM     10  C   UNL d   1      58.193   0.246  29.846  0.00  0.00     0.133 A 
ATOM     11  S   UNL d   1      58.240   0.679  29.155  0.00  0.00    -0.074 SA
ATOM     12  C   UNL d   1      58.494   0.177  28.549  0.00  0.00     0.036 A 
ATOM     13  C   UNL d   1      58.602  -0.574  28.884  0.00  0.00     0.008 A 
ATOM     14  C   UNL d   1      58.416  -0.531  29.686  0.00  0.00     0.020 A 
ENDBRANCH   7  10
ENDBRANCH   1   7
BRANCH   2  15
ATOM     15  C   UNL d   1      56.165  -0.147  32.779  0.00  0.00     0.302 C 
ATOM     16  O   UNL d   1      55.862  -0.867  32.523  0.00  0.00    -0.259 OA
BRANCH  15  17
ATOM     17  O   UNL d   1      55.729   0.319  33.304  0.00  0.00    -0.271 OA
BRANCH  17  18
ATOM     18  C   UNL d   1      54.990   0.071  33.557  0.00  0.00     0.126 C 
ATOM     19  C   UNL d   1      54.483   0.601  33.936  0.00  0.00     0.029 C 
ENDBRANCH  17  18
ENDBRANCH  15  17
ENDBRANCH   2  15
TORSDOF 5
ENDMDL
MODEL 7
REMARK VINA RESULT:      -2.9      1.684      3.977
REMARK  5 active torsions:
REMARK  status: ('A' for Active; 'I' for Inactive)
REMARK    1  A    between atoms: N_2  and  S_1 
REMARK    2  A    between atoms: C_3  and  S_1 
REMARK    3  A    between atoms: C_6  and  C_4 
REMARK    4  A    between atoms: O_15  and  C_6 
REMARK    5  A    between atoms: C_18  and  O_15 
ROOT
ATOM      1  N   UNL d   1      59.236  -1.002  29.165  0.00  0.00    -0.229 N 
ATOM      2  C   UNL d   1      58.475   0.025  29.786  0.00  0.00     0.082 A 
ATOM      3  C   UNL d   1      58.601  -0.773  29.625  0.00  0.00     0.097 A 
ATOM      4  C   UNL d   1      59.753  -0.437  28.859  0.00  0.00     0.092 A 
ATOM      5  C   UNL d   1      58.983   0.595  29.486  0.00  0.00     0.008 A 
ATOM      6  C   UNL d   1      59.624   0.364  29.022  0.00  0.00     0.020 A 
ENDROOT
BRANCH   1   7
ATOM      7  S   UNL d   1      59.362  -1.800  29.004  0.00  0.00     0.277 S 
ATOM      8  O   UNL d   1      58.722  -1.797  28.486  0.00  0.00    -0.199 OA
ATOM      9  O   UNL d   1      60.004  -1.803  29.525  0.00  0.00    -0.199 OA
BRANCH   7  10
ATOM     10  C   UNL d   1      59.489  -2.600  28.843  0.00  0.00     0.133 A 
ATOM     11  S   UNL d   1      59.184  -3.252  28.457  0.00  0.00    -0.074 SA
ATOM     12  C   UNL d   1      59.693  -3.891  28.583  0.00  0.00     0.036 A 
ATOM     13  C   UNL d   1      60.317  -3.617  29.056  0.00  0.00     0.008 A 
ATOM     14  C   UNL d   1      60.191  -2.819  29.217  0.00  0.00     0.020 A 
ENDBRANCH   7  10
ENDBRANCH   1   7
BRANCH   2  15
ATOM     15  C   UNL d   1      57.829   0.251  30.254  0.00  0.00     0.302 C 
ATOM     16  O   UNL d   1      57.207   0.680  29.929  0.00  0.00    -0.259 OA
BRANCH  15  17
ATOM     17  O   UNL d   1      57.812   0.042  31.052  0.00  0.00    -0.271 OA
BRANCH  17  18
ATOM     18  C   UNL d   1      57.193   0.291  31.529  0.00  0.00     0.126 C 
ATOM     19  C   UNL d   1      56.932  -0.185  32.151  0.00  0.00     0.029 C 
ENDBRANCH  17  18
ENDBRANCH  15  17
ENDBRANCH   2  15
TORSDOF 5
ENDMDL
