MODEL 1
REMARK VINA RESULT:      -5.4      0.000      0.000
REMARK  6 active torsions:
REMARK  status: ('A' for Active; 'I' for Inactive)
REMARK       I    between atoms: N_2  and  C_1 
REMARK       I    between atoms: N_4  and  C_1 
REMARK    1  A    between atoms: C_8  and  N_2 
REMARK    2  A    between atoms: C_3  and  C_5 
REMARK    3  A    between atoms: O_11  and  C_3 
REMARK    4  A    between atoms: C_14  and  N_4 
REMARK    5  A    between atoms: C_15  and  N_4 
REMARK    6  A    between atoms: C_16  and  O_11 
ROOT
ATOM      1  C   UNL d   1     -41.315-123.035 -53.101  0.00  0.00     0.064 A 
ATOM      2  C   UNL d   1     -41.256-123.132 -51.458  0.00  0.00     0.086 A 
ATOM      3  C   UNL d   1     -41.159-123.760 -52.732  0.00  0.00     0.007 A 
ATOM      4  C   UNL d   1     -41.439-122.368 -52.657  0.00  0.00     0.007 A 
ATOM      5  C   UNL d   1     -41.132-123.799 -51.902  0.00  0.00     0.019 A 
ATOM      6  C   UNL d   1     -41.412-122.407 -51.831  0.00  0.00     0.019 A 
ENDROOT
BRANCH   2   7
ATOM      7  N   UNL d   1     -41.229-123.169 -50.636  0.00  0.00    -0.192 NA
ATOM      8  C   UNL d   1     -41.933-123.097 -50.201  0.00  0.00     0.354 C 
ATOM      9  N   UNL d   1     -41.907-123.134 -49.387  0.00  0.00    -0.256 N 
ATOM     10  O   UNL d   1     -42.649-122.989 -50.595  0.00  0.00    -0.244 OA
BRANCH   9  11
ATOM     11  C   UNL d   1     -41.185-123.241 -49.001  0.00  0.00     0.085 C 
ATOM     12  C   UNL d   1     -41.124-123.095 -48.188  0.00  0.00     0.021 C 
ENDBRANCH   9  11
BRANCH   9  13
ATOM     13  C   UNL d   1     -42.616-123.061 -48.953  0.00  0.00     0.085 C 
ATOM     14  C   UNL d   1     -43.003-123.741 -48.701  0.00  0.00     0.021 C 
ENDBRANCH   9  13
ENDBRANCH   2   7
BRANCH   1  15
ATOM     15  C   UNL d   1     -41.343-122.991 -53.917  0.00  0.00     0.300 C 
ATOM     16  O   UNL d   1     -41.124-123.634 -54.379  0.00  0.00    -0.259 OA
BRANCH  15  17
ATOM     17  O   UNL d   1     -41.594-122.293 -54.279  0.00  0.00    -0.271 OA
BRANCH  17  18
ATOM     18  C   UNL d   1     -41.993-122.322 -54.989  0.00  0.00     0.126 C 
ATOM     19  C   UNL d   1     -41.885-121.731 -55.551  0.00  0.00     0.029 C 
ENDBRANCH  17  18
ENDBRANCH  15  17
ENDBRANCH   1  15
TORSDOF 6
ENDMDL
MODEL 2
REMARK VINA RESULT:      -5.0      0.855      1.319
REMARK  6 active torsions:
REMARK  status: ('A' for Active; 'I' for Inactive)
REMARK       I    between atoms: N_2  and  C_1 
REMARK       I    between atoms: N_4  and  C_1 
REMARK    1  A    between atoms: C_8  and  N_2 
REMARK    2  A    between atoms: C_3  and  C_5 
REMARK    3  A    between atoms: O_11  and  C_3 
REMARK    4  A    between atoms: C_14  and  N_4 
REMARK    5  A    between atoms: C_15  and  N_4 
REMARK    6  A    between atoms: C_16  and  O_11 
ROOT
ATOM      1  C   UNL d   1     -41.270-122.738 -52.204  0.00  0.00     0.064 A 
ATOM      2  C   UNL d   1     -41.368-122.948 -50.574  0.00  0.00     0.086 A 
ATOM      3  C   UNL d   1     -41.325-122.081 -51.702  0.00  0.00     0.007 A 
ATOM      4  C   UNL d   1     -41.265-123.488 -51.898  0.00  0.00     0.007 A 
ATOM      5  C   UNL d   1     -41.373-122.198 -50.881  0.00  0.00     0.019 A 
ATOM      6  C   UNL d   1     -41.313-123.604 -51.080  0.00  0.00     0.019 A 
ENDROOT
BRANCH   2   7
ATOM      7  N   UNL d   1     -41.416-123.065 -49.760  0.00  0.00    -0.192 NA
ATOM      8  C   UNL d   1     -42.161-123.069 -49.392  0.00  0.00     0.354 C 
ATOM      9  N   UNL d   1     -42.208-123.184 -48.587  0.00  0.00    -0.256 N 
ATOM     10  O   UNL d   1     -42.841-122.955 -49.843  0.00  0.00    -0.244 OA
BRANCH   9  11
ATOM     11  C   UNL d   1     -41.521-123.297 -48.143  0.00  0.00     0.085 C 
ATOM     12  C   UNL d   1     -41.530-123.171 -47.324  0.00  0.00     0.021 C 
ENDBRANCH   9  11
BRANCH   9  13
ATOM     13  C   UNL d   1     -42.958-123.187 -48.220  0.00  0.00     0.085 C 
ATOM     14  C   UNL d   1     -43.150-123.800 -47.706  0.00  0.00     0.021 C 
ENDBRANCH   9  13
ENDBRANCH   2   7
BRANCH   1  15
ATOM     15  C   UNL d   1     -41.222-122.629 -53.014  0.00  0.00     0.300 C 
ATOM     16  O   UNL d   1     -41.123-121.877 -53.330  0.00  0.00    -0.259 OA
BRANCH  15  17
ATOM     17  O   UNL d   1     -41.274-123.281 -53.516  0.00  0.00    -0.271 OA
BRANCH  17  18
ATOM     18  C   UNL d   1     -41.350-123.172 -54.321  0.00  0.00     0.126 C 
ATOM     19  C   UNL d   1     -41.320-123.816 -54.832  0.00  0.00     0.029 C 
ENDBRANCH  17  18
ENDBRANCH  15  17
ENDBRANCH   1  15
TORSDOF 6
ENDMDL
MODEL 3
REMARK VINA RESULT:      -4.3      1.402      4.574
REMARK  6 active torsions:
REMARK  status: ('A' for Active; 'I' for Inactive)
REMARK       I    between atoms: N_2  and  C_1 
REMARK       I    between atoms: N_4  and  C_1 
REMARK    1  A    between atoms: C_8  and  N_2 
REMARK    2  A    between atoms: C_3  and  C_5 
REMARK    3  A    between atoms: O_11  and  C_3 
REMARK    4  A    between atoms: C_14  and  N_4 
REMARK    5  A    between atoms: C_15  and  N_4 
REMARK    6  A    between atoms: C_16  and  O_11 
ROOT
ATOM      1  C   UNL d   1     -41.655-123.042 -50.794  0.00  0.00     0.064 A 
ATOM      2  C   UNL d   1     -41.439-122.988 -52.425  0.00  0.00     0.086 A 
ATOM      3  C   UNL d   1     -41.660-123.741 -51.238  0.00  0.00     0.007 A 
ATOM      4  C   UNL d   1     -41.545-122.326 -51.158  0.00  0.00     0.007 A 
ATOM      5  C   UNL d   1     -41.550-123.703 -52.061  0.00  0.00     0.019 A 
ATOM      6  C   UNL d   1     -41.436-122.289 -51.977  0.00  0.00     0.019 A 
ENDROOT
BRANCH   2   7
ATOM      7  N   UNL d   1     -41.331-122.949 -53.241  0.00  0.00    -0.192 NA
ATOM      8  C   UNL d   1     -41.924-122.614 -53.716  0.00  0.00     0.354 C 
ATOM      9  N   UNL d   1     -41.816-122.576 -54.523  0.00  0.00    -0.256 N 
ATOM     10  O   UNL d   1     -42.614-122.326 -53.368  0.00  0.00    -0.244 OA
BRANCH   9  11
ATOM     11  C   UNL d   1     -41.123-122.867 -54.862  0.00  0.00     0.085 C 
ATOM     12  C   UNL d   1     -41.162-123.427 -55.472  0.00  0.00     0.021 C 
ENDBRANCH   9  11
BRANCH   9  13
ATOM     13  C   UNL d   1     -42.415-122.239 -54.998  0.00  0.00     0.085 C 
ATOM     14  C   UNL d   1     -42.236-121.588 -55.467  0.00  0.00     0.021 C 
ENDBRANCH   9  13
ENDBRANCH   2   7
BRANCH   1  15
ATOM     15  C   UNL d   1     -41.763-123.073 -49.983  0.00  0.00     0.300 C 
ATOM     16  O   UNL d   1     -41.125-122.983 -49.472  0.00  0.00    -0.259 OA
BRANCH  15  17
ATOM     17  O   UNL d   1     -42.519-123.197 -49.678  0.00  0.00    -0.271 OA
BRANCH  17  18
ATOM     18  C   UNL d   1     -42.636-123.213 -48.871  0.00  0.00     0.126 C 
ATOM     19  C   UNL d   1     -43.309-123.565 -48.555  0.00  0.00     0.029 C 
ENDBRANCH  17  18
ENDBRANCH  15  17
ENDBRANCH   1  15
TORSDOF 6
ENDMDL
