MODEL 1
REMARK VINA RESULT:      -2.8      0.000      0.000
REMARK  2 active torsions:
REMARK  status: ('A' for Active; 'I' for Inactive)
REMARK    1  A    between atoms: S_12  and  C_3 
REMARK    2  A    between atoms: C_14  and  S_12 
ROOT
ATOM      1  N   UNL d   1      59.021  -4.023  28.532  0.00  0.00    -0.195 NA
ATOM      2  C   UNL d   1      58.731  -3.354  28.914  0.00  0.00     0.086 C 
ATOM      3  C   UNL d   1      58.431  -2.690  29.302  0.00  0.00     0.170 C 
ENDROOT
BRANCH   3   4
ATOM      4  S   UNL d   1      58.841  -1.976  29.252  0.00  0.00    -0.060 SA
BRANCH   4   5
ATOM      5  C   UNL d   1      58.620  -1.339  29.732  0.00  0.00     0.177 A 
ATOM      6  N   UNL d   1      59.077  -0.652  29.739  0.00  0.00    -0.270 N 
ATOM      7  C   UNL d   1      58.866  -0.011  30.213  0.00  0.00     0.151 A 
ATOM      8  C   UNL d   1      59.770  -0.439  29.337  0.00  0.00     0.085 A 
ATOM      9  N   UNL d   1      59.416   0.589  30.109  0.00  0.00    -0.227 NA
ATOM     10  C   UNL d   1      58.187  -0.070  30.682  0.00  0.00     0.052 A 
ATOM     11  C   UNL d   1      59.978   0.327  29.567  0.00  0.00     0.099 A 
ATOM     12  C   UNL d   1      60.649   0.681  29.252  0.00  0.00     0.021 A 
ATOM     13  C   UNL d   1      61.111   0.270  28.708  0.00  0.00     0.002 A 
ATOM     14  C   UNL d   1      60.905  -0.494  28.478  0.00  0.00     0.002 A 
ATOM     15  C   UNL d   1      60.234  -0.846  28.794  0.00  0.00     0.019 A 
ATOM     16  C   UNL d   1      57.969   0.566  31.158  0.00  0.00     0.004 A 
ATOM     17  C   UNL d   1      57.730  -0.757  30.674  0.00  0.00     0.086 A 
ATOM     18  C   UNL d   1      57.290   0.516  31.631  0.00  0.00     0.000 A 
ATOM     19  C   UNL d   1      56.833  -0.171  31.623  0.00  0.00     0.002 A 
ATOM     20  C   UNL d   1      57.055  -0.808  31.143  0.00  0.00     0.019 A 
ATOM     21  N   UNL d   1      57.948  -1.392  30.198  0.00  0.00    -0.222 NA
ENDBRANCH   4   5
ENDBRANCH   3   4
TORSDOF 2
ENDMDL
MODEL 2
REMARK VINA RESULT:      -1.5      0.583      2.941
REMARK  2 active torsions:
REMARK  status: ('A' for Active; 'I' for Inactive)
REMARK    1  A    between atoms: S_12  and  C_3 
REMARK    2  A    between atoms: C_14  and  S_12 
ROOT
ATOM      1  N   UNL d   1      57.941  -4.278  28.754  0.00  0.00    -0.195 NA
ATOM      2  C   UNL d   1      58.298  -3.536  28.740  0.00  0.00     0.086 C 
ATOM      3  C   UNL d   1      58.661  -2.795  28.714  0.00  0.00     0.170 C 
ENDROOT
BRANCH   3   4
ATOM      4  S   UNL d   1      58.491  -2.244  29.305  0.00  0.00    -0.060 SA
BRANCH   4   5
ATOM      5  C   UNL d   1      58.932  -1.545  29.355  0.00  0.00     0.177 A 
ATOM      6  N   UNL d   1      58.707  -0.955  29.886  0.00  0.00    -0.270 N 
ATOM      7  C   UNL d   1      59.138  -0.255  29.945  0.00  0.00     0.151 A 
ATOM      8  C   UNL d   1      58.080  -0.900  30.427  0.00  0.00     0.085 A 
ATOM      9  N   UNL d   1      58.790   0.226  30.511  0.00  0.00    -0.227 NA
ATOM     10  C   UNL d   1      59.803  -0.156  29.462  0.00  0.00     0.052 A 
ATOM     11  C   UNL d   1      58.134  -0.172  30.811  0.00  0.00     0.099 A 
ATOM     12  C   UNL d   1      57.578   0.032  31.382  0.00  0.00     0.021 A 
ATOM     13  C   UNL d   1      56.971  -0.494  31.567  0.00  0.00     0.002 A 
ATOM     14  C   UNL d   1      56.918  -1.222  31.184  0.00  0.00     0.002 A 
ATOM     15  C   UNL d   1      57.474  -1.422  30.614  0.00  0.00     0.019 A 
ATOM     16  C   UNL d   1      60.241   0.540  29.515  0.00  0.00     0.004 A 
ATOM     17  C   UNL d   1      60.029  -0.747  28.932  0.00  0.00     0.086 A 
ATOM     18  C   UNL d   1      60.908   0.648  29.036  0.00  0.00     0.000 A 
ATOM     19  C   UNL d   1      61.133   0.058  28.506  0.00  0.00     0.002 A 
ATOM     20  C   UNL d   1      60.692  -0.641  28.455  0.00  0.00     0.019 A 
ATOM     21  N   UNL d   1      59.591  -1.442  28.880  0.00  0.00    -0.222 NA
ENDBRANCH   4   5
ENDBRANCH   3   4
TORSDOF 2
ENDMDL
MODEL 3
REMARK VINA RESULT:       0.0      0.985      3.316
REMARK  2 active torsions:
REMARK  status: ('A' for Active; 'I' for Inactive)
REMARK    1  A    between atoms: S_12  and  C_3 
REMARK    2  A    between atoms: C_14  and  S_12 
ROOT
ATOM      1  N   UNL d   1      56.661  -1.380  31.979  0.00  0.00    -0.195 NA
ATOM      2  C   UNL d   1      57.045  -1.124  31.297  0.00  0.00     0.086 C 
ATOM      3  C   UNL d   1      57.427  -0.856  30.616  0.00  0.00     0.170 C 
ENDROOT
BRANCH   3   4
ATOM      4  S   UNL d   1      57.835  -1.396  30.145  0.00  0.00    -0.060 SA
BRANCH   4   5
ATOM      5  C   UNL d   1      58.582  -1.200  29.847  0.00  0.00     0.177 A 
ATOM      6  N   UNL d   1      59.010  -1.756  29.412  0.00  0.00    -0.270 N 
ATOM      7  C   UNL d   1      59.754  -1.573  29.110  0.00  0.00     0.151 A 
ATOM      8  C   UNL d   1      58.843  -2.537  29.188  0.00  0.00     0.085 A 
ATOM      9  N   UNL d   1      60.046  -2.224  28.707  0.00  0.00    -0.227 NA
ATOM     10  C   UNL d   1      60.065  -0.818  29.251  0.00  0.00     0.052 A 
ATOM     11  C   UNL d   1      59.483  -2.824  28.753  0.00  0.00     0.099 A 
ATOM     12  C   UNL d   1      59.468  -3.590  28.458  0.00  0.00     0.021 A 
ATOM     13  C   UNL d   1      58.812  -4.069  28.599  0.00  0.00     0.002 A 
ATOM     14  C   UNL d   1      58.173  -3.784  29.034  0.00  0.00     0.002 A 
ATOM     15  C   UNL d   1      58.190  -3.017  29.327  0.00  0.00     0.019 A 
ATOM     16  C   UNL d   1      60.809  -0.626  28.953  0.00  0.00     0.004 A 
ATOM     17  C   UNL d   1      59.638  -0.262  29.686  0.00  0.00     0.086 A 
ATOM     18  C   UNL d   1      61.128   0.126  29.089  0.00  0.00     0.000 A 
ATOM     19  C   UNL d   1      60.701   0.682  29.524  0.00  0.00     0.002 A 
ATOM     20  C   UNL d   1      59.954   0.486  29.822  0.00  0.00     0.019 A 
ATOM     21  N   UNL d   1      58.895  -0.455  29.984  0.00  0.00    -0.222 NA
ENDBRANCH   4   5
ENDBRANCH   3   4
TORSDOF 2
ENDMDL
