MODEL 1
REMARK VINA RESULT:      63.7      0.000      0.000
REMARK  4 active torsions:
REMARK  status: ('A' for Active; 'I' for Inactive)
REMARK    1  A    between atoms: S_3  and  N_1 
REMARK    2  A    between atoms: C_7  and  C_4 
REMARK    3  A    between atoms: C_12  and  C_5 
REMARK    4  A    between atoms: O_24  and  C_21 
ROOT
ATOM      1  N   UNL d   1     -50.442  25.649  33.538  0.00  0.00    -0.155 N 
ATOM      2  N   UNL d   1     -50.133  26.402  33.538  0.00  0.00    -0.156 NA
ATOM      3  C   UNL d   1     -51.252  25.705  33.524  0.00  0.00     0.096 A 
ATOM      4  C   UNL d   1     -50.756  26.927  33.523  0.00  0.00     0.103 A 
ATOM      5  C   UNL d   1     -51.454  26.504  33.515  0.00  0.00     0.041 A 
ENDROOT
BRANCH   3   6
ATOM      6  C   UNL d   1     -51.785  25.075  33.520  0.00  0.00     0.020 A 
ATOM      7  C   UNL d   1     -52.594  25.219  33.445  0.00  0.00     0.022 A 
ATOM      8  C   UNL d   1     -53.126  24.589  33.441  0.00  0.00     0.099 A 
ATOM      9  N   UNL d   1     -53.935  24.734  33.366  0.00  0.00    -0.241 NA
ATOM     10  C   UNL d   1     -52.851  23.820  33.511  0.00  0.00     0.099 A 
ATOM     11  C   UNL d   1     -54.415  24.122  33.365  0.00  0.00     0.120 A 
ATOM     12  C   UNL d   1     -54.140  23.353  33.435  0.00  0.00     0.120 A 
ATOM     13  N   UNL d   1     -53.385  23.190  33.507  0.00  0.00    -0.241 NA
ATOM     14  C   UNL d   1     -52.043  23.676  33.586  0.00  0.00     0.021 A 
ATOM     15  C   UNL d   1     -51.511  24.305  33.590  0.00  0.00     0.003 A 
ENDBRANCH   3   6
BRANCH   1  16
ATOM     16  S   UNL d   1     -50.019  24.951  33.551  0.00  0.00     0.266 S 
ATOM     17  O   UNL d   1     -50.706  24.530  33.310  0.00  0.00    -0.203 OA
ATOM     18  O   UNL d   1     -49.582  24.232  33.564  0.00  0.00    -0.203 OA
ATOM     19  C   UNL d   1     -49.353  25.355  33.784  0.00  0.00     0.165 C 
ENDBRANCH   1  16
BRANCH   4  20
ATOM     20  C   UNL d   1     -50.700  27.738  33.518  0.00  0.00     0.020 A 
ATOM     21  C   UNL d   1     -51.332  28.202  33.317  0.00  0.00     0.004 A 
ATOM     22  C   UNL d   1     -51.283  29.039  33.309  0.00  0.00     0.024 A 
ATOM     23  C   UNL d   1     -50.564  29.397  33.514  0.00  0.00     0.094 A 
ATOM     24  C   UNL d   1     -49.921  28.909  33.718  0.00  0.00     0.024 A 
ATOM     25  C   UNL d   1     -49.983  28.102  33.722  0.00  0.00     0.004 A 
BRANCH  23  26
ATOM     26  O   UNL d   1     -50.499  30.180  33.512  0.00  0.00    -0.328 OA
ATOM     27  C   UNL d   1     -49.764  30.540  33.645  0.00  0.00     0.181 C 
ENDBRANCH  23  26
ENDBRANCH   4  20
TORSDOF 4
ENDMDL
