MODEL 1
REMARK VINA RESULT:      41.9      0.000      0.000
REMARK  6 active torsions:
REMARK  status: ('A' for Active; 'I' for Inactive)
REMARK    1  A    between atoms: C_2  and  S_1 
REMARK    2  A    between atoms: N_5  and  S_1 
REMARK    3  A    between atoms: C_14  and  N_5 
REMARK    4  A    between atoms: C_7  and  C_6 
REMARK    5  A    between atoms: C_19  and  C_14 
REMARK    6  A    between atoms: O_18  and  C_19 
ROOT
ATOM      1  C   UNL d   1     -55.114 -99.837 -44.350  0.00  0.00     0.105 A 
ATOM      2  C   UNL d   1     -55.003-100.855 -43.041  0.00  0.00     0.000 A 
ATOM      3  C   UNL d   1     -55.404-100.607 -44.400  0.00  0.00     0.013 A 
ATOM      4  C   UNL d   1     -54.768 -99.572 -43.649  0.00  0.00     0.013 A 
ATOM      5  C   UNL d   1     -54.712-100.085 -42.991  0.00  0.00     0.001 A 
ATOM      6  C   UNL d   1     -55.348-101.119 -43.742  0.00  0.00     0.001 A 
ENDROOT
BRANCH   1   7
ATOM      7  S   UNL d   1     -55.168 -99.328 -44.998  0.00  0.00     0.285 S 
ATOM      8  O   UNL d   1     -55.218 -98.826 -45.644  0.00  0.00    -0.198 OA
ATOM      9  O   UNL d   1     -54.788 -99.884 -45.472  0.00  0.00    -0.198 OA
BRANCH   7  10
ATOM     10  N   UNL d   1     -55.545 -98.772 -44.532  0.00  0.00    -0.155 NA
BRANCH  10  11
ATOM     11  C   UNL d   1     -56.292 -98.938 -44.206  0.00  0.00     0.138 C 
BRANCH  11  12
ATOM     12  C   UNL d   1     -56.963 -98.862 -44.671  0.00  0.00     0.138 C 
BRANCH  12  13
ATOM     13  O   UNL d   1     -57.713 -99.039 -44.358  0.00  0.00    -0.325 OA
ATOM     14  C   UNL d   1     -58.395 -98.870 -44.782  0.00  0.00     0.182 C 
ENDBRANCH  12  13
ENDBRANCH  11  12
ENDBRANCH  10  11
ENDBRANCH   7  10
ENDBRANCH   1   7
BRANCH   2  15
ATOM     15  C   UNL d   1     -54.946-101.353 -42.395  0.00  0.00     0.000 A 
ATOM     16  C   UNL d   1     -54.773-102.152 -42.507  0.00  0.00     0.000 A 
ATOM     17  C   UNL d   1     -54.714-102.662 -41.859  0.00  0.00     0.000 A 
ATOM     18  C   UNL d   1     -54.832-102.360 -41.088  0.00  0.00     0.000 A 
ATOM     19  C   UNL d   1     -55.005-101.561 -40.976  0.00  0.00     0.000 A 
ATOM     20  C   UNL d   1     -54.774-102.867 -40.438  0.00  0.00     0.000 C 
ATOM     21  C   UNL d   1     -55.063-101.055 -41.626  0.00  0.00     0.000 A 
ENDBRANCH   2  15
TORSDOF 6
ENDMDL
