MODEL 1
REMARK VINA RESULT:      83.0      0.000      0.000
REMARK  8 active torsions:
REMARK  status: ('A' for Active; 'I' for Inactive)
REMARK    1  A    between atoms: C_7  and  C_1 
REMARK    2  A    between atoms: C_8  and  C_2 
REMARK    3  A    between atoms: S_11  and  C_3 
REMARK    4  A    between atoms: C_10  and  C_4 
REMARK    5  A    between atoms: O_17  and  C_7 
REMARK    6  A    between atoms: C_24  and  S_11 
REMARK    7  A    between atoms: C_15  and  C_23 
REMARK    8  A    between atoms: C_23  and  O_17 
ROOT
ATOM      1  C   UNL d   1      60.737  48.758  50.759  0.00  0.00     0.081 A 
ATOM      2  C   UNL d   1      60.089  49.383  51.860  0.00  0.00     0.045 A 
ATOM      3  C   UNL d   1      60.799  49.387  52.276  0.00  0.00     0.112 A 
ATOM      4  C   UNL d   1      60.052  49.068  51.099  0.00  0.00     0.010 A 
ATOM      5  C   UNL d   1      61.447  48.762  51.175  0.00  0.00     0.087 A 
ATOM      6  N   UNL d   1      61.479  49.077  51.934  0.00  0.00    -0.239 NA
ATOM      7  C   UNL d   1      62.150  48.446  50.832  0.00  0.00     0.021 C 
ENDROOT
BRANCH   4   8
ATOM      8  C   UNL d   1      59.354  49.064  50.690  0.00  0.00     0.000 A 
ATOM      9  C   UNL d   1      58.842  48.419  50.743  0.00  0.00     0.001 A 
ATOM     10  C   UNL d   1      58.144  48.415  50.334  0.00  0.00     0.011 A 
ATOM     11  C   UNL d   1      57.934  49.055  49.859  0.00  0.00     0.058 A 
ATOM     12  C   UNL d   1      58.445  49.700  49.806  0.00  0.00     0.011 A 
ATOM     13 CL   UNL d   1      57.224  49.051  49.443  0.00  0.00    -0.082 Cl
ATOM     14  C   UNL d   1      59.144  49.704  50.215  0.00  0.00     0.001 A 
ENDBRANCH   4   8
BRANCH   2  15
ATOM     15  C   UNL d   1      59.397  49.699  52.210  0.00  0.00     0.124 C 
ATOM     16  N   UNL d   1      58.817  49.179  52.518  0.00  0.00    -0.146 N 
ENDBRANCH   2  15
BRANCH   1  17
ATOM     17  C   UNL d   1      60.706  48.437  49.987  0.00  0.00     0.302 C 
ATOM     18  O   UNL d   1      60.745  48.936  49.333  0.00  0.00    -0.259 OA
BRANCH  17  19
ATOM     19  O   UNL d   1      60.637  47.612  49.891  0.00  0.00    -0.271 OA
BRANCH  19  20
ATOM     20  C   UNL d   1      61.278  47.160  49.626  0.00  0.00     0.126 C 
BRANCH  20  21
ATOM     21  C   UNL d   1      61.153  46.414  49.305  0.00  0.00     0.027 C 
ATOM     22  C   UNL d   1      61.784  45.922  49.154  0.00  0.00     0.002 C 
ENDBRANCH  20  21
ENDBRANCH  19  20
ENDBRANCH  17  19
ENDBRANCH   1  17
BRANCH   3  23
ATOM     23  S   UNL d   1      60.841  49.708  53.055  0.00  0.00    -0.067 SA
BRANCH  23  24
ATOM     24  C   UNL d   1      61.292  49.338  53.635  0.00  0.00     0.037 C 
ATOM     25  C   UNL d   1      61.412  49.700  54.369  0.00  0.00     0.007 C 
ENDBRANCH  23  24
ENDBRANCH   3  23
TORSDOF 8
ENDMDL
