MODEL 1
REMARK VINA RESULT:      55.8      0.000      0.000
REMARK  7 active torsions:
REMARK  status: ('A' for Active; 'I' for Inactive)
REMARK    1  A    between atoms: C_9  and  N_1 
REMARK    2  A    between atoms: C_12  and  N_3 
REMARK    3  A    between atoms: N_7  and  C_11 
REMARK    4  A    between atoms: C_13  and  C_9 
REMARK    5  A    between atoms: C_21  and  C_12 
REMARK       I    between atoms: N_20  and  C_13 
REMARK    6  A    between atoms: C_23  and  N_20 
REMARK    7  A    between atoms: C_24  and  C_23 
ROOT
ATOM      1  N   UNL d   1      46.028 -18.439  41.775  0.00  0.00    -0.220 N 
ATOM      2  C   UNL d   1      46.246 -17.918  42.376  0.00  0.00     0.342 A 
ATOM      3  N   UNL d   1      46.430 -18.207  43.128  0.00  0.00    -0.258 N 
ATOM      4  C   UNL d   1      46.179 -19.539  42.676  0.00  0.00     0.102 A 
ATOM      5  C   UNL d   1      45.996 -19.251  41.926  0.00  0.00     0.276 A 
ATOM      6  C   UNL d   1      46.396 -19.017  43.277  0.00  0.00     0.079 A 
ATOM      7  S   UNL d   1      46.195 -20.302  42.984  0.00  0.00    -0.080 SA
ATOM      8  C   UNL d   1      46.545 -19.462  43.952  0.00  0.00     0.025 A 
ATOM      9  O   UNL d   1      46.280 -17.097  42.229  0.00  0.00    -0.245 OA
ATOM     10  C   UNL d   1      46.422 -20.256  43.777  0.00  0.00     0.037 A 
ATOM     11  O   UNL d   1      45.778 -19.773  41.325  0.00  0.00    -0.266 OA
ENDROOT
BRANCH   1  12
ATOM     12  C   UNL d   1      45.844 -18.145  41.021  0.00  0.00     0.150 C 
BRANCH  12  13
ATOM     13  C   UNL d   1      45.060 -17.983  40.822  0.00  0.00     0.297 C 
ATOM     14  N   UNL d   1      44.875 -17.686  40.068  0.00  0.00    -0.205 NA
ATOM     15  O   UNL d   1      44.450 -18.113  41.369  0.00  0.00    -0.264 OA
BRANCH  14  16
ATOM     16  C   UNL d   1      45.347 -17.580  39.629  0.00  0.00     0.102 C 
BRANCH  16  17
ATOM     17  C   UNL d   1      45.166 -17.138  38.944  0.00  0.00     0.019 A 
ATOM     18  C   UNL d   1      45.526 -16.397  38.841  0.00  0.00     0.002 A 
ATOM     19  C   UNL d   1      45.353 -15.946  38.161  0.00  0.00     0.000 A 
ATOM     20  C   UNL d   1      44.831 -16.240  37.607  0.00  0.00     0.000 A 
ATOM     21  C   UNL d   1      44.470 -16.981  37.710  0.00  0.00     0.000 A 
ATOM     22  C   UNL d   1      44.662 -15.781  36.926  0.00  0.00     0.000 C 
ATOM     23  C   UNL d   1      44.639 -17.431  38.381  0.00  0.00     0.002 A 
ENDBRANCH  16  17
ENDBRANCH  14  16
ENDBRANCH  12  13
ENDBRANCH   1  12
BRANCH   3  24
ATOM     24  C   UNL d   1      46.647 -17.686  43.729  0.00  0.00     0.085 C 
BRANCH  24  25
ATOM     25  C   UNL d   1      46.071 -17.254  44.128  0.00  0.00     0.019 A 
ATOM     26  C   UNL d   1      46.081 -16.429  44.101  0.00  0.00     0.025 A 
ATOM     27  C   UNL d   1      45.505 -15.996  44.500  0.00  0.00     0.127 A 
ATOM     28  C   UNL d   1      44.916 -16.388  44.927  0.00  0.00     0.024 A 
ATOM     29  C   UNL d   1      44.906 -17.213  44.954  0.00  0.00     0.002 A 
ATOM     30  C   UNL d   1      45.482 -17.645  44.556  0.00  0.00     0.002 A 
BRANCH  27  31
ATOM     31  N   UNL d   1      45.522 -15.172  44.468  0.00  0.00    -0.114 N 
ATOM     32  O   UNL d   1      46.196 -14.756  44.708  0.00  0.00    -0.532 OA
ATOM     33  O   UNL d   1      44.861 -14.756  44.193  0.00  0.00    -0.532 OA
ENDBRANCH  27  31
ENDBRANCH  24  25
ENDBRANCH   3  24
TORSDOF 7
ENDMDL
MODEL 2
REMARK VINA RESULT:      57.5      2.889      6.621
REMARK  7 active torsions:
REMARK  status: ('A' for Active; 'I' for Inactive)
REMARK    1  A    between atoms: C_9  and  N_1 
REMARK    2  A    between atoms: C_12  and  N_3 
REMARK    3  A    between atoms: N_7  and  C_11 
REMARK    4  A    between atoms: C_13  and  C_9 
REMARK    5  A    between atoms: C_21  and  C_12 
REMARK       I    between atoms: N_20  and  C_13 
REMARK    6  A    between atoms: C_23  and  N_20 
REMARK    7  A    between atoms: C_24  and  C_23 
ROOT
ATOM      1  N   UNL d   1      45.596 -16.466  38.115  0.00  0.00    -0.220 N 
ATOM      2  C   UNL d   1      44.996 -16.624  37.572  0.00  0.00     0.342 A 
ATOM      3  N   UNL d   1      44.845 -16.092  36.957  0.00  0.00    -0.258 N 
ATOM      4  C   UNL d   1      45.895 -15.248  37.431  0.00  0.00     0.102 A 
ATOM      5  C   UNL d   1      46.046 -15.777  38.043  0.00  0.00     0.276 A 
ATOM      6  C   UNL d   1      45.295 -15.405  36.888  0.00  0.00     0.079 A 
ATOM      7  S   UNL d   1      46.244 -14.532  37.224  0.00  0.00    -0.080 SA
ATOM      8  C   UNL d   1      45.276 -14.785  36.349  0.00  0.00     0.025 A 
ATOM      9  O   UNL d   1      44.538 -17.319  37.639  0.00  0.00    -0.245 OA
ATOM     10  C   UNL d   1      45.860 -14.243  36.551  0.00  0.00     0.037 A 
ATOM     11  O   UNL d   1      46.647 -15.620  38.587  0.00  0.00    -0.266 OA
ENDROOT
BRANCH   1  12
ATOM     12  C   UNL d   1      45.745 -17.003  38.731  0.00  0.00     0.150 C 
BRANCH  12  13
ATOM     13  C   UNL d   1      45.283 -16.986  39.414  0.00  0.00     0.297 C 
ATOM     14  N   UNL d   1      45.486 -17.459  40.066  0.00  0.00    -0.205 NA
ATOM     15  O   UNL d   1      44.613 -16.499  39.457  0.00  0.00    -0.264 OA
BRANCH  14  16
ATOM     16  C   UNL d   1      46.012 -17.846  40.043  0.00  0.00     0.102 C 
BRANCH  16  17
ATOM     17  C   UNL d   1      46.167 -18.351  40.690  0.00  0.00     0.019 A 
ATOM     18  C   UNL d   1      46.488 -19.102  40.543  0.00  0.00     0.002 A 
ATOM     19  C   UNL d   1      46.647 -19.614  41.180  0.00  0.00     0.000 A 
ATOM     20  C   UNL d   1      46.484 -19.370  41.942  0.00  0.00     0.000 A 
ATOM     21  C   UNL d   1      46.163 -18.618  42.091  0.00  0.00     0.000 A 
ATOM     22  C   UNL d   1      46.646 -19.891  42.579  0.00  0.00     0.000 C 
ATOM     23  C   UNL d   1      46.004 -18.108  41.462  0.00  0.00     0.002 A 
ENDBRANCH  16  17
ENDBRANCH  14  16
ENDBRANCH  12  13
ENDBRANCH   1  12
BRANCH   3  24
ATOM     24  C   UNL d   1      44.244 -16.249  36.414  0.00  0.00     0.085 C 
BRANCH  24  25
ATOM     25  C   UNL d   1      43.499 -15.916  36.516  0.00  0.00     0.019 A 
ATOM     26  C   UNL d   1      42.822 -16.377  36.412  0.00  0.00     0.025 A 
ATOM     27  C   UNL d   1      42.076 -16.044  36.514  0.00  0.00     0.127 A 
ATOM     28  C   UNL d   1      42.005 -15.247  36.720  0.00  0.00     0.024 A 
ATOM     29  C   UNL d   1      42.681 -14.786  36.824  0.00  0.00     0.002 A 
ATOM     30  C   UNL d   1      43.426 -15.119  36.722  0.00  0.00     0.002 A 
BRANCH  27  31
ATOM     31  N   UNL d   1      41.405 -16.512  36.408  0.00  0.00    -0.114 N 
ATOM     32  O   UNL d   1      40.655 -16.166  36.357  0.00  0.00    -0.532 OA
ATOM     33  O   UNL d   1      41.480 -17.334  36.353  0.00  0.00    -0.532 OA
ENDBRANCH  27  31
ENDBRANCH  24  25
ENDBRANCH   3  24
TORSDOF 7
ENDMDL
