MODEL 1
REMARK VINA RESULT:      -6.7      0.000      0.000
REMARK  0 active torsions:
REMARK  status: ('A' for Active; 'I' for Inactive)
ROOT
ATOM      1  C   UNL d   1      56.914  -0.753  31.662  0.00  0.00     0.106 A 
ATOM      2  O   UNL d   1      56.656  -1.464  31.976  0.00  0.00    -0.273 OA
ATOM      3  C   UNL d   1      56.138  -1.463  32.623  0.00  0.00     0.300 A 
ATOM      4  C   UNL d   1      56.146  -0.036  32.626  0.00  0.00     0.007 A 
ATOM      5  C   UNL d   1      56.657  -0.034  31.989  0.00  0.00     0.023 A 
ATOM      6  C   UNL d   1      55.882  -0.748  32.949  0.00  0.00     0.064 A 
ATOM      7  C   UNL d   1      57.429  -0.752  31.019  0.00  0.00     0.062 A 
ATOM      8  C   UNL d   1      56.918   0.676  31.669  0.00  0.00     0.005 A 
ATOM      9  C   UNL d   1      57.690  -0.033  30.700  0.00  0.00     0.198 A 
ATOM     10  O   UNL d   1      55.873  -2.186  32.948  0.00  0.00    -0.259 OA
ATOM     11  C   UNL d   1      57.434   0.682  31.025  0.00  0.00     0.042 A 
ATOM     12  C   UNL d   1      55.889   0.682  32.953  0.00  0.00     0.000 A 
ATOM     13  C   UNL d   1      55.369  -0.752  33.589  0.00  0.00     0.005 A 
ATOM     14  O   UNL d   1      58.210  -0.032  30.051  0.00  0.00    -0.286 OA
ATOM     15  C   UNL d   1      57.679  -1.452  30.701  0.00  0.00     0.005 C 
ATOM     16  C   UNL d   1      55.374   0.682  33.596  0.00  0.00     0.000 A 
ATOM     17  C   UNL d   1      55.105  -0.041  33.924  0.00  0.00     0.000 A 
ENDROOT
TORSDOF 0
ENDMDL
MODEL 2
REMARK VINA RESULT:      -4.5      1.318      3.434
REMARK  0 active torsions:
REMARK  status: ('A' for Active; 'I' for Inactive)
ROOT
ATOM      1  C   UNL d   1      57.330  -0.765  31.075  0.00  0.00     0.106 A 
ATOM      2  O   UNL d   1      57.553  -1.474  30.731  0.00  0.00    -0.273 OA
ATOM      3  C   UNL d   1      58.074  -1.471  30.086  0.00  0.00     0.300 A 
ATOM      4  C   UNL d   1      58.138  -0.047  30.145  0.00  0.00     0.007 A 
ATOM      5  C   UNL d   1      57.625  -0.047  30.781  0.00  0.00     0.023 A 
ATOM      6  C   UNL d   1      58.367  -0.757  29.793  0.00  0.00     0.064 A 
ATOM      7  C   UNL d   1      56.813  -0.766  31.716  0.00  0.00     0.062 A 
ATOM      8  C   UNL d   1      57.398   0.661  31.130  0.00  0.00     0.005 A 
ATOM      9  C   UNL d   1      56.587  -0.049  32.066  0.00  0.00     0.198 A 
ATOM     10  O   UNL d   1      58.304  -2.192  29.731  0.00  0.00    -0.259 OA
ATOM     11  C   UNL d   1      56.880   0.666  31.772  0.00  0.00     0.042 A 
ATOM     12  C   UNL d   1      58.432   0.670  29.851  0.00  0.00     0.000 A 
ATOM     13  C   UNL d   1      58.882  -0.758  29.154  0.00  0.00     0.005 A 
ATOM     14  O   UNL d   1      56.064  -0.050  32.713  0.00  0.00    -0.286 OA
ATOM     15  C   UNL d   1      56.526  -1.466  32.003  0.00  0.00     0.005 C 
ATOM     16  C   UNL d   1      58.950   0.673  29.210  0.00  0.00     0.000 A 
ATOM     17  C   UNL d   1      59.183  -0.048  28.851  0.00  0.00     0.000 A 
ENDROOT
TORSDOF 0
ENDMDL
MODEL 3
REMARK VINA RESULT:      -4.4      1.905      3.569
REMARK  0 active torsions:
REMARK  status: ('A' for Active; 'I' for Inactive)
ROOT
ATOM      1  C   UNL d   1      56.155   0.676  34.122  0.00  0.00     0.106 A 
ATOM      2  O   UNL d   1      56.938   0.678  34.363  0.00  0.00    -0.273 OA
ATOM      3  C   UNL d   1      57.543   0.679  33.797  0.00  0.00     0.300 A 
ATOM      4  C   UNL d   1      56.566   0.677  32.756  0.00  0.00     0.007 A 
ATOM      5  C   UNL d   1      55.968   0.675  33.313  0.00  0.00     0.023 A 
ATOM      6  C   UNL d   1      57.356   0.679  32.992  0.00  0.00     0.064 A 
ATOM      7  C   UNL d   1      55.553   0.674  34.684  0.00  0.00     0.062 A 
ATOM      8  C   UNL d   1      55.182   0.673  33.076  0.00  0.00     0.005 A 
ATOM      9  C   UNL d   1      54.761   0.672  34.440  0.00  0.00     0.198 A 
ATOM     10  O   UNL d   1      58.343   0.681  34.039  0.00  0.00    -0.259 OA
ATOM     11  C   UNL d   1      54.575   0.672  33.635  0.00  0.00     0.042 A 
ATOM     12  C   UNL d   1      56.379   0.676  31.948  0.00  0.00     0.000 A 
ATOM     13  C   UNL d   1      57.958   0.680  32.434  0.00  0.00     0.005 A 
ATOM     14  O   UNL d   1      54.152   0.671  35.007  0.00  0.00    -0.286 OA
ATOM     15  C   UNL d   1      55.735   0.675  35.472  0.00  0.00     0.005 C 
ATOM     16  C   UNL d   1      56.981   0.677  31.385  0.00  0.00     0.000 A 
ATOM     17  C   UNL d   1      57.784   0.679  31.623  0.00  0.00     0.000 A 
ENDROOT
TORSDOF 0
ENDMDL
