MODEL 1
REMARK VINA RESULT:      -2.0      0.000      0.000
REMARK  6 active torsions:
REMARK  status: ('A' for Active; 'I' for Inactive)
REMARK    1  A    between atoms: C_6  and  N_2 
REMARK    2  A    between atoms: C_7  and  C_3 
REMARK    3  A    between atoms: C_10  and  C_6 
REMARK    4  A    between atoms: C_15  and  C_7 
REMARK    5  A    between atoms: O_8  and  C_10 
REMARK    6  A    between atoms: C_9  and  O_8 
ROOT
ATOM      1  N   UNL d   1     -41.553-121.488 -53.846  0.00  0.00    -0.227 NA
ATOM      2  N   UNL d   1     -41.309-122.392 -52.892  0.00  0.00    -0.287 N 
ATOM      3  C   UNL d   1     -41.355-121.568 -53.037  0.00  0.00     0.148 A 
ATOM      4  C   UNL d   1     -41.474-122.793 -53.588  0.00  0.00     0.083 A 
ATOM      5  C   UNL d   1     -41.632-122.210 -54.203  0.00  0.00     0.099 A 
ATOM      6  C   UNL d   1     -41.504-123.591 -53.750  0.00  0.00     0.019 A 
ATOM      7  C   UNL d   1     -41.812-122.520 -54.956  0.00  0.00     0.021 A 
ATOM      8  C   UNL d   1     -41.686-123.817 -54.505  0.00  0.00     0.002 A 
ATOM      9  C   UNL d   1     -41.833-123.270 -55.082  0.00  0.00     0.002 A 
ENDROOT
BRANCH   2  10
ATOM     10  C   UNL d   1     -41.123-122.578 -52.138  0.00  0.00     0.108 C 
BRANCH  10  11
ATOM     11  C   UNL d   1     -41.531-123.144 -51.711  0.00  0.00     0.142 C 
BRANCH  11  12
ATOM     12  O   UNL d   1     -41.219-123.524 -51.059  0.00  0.00    -0.304 OA
BRANCH  12  13
ATOM     13  C   UNL d   1     -41.591-123.544 -50.324  0.00  0.00     0.100 A 
ATOM     14  C   UNL d   1     -41.194-123.446 -49.608  0.00  0.00     0.025 A 
ATOM     15  C   UNL d   1     -41.566-123.466 -48.874  0.00  0.00     0.002 A 
ATOM     16  C   UNL d   1     -42.389-123.593 -48.853  0.00  0.00     0.000 A 
ATOM     17  C   UNL d   1     -42.816-123.696 -49.567  0.00  0.00     0.002 A 
ATOM     18  C   UNL d   1     -42.414-123.671 -50.303  0.00  0.00     0.025 A 
ENDBRANCH  12  13
ENDBRANCH  11  12
ENDBRANCH  10  11
ENDBRANCH   2  10
BRANCH   3  19
ATOM     19  C   UNL d   1     -41.174-121.338 -52.285  0.00  0.00     0.037 C 
BRANCH  19  20
ATOM     20  C   UNL d   1     -41.274-120.537 -52.063  0.00  0.00     0.003 C 
ATOM     21  C   UNL d   1     -41.122-120.291 -51.281  0.00  0.00     0.000 C 
ENDBRANCH  19  20
ENDBRANCH   3  19
TORSDOF 6
ENDMDL
MODEL 2
REMARK VINA RESULT:      -0.1      1.631      4.403
REMARK  6 active torsions:
REMARK  status: ('A' for Active; 'I' for Inactive)
REMARK    1  A    between atoms: C_6  and  N_2 
REMARK    2  A    between atoms: C_7  and  C_3 
REMARK    3  A    between atoms: C_10  and  C_6 
REMARK    4  A    between atoms: C_15  and  C_7 
REMARK    5  A    between atoms: O_8  and  C_10 
REMARK    6  A    between atoms: C_9  and  O_8 
ROOT
ATOM      1  N   UNL d   1     -43.263-122.884 -49.100  0.00  0.00    -0.227 NA
ATOM      2  N   UNL d   1     -42.193-122.642 -49.866  0.00  0.00    -0.287 N 
ATOM      3  C   UNL d   1     -43.024-122.544 -49.827  0.00  0.00     0.148 A 
ATOM      4  C   UNL d   1     -41.940-123.027 -49.188  0.00  0.00     0.083 A 
ATOM      5  C   UNL d   1     -42.630-123.183 -48.694  0.00  0.00     0.099 A 
ATOM      6  C   UNL d   1     -41.195-123.254 -48.951  0.00  0.00     0.019 A 
ATOM      7  C   UNL d   1     -42.476-123.575 -47.975  0.00  0.00     0.021 A 
ATOM      8  C   UNL d   1     -41.124-123.632 -48.238  0.00  0.00     0.002 A 
ATOM      9  C   UNL d   1     -41.770-123.778 -47.775  0.00  0.00     0.002 A 
ENDROOT
BRANCH   2  10
ATOM     10  C   UNL d   1     -41.864-122.346 -50.531  0.00  0.00     0.108 C 
BRANCH  10  11
ATOM     11  C   UNL d   1     -41.676-122.816 -51.174  0.00  0.00     0.142 C 
BRANCH  11  12
ATOM     12  O   UNL d   1     -41.123-122.603 -51.736  0.00  0.00    -0.304 OA
BRANCH  12  13
ATOM     13  C   UNL d   1     -41.175-122.820 -52.530  0.00  0.00     0.100 A 
ATOM     14  C   UNL d   1     -41.185-123.602 -52.791  0.00  0.00     0.025 A 
ATOM     15  C   UNL d   1     -41.237-123.817 -53.583  0.00  0.00     0.002 A 
ATOM     16  C   UNL d   1     -41.284-123.212 -54.153  0.00  0.00     0.000 A 
ATOM     17  C   UNL d   1     -41.276-122.409 -53.914  0.00  0.00     0.002 A 
ATOM     18  C   UNL d   1     -41.222-122.214 -53.100  0.00  0.00     0.025 A 
ENDBRANCH  12  13
ENDBRANCH  11  12
ENDBRANCH  10  11
ENDBRANCH   2  10
BRANCH   3  19
ATOM     19  C   UNL d   1     -43.100-122.167 -50.537  0.00  0.00     0.037 C 
BRANCH  19  20
ATOM     20  C   UNL d   1     -43.735-121.635 -50.656  0.00  0.00     0.003 C 
ATOM     21  C   UNL d   1     -44.421-121.876 -51.064  0.00  0.00     0.000 C 
ENDBRANCH  19  20
ENDBRANCH   3  19
TORSDOF 6
ENDMDL
