MODEL 1
REMARK VINA RESULT:       6.9      0.000      0.000
REMARK  6 active torsions:
REMARK  status: ('A' for Active; 'I' for Inactive)
REMARK    1  A    between atoms: C_9  and  S_1 
REMARK    2  A    between atoms: N_10  and  S_1 
REMARK    3  A    between atoms: C_2  and  N_6 
REMARK       I    between atoms: N_6  and  C_8 
REMARK    4  A    between atoms: C_8  and  C_15 
REMARK    5  A    between atoms: O_24  and  C_13 
REMARK    6  A    between atoms: O_23  and  C_14 
ROOT
ATOM      1  N   UNL d   1      29.945  19.177 -24.983  0.00  0.00    -0.183 NA
ATOM      2  C   UNL d   1      29.142  19.059 -24.813  0.00  0.00     0.281 C 
ATOM      3  O   UNL d   1      28.587  19.597 -25.096  0.00  0.00    -0.265 OA
ENDROOT
BRANCH   1   4
ATOM      4  C   UNL d   1      30.517  18.638 -24.701  0.00  0.00     0.197 A 
ATOM      5  N   UNL d   1      30.621  17.863 -24.958  0.00  0.00    -0.218 NA
ATOM      6  C   UNL d   1      31.244  17.538 -24.530  0.00  0.00     0.114 A 
ATOM      7  C   UNL d   1      31.597  16.796 -24.542  0.00  0.00     0.112 A 
ATOM      8  C   UNL d   1      31.521  18.114 -24.012  0.00  0.00     0.074 A 
ATOM      9  C   UNL d   1      32.227  16.624 -24.038  0.00  0.00     0.028 A 
ATOM     10  C   UNL d   1      32.503  17.210 -23.516  0.00  0.00     0.027 A 
ATOM     11  C   UNL d   1      32.152  17.949 -23.504  0.00  0.00     0.102 A 
ATOM     12  S   UNL d   1      31.063  18.796 -24.124  0.00  0.00    -0.045 SA
BRANCH   7  13
ATOM     13  O   UNL d   1      31.321  16.206 -25.065  0.00  0.00    -0.327 OA
ATOM     14  C   UNL d   1      31.677  15.461 -25.072  0.00  0.00     0.181 C 
ENDBRANCH   7  13
BRANCH  11  15
ATOM     15  O   UNL d   1      32.428  18.539 -22.980  0.00  0.00    -0.328 OA
ATOM     16  C   UNL d   1      33.191  18.492 -22.676  0.00  0.00     0.181 C 
ENDBRANCH  11  15
ENDBRANCH   1   4
BRANCH   2  17
ATOM     17  C   UNL d   1      28.921  18.418 -24.371  0.00  0.00     0.058 A 
ATOM     18  C   UNL d   1      28.742  18.495 -23.575  0.00  0.00     0.005 A 
ATOM     19  C   UNL d   1      28.518  17.843 -23.127  0.00  0.00     0.013 A 
ATOM     20  C   UNL d   1      28.471  17.097 -23.484  0.00  0.00     0.104 A 
ATOM     21  C   UNL d   1      28.651  17.012 -24.287  0.00  0.00     0.013 A 
ATOM     22  C   UNL d   1      28.875  17.672 -24.728  0.00  0.00     0.005 A 
BRANCH  20  23
ATOM     23  S   UNL d   1      28.247  16.440 -23.038  0.00  0.00     0.271 S 
ATOM     24  O   UNL d   1      27.689  16.241 -23.617  0.00  0.00    -0.200 OA
ATOM     25  O   UNL d   1      28.803  16.643 -22.465  0.00  0.00    -0.200 OA
BRANCH  23  26
ATOM     26  N   UNL d   1      28.025  15.787 -22.590  0.00  0.00    -0.226 N 
ATOM     27  C   UNL d   1      28.549  15.457 -22.055  0.00  0.00     0.111 C 
ATOM     28  C   UNL d   1      27.273  15.466 -22.684  0.00  0.00     0.111 C 
ENDBRANCH  23  26
ENDBRANCH  20  23
ENDBRANCH   2  17
TORSDOF 6
ENDMDL
MODEL 2
REMARK VINA RESULT:       7.8      1.420      3.864
REMARK  6 active torsions:
REMARK  status: ('A' for Active; 'I' for Inactive)
REMARK    1  A    between atoms: C_9  and  S_1 
REMARK    2  A    between atoms: N_10  and  S_1 
REMARK    3  A    between atoms: C_2  and  N_6 
REMARK       I    between atoms: N_6  and  C_8 
REMARK    4  A    between atoms: C_8  and  C_15 
REMARK    5  A    between atoms: O_24  and  C_13 
REMARK    6  A    between atoms: O_23  and  C_14 
ROOT
ATOM      1  N   UNL d   1      29.371  18.693 -24.476  0.00  0.00    -0.183 NA
ATOM      2  C   UNL d   1      30.178  18.848 -24.591  0.00  0.00     0.281 C 
ATOM      3  O   UNL d   1      30.415  19.601 -24.821  0.00  0.00    -0.265 OA
ENDROOT
BRANCH   1   4
ATOM      4  C   UNL d   1      29.119  17.932 -24.243  0.00  0.00     0.197 A 
ATOM      5  N   UNL d   1      29.334  17.541 -23.550  0.00  0.00    -0.218 NA
ATOM      6  C   UNL d   1      28.959  16.809 -23.548  0.00  0.00     0.114 A 
ATOM      7  C   UNL d   1      28.961  16.187 -23.012  0.00  0.00     0.112 A 
ATOM      8  C   UNL d   1      28.515  16.752 -24.238  0.00  0.00     0.074 A 
ATOM      9  C   UNL d   1      28.522  15.505 -23.159  0.00  0.00     0.028 A 
ATOM     10  C   UNL d   1      28.074  15.453 -23.858  0.00  0.00     0.027 A 
ATOM     11  C   UNL d   1      28.071  16.072 -24.394  0.00  0.00     0.102 A 
ATOM     12  S   UNL d   1      28.620  17.455 -24.666  0.00  0.00    -0.045 SA
BRANCH   7  13
ATOM     13  O   UNL d   1      29.410  16.238 -22.309  0.00  0.00    -0.327 OA
ATOM     14  C   UNL d   1      29.494  15.576 -21.823  0.00  0.00     0.181 C 
ENDBRANCH   7  13
BRANCH  11  15
ATOM     15  O   UNL d   1      27.622  16.021 -25.097  0.00  0.00    -0.328 OA
ATOM     16  C   UNL d   1      26.904  15.619 -25.095  0.00  0.00     0.181 C 
ENDBRANCH  11  15
ENDBRANCH   1   4
BRANCH   2  17
ATOM     17  C   UNL d   1      30.715  18.254 -24.474  0.00  0.00     0.058 A 
ATOM     18  C   UNL d   1      30.958  17.776 -25.095  0.00  0.00     0.005 A 
ATOM     19  C   UNL d   1      31.503  17.173 -24.975  0.00  0.00     0.013 A 
ATOM     20  C   UNL d   1      31.814  17.045 -24.218  0.00  0.00     0.104 A 
ATOM     21  C   UNL d   1      31.574  17.523 -23.588  0.00  0.00     0.013 A 
ATOM     22  C   UNL d   1      31.026  18.126 -23.717  0.00  0.00     0.005 A 
BRANCH  20  23
ATOM     23  S   UNL d   1      32.362  16.440 -24.094  0.00  0.00     0.271 S 
ATOM     24  O   UNL d   1      32.846  16.968 -23.679  0.00  0.00    -0.200 OA
ATOM     25  O   UNL d   1      31.876  15.920 -24.508  0.00  0.00    -0.200 OA
BRANCH  23  26
ATOM     26  N   UNL d   1      32.906  15.835 -23.973  0.00  0.00    -0.226 N 
ATOM     27  C   UNL d   1      33.114  15.614 -23.213  0.00  0.00     0.111 C 
ATOM     28  C   UNL d   1      33.240  15.453 -24.622  0.00  0.00     0.111 C 
ENDBRANCH  23  26
ENDBRANCH  20  23
ENDBRANCH   2  17
TORSDOF 6
ENDMDL
MODEL 3
REMARK VINA RESULT:       8.2      1.379      3.541
REMARK  6 active torsions:
REMARK  status: ('A' for Active; 'I' for Inactive)
REMARK    1  A    between atoms: C_9  and  S_1 
REMARK    2  A    between atoms: N_10  and  S_1 
REMARK    3  A    between atoms: C_2  and  N_6 
REMARK       I    between atoms: N_6  and  C_8 
REMARK    4  A    between atoms: C_8  and  C_15 
REMARK    5  A    between atoms: O_24  and  C_13 
REMARK    6  A    between atoms: O_23  and  C_14 
ROOT
ATOM      1  N   UNL d   1      29.247  18.644 -24.600  0.00  0.00    -0.183 NA
ATOM      2  C   UNL d   1      30.055  18.780 -24.731  0.00  0.00     0.281 C 
ATOM      3  O   UNL d   1      30.297  19.509 -25.027  0.00  0.00    -0.265 OA
ENDROOT
BRANCH   1   4
ATOM      4  C   UNL d   1      28.990  17.908 -24.299  0.00  0.00     0.197 A 
ATOM      5  N   UNL d   1      28.548  17.345 -24.706  0.00  0.00    -0.218 NA
ATOM      6  C   UNL d   1      28.421  16.710 -24.199  0.00  0.00     0.114 A 
ATOM      7  C   UNL d   1      28.024  15.997 -24.292  0.00  0.00     0.112 A 
ATOM      8  C   UNL d   1      28.785  16.884 -23.481  0.00  0.00     0.074 A 
ATOM      9  C   UNL d   1      27.987  15.454 -23.673  0.00  0.00     0.028 A 
ATOM     10  C   UNL d   1      28.357  15.635 -22.950  0.00  0.00     0.027 A 
ATOM     11  C   UNL d   1      28.753  16.345 -22.856  0.00  0.00     0.102 A 
ATOM     12  S   UNL d   1      29.137  17.632 -23.552  0.00  0.00    -0.045 SA
BRANCH   7  13
ATOM     13  O   UNL d   1      27.652  15.813 -25.017  0.00  0.00    -0.327 OA
ATOM     14  C   UNL d   1      26.889  15.500 -25.022  0.00  0.00     0.181 C 
ENDBRANCH   7  13
BRANCH  11  15
ATOM     15  O   UNL d   1      29.125  16.529 -22.130  0.00  0.00    -0.328 OA
ATOM     16  C   UNL d   1      29.333  15.924 -21.612  0.00  0.00     0.181 C 
ENDBRANCH  11  15
ENDBRANCH   1   4
BRANCH   2  17
ATOM     17  C   UNL d   1      30.587  18.194 -24.564  0.00  0.00     0.058 A 
ATOM     18  C   UNL d   1      31.031  18.211 -23.875  0.00  0.00     0.005 A 
ATOM     19  C   UNL d   1      31.572  17.615 -23.706  0.00  0.00     0.013 A 
ATOM     20  C   UNL d   1      31.671  16.988 -24.239  0.00  0.00     0.104 A 
ATOM     21  C   UNL d   1      31.226  16.966 -24.937  0.00  0.00     0.013 A 
ATOM     22  C   UNL d   1      30.687  17.568 -25.097  0.00  0.00     0.005 A 
BRANCH  20  23
ATOM     23  S   UNL d   1      32.213  16.388 -24.073  0.00  0.00     0.271 S 
ATOM     24  O   UNL d   1      31.955  15.974 -24.742  0.00  0.00    -0.200 OA
ATOM     25  O   UNL d   1      32.466  16.805 -23.410  0.00  0.00    -0.200 OA
BRANCH  23  26
ATOM     26  N   UNL d   1      32.754  15.793 -23.905  0.00  0.00    -0.226 N 
ATOM     27  C   UNL d   1      33.194  15.453 -24.506  0.00  0.00     0.111 C 
ATOM     28  C   UNL d   1      32.852  15.540 -23.127  0.00  0.00     0.111 C 
ENDBRANCH  23  26
ENDBRANCH  20  23
ENDBRANCH   2  17
TORSDOF 6
ENDMDL
MODEL 4
REMARK VINA RESULT:       8.8      2.212      4.112
REMARK  6 active torsions:
REMARK  status: ('A' for Active; 'I' for Inactive)
REMARK    1  A    between atoms: C_9  and  S_1 
REMARK    2  A    between atoms: N_10  and  S_1 
REMARK    3  A    between atoms: C_2  and  N_6 
REMARK       I    between atoms: N_6  and  C_8 
REMARK    4  A    between atoms: C_8  and  C_15 
REMARK    5  A    between atoms: O_24  and  C_13 
REMARK    6  A    between atoms: O_23  and  C_14 
ROOT
ATOM      1  N   UNL d   1      32.045  19.569 -25.051  0.00  0.00    -0.183 NA
ATOM      2  C   UNL d   1      32.303  20.252 -24.656  0.00  0.00     0.281 C 
ATOM      3  O   UNL d   1      32.468  20.930 -25.092  0.00  0.00    -0.265 OA
ENDROOT
BRANCH   1   4
ATOM      4  C   UNL d   1      31.874  18.875 -24.619  0.00  0.00     0.197 A 
ATOM      5  N   UNL d   1      32.410  18.280 -24.426  0.00  0.00    -0.218 NA
ATOM      6  C   UNL d   1      32.005  17.705 -24.001  0.00  0.00     0.114 A 
ATOM      7  C   UNL d   1      32.242  16.993 -23.665  0.00  0.00     0.112 A 
ATOM      8  C   UNL d   1      31.221  17.947 -23.933  0.00  0.00     0.074 A 
ATOM      9  C   UNL d   1      31.701  16.520 -23.260  0.00  0.00     0.028 A 
ATOM     10  C   UNL d   1      30.910  16.770 -23.195  0.00  0.00     0.027 A 
ATOM     11  C   UNL d   1      30.673  17.479 -23.529  0.00  0.00     0.102 A 
ATOM     12  S   UNL d   1      31.148  18.677 -24.321  0.00  0.00    -0.045 SA
BRANCH   7  13
ATOM     13  O   UNL d   1      33.035  16.741 -23.729  0.00  0.00    -0.327 OA
ATOM     14  C   UNL d   1      33.241  15.969 -23.522  0.00  0.00     0.181 C 
ENDBRANCH   7  13
BRANCH  11  15
ATOM     15  O   UNL d   1      29.879  17.731 -23.464  0.00  0.00    -0.328 OA
ATOM     16  C   UNL d   1      29.372  17.659 -24.109  0.00  0.00     0.181 C 
ENDBRANCH  11  15
ENDBRANCH   1   4
BRANCH   2  17
ATOM     17  C   UNL d   1      32.387  20.235 -23.852  0.00  0.00     0.058 A 
ATOM     18  C   UNL d   1      31.748  20.374 -23.357  0.00  0.00     0.005 A 
ATOM     19  C   UNL d   1      31.834  20.357 -22.540  0.00  0.00     0.013 A 
ATOM     20  C   UNL d   1      32.577  20.198 -22.209  0.00  0.00     0.104 A 
ATOM     21  C   UNL d   1      33.226  20.058 -22.702  0.00  0.00     0.013 A 
ATOM     22  C   UNL d   1      33.130  20.077 -23.521  0.00  0.00     0.005 A 
BRANCH  20  23
ATOM     23  S   UNL d   1      32.667  20.181 -21.389  0.00  0.00     0.271 S 
ATOM     24  O   UNL d   1      32.289  20.916 -21.335  0.00  0.00    -0.200 OA
ATOM     25  O   UNL d   1      33.042  19.450 -21.450  0.00  0.00    -0.200 OA
BRANCH  23  26
ATOM     26  N   UNL d   1      32.759  20.160 -20.572  0.00  0.00    -0.226 N 
ATOM     27  C   UNL d   1      33.144  19.532 -20.216  0.00  0.00     0.111 C 
ATOM     28  C   UNL d   1      32.460  20.776 -20.114  0.00  0.00     0.111 C 
ENDBRANCH  23  26
ENDBRANCH  20  23
ENDBRANCH   2  17
TORSDOF 6
ENDMDL
