MODEL 1
REMARK VINA RESULT:      20.6      0.000      0.000
REMARK  8 active torsions:
REMARK  status: ('A' for Active; 'I' for Inactive)
REMARK    1  A    between atoms: C_2  and  C_8 
REMARK    2  A    between atoms: O_17  and  C_2 
REMARK    3  A    between atoms: C_15  and  C_3 
REMARK    4  A    between atoms: C_20  and  C_4 
REMARK    5  A    between atoms: C_5  and  C_16 
REMARK       I    between atoms: N_9  and  C_5 
REMARK    6  A    between atoms: C_14  and  N_9 
REMARK    7  A    between atoms: C_16  and  C_15 
REMARK    8  A    between atoms: C_21  and  O_17 
ROOT
ATOM      1  C   UNL d   1      45.543 -12.827  44.531  0.00  0.00     0.279 C 
ATOM      2  N   UNL d   1      45.789 -13.481  44.955  0.00  0.00    -0.208 NA
ATOM      3  O   UNL d   1      45.517 -12.080  44.895  0.00  0.00    -0.265 OA
ENDROOT
BRANCH   2   4
ATOM      4  C   UNL d   1      45.814 -14.224  44.592  0.00  0.00     0.085 A 
ATOM      5  C   UNL d   1      45.176 -14.737  44.669  0.00  0.00     0.019 A 
ATOM      6  C   UNL d   1      45.203 -15.475  44.308  0.00  0.00     0.007 A 
ATOM      7  C   UNL d   1      45.868 -15.697  43.872  0.00  0.00     0.064 A 
ATOM      8  C   UNL d   1      46.506 -15.184  43.795  0.00  0.00     0.007 A 
ATOM      9  C   UNL d   1      46.474 -14.437  44.163  0.00  0.00     0.019 A 
BRANCH   7  10
ATOM     10  C   UNL d   1      45.893 -16.443  43.508  0.00  0.00     0.300 C 
ATOM     11  O   UNL d   1      45.865 -16.499  42.688  0.00  0.00    -0.259 OA
BRANCH  10  12
ATOM     12  O   UNL d   1      45.946 -17.119  43.966  0.00  0.00    -0.271 OA
BRANCH  12  13
ATOM     13  C   UNL d   1      46.148 -17.840  43.618  0.00  0.00     0.126 C 
ATOM     14  C   UNL d   1      46.101 -18.539  44.057  0.00  0.00     0.029 C 
ENDBRANCH  12  13
ENDBRANCH  10  12
ENDBRANCH   7  10
ENDBRANCH   2   4
BRANCH   1  15
ATOM     15  C   UNL d   1      45.321 -12.906  43.740  0.00  0.00     0.065 C 
BRANCH  15  16
ATOM     16  C   UNL d   1      45.494 -12.308  43.198  0.00  0.00     0.030 C 
BRANCH  16  17
ATOM     17  C   UNL d   1      45.075 -12.256  42.493  0.00  0.00     0.100 A 
ATOM     18  O   UNL d   1      45.386 -12.345  41.725  0.00  0.00    -0.307 OA
ATOM     19  C   UNL d   1      44.776 -12.251  41.190  0.00  0.00     0.100 A 
ATOM     20  C   UNL d   1      44.081 -12.103  41.611  0.00  0.00     0.027 A 
ATOM     21  C   UNL d   1      44.271 -12.108  42.414  0.00  0.00     0.027 A 
BRANCH  19  22
ATOM     22  C   UNL d   1      44.847 -12.296  40.372  0.00  0.00     0.025 C 
ATOM     23  C   UNL d   1      44.210 -12.081  39.890  0.00  0.00     0.002 C 
ENDBRANCH  19  22
ENDBRANCH  16  17
ENDBRANCH  15  16
ENDBRANCH   1  15
TORSDOF 8
ENDMDL
MODEL 2
REMARK VINA RESULT:      22.8      2.897      5.000
REMARK  8 active torsions:
REMARK  status: ('A' for Active; 'I' for Inactive)
REMARK    1  A    between atoms: C_2  and  C_8 
REMARK    2  A    between atoms: O_17  and  C_2 
REMARK    3  A    between atoms: C_15  and  C_3 
REMARK    4  A    between atoms: C_20  and  C_4 
REMARK    5  A    between atoms: C_5  and  C_16 
REMARK       I    between atoms: N_9  and  C_5 
REMARK    6  A    between atoms: C_14  and  N_9 
REMARK    7  A    between atoms: C_16  and  C_15 
REMARK    8  A    between atoms: C_21  and  O_17 
ROOT
ATOM      1  C   UNL d   1      46.439 -18.838  44.153  0.00  0.00     0.279 C 
ATOM      2  N   UNL d   1      46.561 -19.401  43.573  0.00  0.00    -0.208 NA
ATOM      3  O   UNL d   1      46.496 -19.045  44.955  0.00  0.00    -0.265 OA
ENDROOT
BRANCH   2   4
ATOM      4  C   UNL d   1      46.504 -19.193  42.775  0.00  0.00     0.085 A 
ATOM      5  C   UNL d   1      46.409 -19.780  42.207  0.00  0.00     0.019 A 
ATOM      6  C   UNL d   1      46.353 -19.573  41.413  0.00  0.00     0.007 A 
ATOM      7  C   UNL d   1      46.392 -18.778  41.192  0.00  0.00     0.064 A 
ATOM      8  C   UNL d   1      46.487 -18.191  41.759  0.00  0.00     0.007 A 
ATOM      9  C   UNL d   1      46.544 -18.407  42.562  0.00  0.00     0.019 A 
BRANCH   7  10
ATOM     10  C   UNL d   1      46.335 -18.571  40.389  0.00  0.00     0.300 C 
ATOM     11  O   UNL d   1      46.645 -19.071  39.815  0.00  0.00    -0.259 OA
BRANCH  10  12
ATOM     12  O   UNL d   1      45.971 -17.871  40.174  0.00  0.00    -0.271 OA
BRANCH  12  13
ATOM     13  C   UNL d   1      45.251 -17.886  39.769  0.00  0.00     0.126 C 
ATOM     14  C   UNL d   1      45.113 -17.353  39.152  0.00  0.00     0.029 C 
ENDBRANCH  12  13
ENDBRANCH  10  12
ENDBRANCH   7  10
ENDBRANCH   2   4
BRANCH   1  15
ATOM     15  C   UNL d   1      46.259 -18.060  43.942  0.00  0.00     0.065 C 
BRANCH  15  16
ATOM     16  C   UNL d   1      46.547 -17.430  44.392  0.00  0.00     0.030 C 
BRANCH  16  17
ATOM     17  C   UNL d   1      46.097 -16.748  44.482  0.00  0.00     0.100 A 
ATOM     18  O   UNL d   1      46.315 -15.978  44.253  0.00  0.00    -0.307 OA
ATOM     19  C   UNL d   1      45.705 -15.471  44.446  0.00  0.00     0.100 A 
ATOM     20  C   UNL d   1      45.101 -15.913  44.795  0.00  0.00     0.027 A 
ATOM     21  C   UNL d   1      45.348 -16.700  44.815  0.00  0.00     0.027 A 
BRANCH  19  22
ATOM     22  C   UNL d   1      45.698 -14.660  44.313  0.00  0.00     0.025 C 
ATOM     23  C   UNL d   1      45.119 -14.188  44.672  0.00  0.00     0.002 C 
ENDBRANCH  19  22
ENDBRANCH  16  17
ENDBRANCH  15  16
ENDBRANCH   1  15
TORSDOF 8
ENDMDL
