MODEL 1
REMARK VINA RESULT:      -6.9      0.000      0.000
REMARK  3 active torsions:
REMARK  status: ('A' for Active; 'I' for Inactive)
REMARK    1  A    between atoms: C_14  and  C_4 
REMARK    2  A    between atoms: C_5  and  S_10 
REMARK    3  A    between atoms: S_10  and  C_14 
ROOT
ATOM      1  N   UNL d   1      52.761  31.753  52.864  0.00  0.00    -0.226 NA
ATOM      2  N   UNL d   1      53.440  30.919  53.701  0.00  0.00    -0.288 N 
ATOM      3  C   UNL d   1      52.901  30.945  53.077  0.00  0.00     0.148 A 
ATOM      4  C   UNL d   1      53.234  32.193  53.383  0.00  0.00     0.107 A 
ATOM      5  C   UNL d   1      53.646  31.710  53.889  0.00  0.00     0.101 A 
ATOM      6  C   UNL d   1      53.668  30.190  54.011  0.00  0.00     0.082 A 
ATOM      7  C   UNL d   1      52.582  30.242  52.752  0.00  0.00     0.037 A 
ATOM      8  C   UNL d   1      53.349  29.486  53.686  0.00  0.00     0.019 A 
ATOM      9  C   UNL d   1      52.827  29.511  53.082  0.00  0.00     0.005 A 
ENDROOT
BRANCH   4  10
ATOM     10  C   UNL d   1      53.277  33.012  53.380  0.00  0.00     0.058 C 
BRANCH  10  11
ATOM     11  S   UNL d   1      53.158  33.432  54.061  0.00  0.00    -0.059 SA
BRANCH  11  12
ATOM     12  C   UNL d   1      53.074  34.282  54.038  0.00  0.00     0.141 A 
ATOM     13  N   UNL d   1      52.888  34.801  53.422  0.00  0.00    -0.230 NA
ATOM     14  C   UNL d   1      52.898  35.550  53.774  0.00  0.00     0.107 A 
ATOM     15  C   UNL d   1      53.076  35.499  54.543  0.00  0.00     0.058 A 
ATOM     16  S   UNL d   1      53.186  34.724  54.714  0.00  0.00    -0.059 SA
ENDBRANCH  11  12
ENDBRANCH  10  11
ENDBRANCH   4  10
TORSDOF 3
ENDMDL
MODEL 2
REMARK VINA RESULT:      -6.8      1.240      4.190
REMARK  3 active torsions:
REMARK  status: ('A' for Active; 'I' for Inactive)
REMARK    1  A    between atoms: C_14  and  C_4 
REMARK    2  A    between atoms: C_5  and  S_10 
REMARK    3  A    between atoms: S_10  and  C_14 
ROOT
ATOM      1  N   UNL d   1      53.160  33.302  53.381  0.00  0.00    -0.226 NA
ATOM      2  N   UNL d   1      53.401  34.043  54.498  0.00  0.00    -0.288 N 
ATOM      3  C   UNL d   1      53.100  34.071  53.731  0.00  0.00     0.148 A 
ATOM      4  C   UNL d   1      53.504  32.829  53.968  0.00  0.00     0.107 A 
ATOM      5  C   UNL d   1      53.655  33.256  54.641  0.00  0.00     0.101 A 
ATOM      6  C   UNL d   1      53.405  34.728  54.958  0.00  0.00     0.082 A 
ATOM      7  C   UNL d   1      52.797  34.783  53.411  0.00  0.00     0.037 A 
ATOM      8  C   UNL d   1      53.102  35.441  54.638  0.00  0.00     0.019 A 
ATOM      9  C   UNL d   1      52.810  35.467  53.895  0.00  0.00     0.005 A 
ENDROOT
BRANCH   4  10
ATOM     10  C   UNL d   1      53.670  32.032  53.874  0.00  0.00     0.058 C 
BRANCH  10  11
ATOM     11  S   UNL d   1      53.207  31.569  53.398  0.00  0.00    -0.059 SA
BRANCH  11  12
ATOM     12  C   UNL d   1      53.201  30.719  53.492  0.00  0.00     0.141 A 
ATOM     13  N   UNL d   1      53.621  30.217  53.996  0.00  0.00    -0.230 NA
ATOM     14  C   UNL d   1      53.353  29.459  53.802  0.00  0.00     0.107 A 
ATOM     15  C   UNL d   1      52.811  29.489  53.227  0.00  0.00     0.058 A 
ATOM     16  S   UNL d   1      52.711  30.259  53.029  0.00  0.00    -0.059 SA
ENDBRANCH  11  12
ENDBRANCH  10  11
ENDBRANCH   4  10
TORSDOF 3
ENDMDL
MODEL 3
REMARK VINA RESULT:      -6.5      2.349      3.288
REMARK  3 active torsions:
REMARK  status: ('A' for Active; 'I' for Inactive)
REMARK    1  A    between atoms: C_14  and  C_4 
REMARK    2  A    between atoms: C_5  and  S_10 
REMARK    3  A    between atoms: S_10  and  C_14 
ROOT
ATOM      1  N   UNL d   1      52.788  33.115  53.483  0.00  0.00    -0.226 NA
ATOM      2  N   UNL d   1      53.455  33.974  54.304  0.00  0.00    -0.288 N 
ATOM      3  C   UNL d   1      53.392  33.185  54.073  0.00  0.00     0.148 A 
ATOM      4  C   UNL d   1      52.503  33.887  53.382  0.00  0.00     0.107 A 
ATOM      5  C   UNL d   1      52.891  34.412  53.864  0.00  0.00     0.101 A 
ATOM      6  C   UNL d   1      54.010  34.186  54.877  0.00  0.00     0.082 A 
ATOM      7  C   UNL d   1      53.883  32.595  54.410  0.00  0.00     0.037 A 
ATOM      8  C   UNL d   1      54.500  33.596  55.214  0.00  0.00     0.019 A 
ATOM      9  C   UNL d   1      54.439  32.832  54.990  0.00  0.00     0.005 A 
ENDROOT
BRANCH   4  10
ATOM     10  C   UNL d   1      51.905  34.089  52.858  0.00  0.00     0.058 C 
BRANCH  10  11
ATOM     11  S   UNL d   1      51.129  34.046  53.084  0.00  0.00    -0.059 SA
BRANCH  11  12
ATOM     12  C   UNL d   1      50.505  34.238  52.532  0.00  0.00     0.141 A 
ATOM     13  N   UNL d   1      50.450  34.153  51.711  0.00  0.00    -0.230 NA
ATOM     14  C   UNL d   1      49.699  34.447  51.524  0.00  0.00     0.107 A 
ATOM     15  C   UNL d   1      49.321  34.693  52.174  0.00  0.00     0.058 A 
ATOM     16  S   UNL d   1      49.809  34.568  52.799  0.00  0.00    -0.059 SA
ENDBRANCH  11  12
ENDBRANCH  10  11
ENDBRANCH   4  10
TORSDOF 3
ENDMDL
MODEL 4
REMARK VINA RESULT:      -6.2      2.667      3.683
REMARK  3 active torsions:
REMARK  status: ('A' for Active; 'I' for Inactive)
REMARK    1  A    between atoms: C_14  and  C_4 
REMARK    2  A    between atoms: C_5  and  S_10 
REMARK    3  A    between atoms: S_10  and  C_14 
ROOT
ATOM      1  N   UNL d   1      52.055  34.172  52.516  0.00  0.00    -0.226 NA
ATOM      2  N   UNL d   1      50.820  34.490  52.996  0.00  0.00    -0.288 N 
ATOM      3  C   UNL d   1      51.234  34.256  52.322  0.00  0.00     0.148 A 
ATOM      4  C   UNL d   1      52.102  34.363  53.321  0.00  0.00     0.107 A 
ATOM      5  C   UNL d   1      51.374  34.556  53.623  0.00  0.00     0.101 A 
ATOM      6  C   UNL d   1      50.005  34.611  52.950  0.00  0.00     0.082 A 
ATOM      7  C   UNL d   1      50.841  34.139  51.592  0.00  0.00     0.037 A 
ATOM      8  C   UNL d   1      49.612  34.494  52.220  0.00  0.00     0.019 A 
ATOM      9  C   UNL d   1      50.013  34.267  51.567  0.00  0.00     0.005 A 
ENDROOT
BRANCH   4  10
ATOM     10  C   UNL d   1      52.799  34.357  53.752  0.00  0.00     0.058 C 
BRANCH  10  11
ATOM     11  S   UNL d   1      53.039  33.687  54.137  0.00  0.00    -0.059 SA
BRANCH  11  12
ATOM     12  C   UNL d   1      53.767  33.680  54.585  0.00  0.00     0.141 A 
ATOM     13  N   UNL d   1      54.278  34.287  54.815  0.00  0.00    -0.230 NA
ATOM     14  C   UNL d   1      54.878  33.902  55.236  0.00  0.00     0.107 A 
ATOM     15  C   UNL d   1      54.750  33.122  55.263  0.00  0.00     0.058 A 
ATOM     16  S   UNL d   1      54.069  32.976  54.865  0.00  0.00    -0.059 SA
ENDBRANCH  11  12
ENDBRANCH  10  11
ENDBRANCH   4  10
TORSDOF 3
ENDMDL
MODEL 5
REMARK VINA RESULT:      -5.6      1.369      4.212
REMARK  3 active torsions:
REMARK  status: ('A' for Active; 'I' for Inactive)
REMARK    1  A    between atoms: C_14  and  C_4 
REMARK    2  A    between atoms: C_5  and  S_10 
REMARK    3  A    between atoms: S_10  and  C_14 
ROOT
ATOM      1  N   UNL d   1      53.403  33.131  53.641  0.00  0.00    -0.226 NA
ATOM      2  N   UNL d   1      52.214  33.724  53.337  0.00  0.00    -0.288 N 
ATOM      3  C   UNL d   1      52.967  33.858  53.645  0.00  0.00     0.148 A 
ATOM      4  C   UNL d   1      52.879  32.574  53.322  0.00  0.00     0.107 A 
ATOM      5  C   UNL d   1      52.165  32.912  53.134  0.00  0.00     0.101 A 
ATOM      6  C   UNL d   1      51.681  34.351  53.282  0.00  0.00     0.082 A 
ATOM      7  C   UNL d   1      53.199  34.621  53.904  0.00  0.00     0.037 A 
ATOM      8  C   UNL d   1      51.913  35.114  53.540  0.00  0.00     0.019 A 
ATOM      9  C   UNL d   1      52.642  35.243  53.839  0.00  0.00     0.005 A 
ENDROOT
BRANCH   4  10
ATOM     10  C   UNL d   1      53.065  31.783  53.211  0.00  0.00     0.058 C 
BRANCH  10  11
ATOM     11  S   UNL d   1      53.149  31.288  53.846  0.00  0.00    -0.059 SA
BRANCH  11  12
ATOM     12  C   UNL d   1      53.169  30.441  53.736  0.00  0.00     0.141 A 
ATOM     13  N   UNL d   1      53.033  29.968  53.071  0.00  0.00    -0.230 NA
ATOM     14  C   UNL d   1      53.141  29.194  53.344  0.00  0.00     0.107 A 
ATOM     15  C   UNL d   1      53.329  29.188  54.112  0.00  0.00     0.058 A 
ATOM     16  S   UNL d   1      53.348  29.950  54.362  0.00  0.00    -0.059 SA
ENDBRANCH  11  12
ENDBRANCH  10  11
ENDBRANCH   4  10
TORSDOF 3
ENDMDL
MODEL 6
REMARK VINA RESULT:      -5.1      3.238      4.015
REMARK  3 active torsions:
REMARK  status: ('A' for Active; 'I' for Inactive)
REMARK    1  A    between atoms: C_14  and  C_4 
REMARK    2  A    between atoms: C_5  and  S_10 
REMARK    3  A    between atoms: S_10  and  C_14 
ROOT
ATOM      1  N   UNL d   1      51.594  34.524  53.092  0.00  0.00    -0.226 NA
ATOM      2  N   UNL d   1      51.947  33.210  53.166  0.00  0.00    -0.288 N 
ATOM      3  C   UNL d   1      52.232  33.982  53.224  0.00  0.00     0.148 A 
ATOM      4  C   UNL d   1      50.933  34.043  52.957  0.00  0.00     0.107 A 
ATOM      5  C   UNL d   1      51.127  33.256  52.998  0.00  0.00     0.101 A 
ATOM      6  C   UNL d   1      52.466  32.577  53.274  0.00  0.00     0.082 A 
ATOM      7  C   UNL d   1      53.039  34.134  53.389  0.00  0.00     0.037 A 
ATOM      8  C   UNL d   1      53.273  32.729  53.439  0.00  0.00     0.019 A 
ATOM      9  C   UNL d   1      53.549  33.477  53.494  0.00  0.00     0.005 A 
ENDROOT
BRANCH   4  10
ATOM     10  C   UNL d   1      50.181  34.331  52.803  0.00  0.00     0.058 C 
BRANCH  10  11
ATOM     11  S   UNL d   1      49.936  34.453  52.041  0.00  0.00    -0.059 SA
BRANCH  11  12
ATOM     12  C   UNL d   1      49.166  34.788  51.881  0.00  0.00     0.141 A 
ATOM     13  N   UNL d   1      48.671  35.271  52.333  0.00  0.00    -0.230 NA
ATOM     14  C   UNL d   1      48.008  35.393  51.852  0.00  0.00     0.107 A 
ATOM     15  C   UNL d   1      48.087  35.017  51.161  0.00  0.00     0.058 A 
ATOM     16  S   UNL d   1      48.796  34.642  51.170  0.00  0.00    -0.059 SA
ENDBRANCH  11  12
ENDBRANCH  10  11
ENDBRANCH   4  10
TORSDOF 3
ENDMDL
MODEL 7
REMARK VINA RESULT:      -4.9      9.801     10.828
REMARK  3 active torsions:
REMARK  status: ('A' for Active; 'I' for Inactive)
REMARK    1  A    between atoms: C_14  and  C_4 
REMARK    2  A    between atoms: C_5  and  S_10 
REMARK    3  A    between atoms: S_10  and  C_14 
ROOT
ATOM      1  N   UNL d   1      45.268  28.560  58.030  0.00  0.00    -0.226 NA
ATOM      2  N   UNL d   1      44.849  29.736  57.484  0.00  0.00    -0.288 N 
ATOM      3  C   UNL d   1      45.148  29.387  58.169  0.00  0.00     0.148 A 
ATOM      4  C   UNL d   1      45.031  28.442  57.245  0.00  0.00     0.107 A 
ATOM      5  C   UNL d   1      44.778  29.134  56.904  0.00  0.00     0.101 A 
ATOM      6  C   UNL d   1      44.684  30.544  57.478  0.00  0.00     0.082 A 
ATOM      7  C   UNL d   1      45.286  29.841  58.860  0.00  0.00     0.037 A 
ATOM      8  C   UNL d   1      44.822  30.998  58.169  0.00  0.00     0.019 A 
ATOM      9  C   UNL d   1      45.111  30.660  58.833  0.00  0.00     0.005 A 
ENDROOT
BRANCH   4  10
ATOM     10  C   UNL d   1      45.052  27.715  56.866  0.00  0.00     0.058 C 
BRANCH  10  11
ATOM     11  S   UNL d   1      44.866  27.037  57.266  0.00  0.00    -0.059 SA
BRANCH  11  12
ATOM     12  C   UNL d   1      44.818  26.289  56.855  0.00  0.00     0.141 A 
ATOM     13  N   UNL d   1      45.158  26.025  56.150  0.00  0.00    -0.230 NA
ATOM     14  C   UNL d   1      44.886  25.247  56.068  0.00  0.00     0.107 A 
ATOM     15  C   UNL d   1      44.418  25.047  56.673  0.00  0.00     0.058 A 
ATOM     16  S   UNL d   1      44.369  25.681  57.162  0.00  0.00    -0.059 SA
ENDBRANCH  11  12
ENDBRANCH  10  11
ENDBRANCH   4  10
TORSDOF 3
ENDMDL
MODEL 8
REMARK VINA RESULT:      -4.7     10.426     10.602
REMARK  3 active torsions:
REMARK  status: ('A' for Active; 'I' for Inactive)
REMARK    1  A    between atoms: C_14  and  C_4 
REMARK    2  A    between atoms: C_5  and  S_10 
REMARK    3  A    between atoms: S_10  and  C_14 
ROOT
ATOM      1  N   UNL d   1      44.460  31.022  58.208  0.00  0.00    -0.226 NA
ATOM      2  N   UNL d   1      44.715  29.716  57.915  0.00  0.00    -0.288 N 
ATOM      3  C   UNL d   1      44.597  30.463  57.586  0.00  0.00     0.148 A 
ATOM      4  C   UNL d   1      44.502  30.576  58.905  0.00  0.00     0.107 A 
ATOM      5  C   UNL d   1      44.653  29.795  58.748  0.00  0.00     0.101 A 
ATOM      6  C   UNL d   1      44.860  29.072  57.420  0.00  0.00     0.082 A 
ATOM      7  C   UNL d   1      44.623  30.579  56.757  0.00  0.00     0.037 A 
ATOM      8  C   UNL d   1      44.886  29.188  56.591  0.00  0.00     0.019 A 
ATOM      9  C   UNL d   1      44.772  29.912  56.272  0.00  0.00     0.005 A 
ENDROOT
BRANCH   4  10
ATOM     10  C   UNL d   1      44.402  30.891  59.655  0.00  0.00     0.058 C 
BRANCH  10  11
ATOM     11  S   UNL d   1      44.792  30.574  60.289  0.00  0.00    -0.059 SA
BRANCH  11  12
ATOM     12  C   UNL d   1      44.648  30.868  61.079  0.00  0.00     0.141 A 
ATOM     13  N   UNL d   1      44.483  31.627  61.363  0.00  0.00    -0.230 NA
ATOM     14  C   UNL d   1      44.405  31.528  62.181  0.00  0.00     0.107 A 
ATOM     15  C   UNL d   1      44.512  30.772  62.386  0.00  0.00     0.058 A 
ATOM     16  S   UNL d   1      44.662  30.359  61.716  0.00  0.00    -0.059 SA
ENDBRANCH  11  12
ENDBRANCH  10  11
ENDBRANCH   4  10
TORSDOF 3
ENDMDL
MODEL 9
REMARK VINA RESULT:      -4.6     10.694     11.360
REMARK  3 active torsions:
REMARK  status: ('A' for Active; 'I' for Inactive)
REMARK    1  A    between atoms: C_14  and  C_4 
REMARK    2  A    between atoms: C_5  and  S_10 
REMARK    3  A    between atoms: S_10  and  C_14 
ROOT
ATOM      1  N   UNL d   1      44.398  29.039  60.290  0.00  0.00    -0.226 NA
ATOM      2  N   UNL d   1      44.608  30.362  60.540  0.00  0.00    -0.288 N 
ATOM      3  C   UNL d   1      44.431  29.636  60.890  0.00  0.00     0.148 A 
ATOM      4  C   UNL d   1      44.562  29.441  59.584  0.00  0.00     0.107 A 
ATOM      5  C   UNL d   1      44.690  30.231  59.716  0.00  0.00     0.101 A 
ATOM      6  C   UNL d   1      44.672  31.035  61.012  0.00  0.00     0.082 A 
ATOM      7  C   UNL d   1      44.314  29.572  61.717  0.00  0.00     0.037 A 
ATOM      8  C   UNL d   1      44.554  30.971  61.840  0.00  0.00     0.019 A 
ATOM      9  C   UNL d   1      44.383  30.268  62.178  0.00  0.00     0.005 A 
ENDROOT
BRANCH   4  10
ATOM     10  C   UNL d   1      44.590  29.079  58.849  0.00  0.00     0.058 C 
BRANCH  10  11
ATOM     11  S   UNL d   1      45.089  28.457  58.715  0.00  0.00    -0.059 SA
BRANCH  11  12
ATOM     12  C   UNL d   1      45.146  28.105  57.938  0.00  0.00     0.141 A 
ATOM     13  N   UNL d   1      44.941  28.387  57.189  0.00  0.00    -0.230 NA
ATOM     14  C   UNL d   1      45.139  27.769  56.674  0.00  0.00     0.107 A 
ATOM     15  C   UNL d   1      45.440  27.156  57.072  0.00  0.00     0.058 A 
ATOM     16  S   UNL d   1      45.448  27.352  57.850  0.00  0.00    -0.059 SA
ENDBRANCH  11  12
ENDBRANCH  10  11
ENDBRANCH   4  10
TORSDOF 3
ENDMDL
