MODEL 1
REMARK VINA RESULT:      95.9      0.000      0.000
REMARK  3 active torsions:
REMARK  status: ('A' for Active; 'I' for Inactive)
REMARK    1  A    between atoms: N_10  and  C_7 
REMARK       I    between atoms: C_9  and  N_10 
REMARK    2  A    between atoms: C_12  and  C_9 
REMARK    3  A    between atoms: O_20  and  C_17 
ROOT
ATOM      1  C   UNL d   1      59.684  49.045  51.613  0.00  0.00     0.081 A 
ATOM      2  C   UNL d   1      59.189  49.480  52.099  0.00  0.00     0.301 A 
ATOM      3  C   UNL d   1      59.453  48.820  50.856  0.00  0.00     0.090 A 
ATOM      4  O   UNL d   1      58.436  49.700  51.820  0.00  0.00    -0.273 OA
ATOM      5  N   UNL d   1      59.961  48.380  50.374  0.00  0.00    -0.226 NA
ATOM      6  C   UNL d   1      58.705  49.040  50.583  0.00  0.00     0.041 A 
ATOM      7  C   UNL d   1      60.711  48.165  50.661  0.00  0.00     0.166 A 
ATOM      8  C   UNL d   1      60.434  48.826  51.894  0.00  0.00     0.010 A 
ATOM      9  C   UNL d   1      58.194  49.481  51.062  0.00  0.00     0.105 A 
ATOM     10  C   UNL d   1      60.948  48.386  51.418  0.00  0.00     0.039 A 
ATOM     11  O   UNL d   1      59.426  49.704  52.861  0.00  0.00    -0.259 OA
ATOM     12  C   UNL d   1      58.466  48.818  49.823  0.00  0.00     0.004 A 
ATOM     13  C   UNL d   1      60.663  49.053  52.653  0.00  0.00     0.000 C 
ATOM     14  C   UNL d   1      57.455  49.698  50.793  0.00  0.00     0.025 A 
ATOM     15  C   UNL d   1      57.719  49.040  49.555  0.00  0.00     0.000 A 
ATOM     16  C   UNL d   1      57.214  49.481  50.041  0.00  0.00     0.002 A 
ENDROOT
BRANCH   7  17
ATOM     17  N   UNL d   1      61.228  47.720  50.177  0.00  0.00    -0.189 NA
ATOM     18  C   UNL d   1      61.255  46.900  50.254  0.00  0.00     0.281 C 
ATOM     19  O   UNL d   1      60.770  46.519  50.812  0.00  0.00    -0.265 OA
BRANCH  18  20
ATOM     20  C   UNL d   1      61.756  46.464  49.785  0.00  0.00     0.060 A 
ATOM     21  C   UNL d   1      61.563  45.710  49.581  0.00  0.00     0.029 A 
ATOM     22  C   UNL d   1      62.075  45.264  49.101  0.00  0.00     0.094 A 
ATOM     23  C   UNL d   1      62.775  45.581  48.832  0.00  0.00     0.024 A 
ATOM     24  C   UNL d   1      62.970  46.365  49.047  0.00  0.00     0.002 A 
ATOM     25  C   UNL d   1      62.463  46.801  49.520  0.00  0.00     0.005 A 
BRANCH  22  26
ATOM     26  O   UNL d   1      61.872  44.486  48.893  0.00  0.00    -0.328 OA
ATOM     27  C   UNL d   1      61.064  44.262  48.850  0.00  0.00     0.181 C 
ENDBRANCH  22  26
ENDBRANCH  18  20
ENDBRANCH   7  17
TORSDOF 3
ENDMDL
MODEL 2
REMARK VINA RESULT:      95.9      2.614      4.119
REMARK  3 active torsions:
REMARK  status: ('A' for Active; 'I' for Inactive)
REMARK    1  A    between atoms: N_10  and  C_7 
REMARK       I    between atoms: C_9  and  N_10 
REMARK    2  A    between atoms: C_12  and  C_9 
REMARK    3  A    between atoms: O_20  and  C_17 
ROOT
ATOM      1  C   UNL d   1      59.170  49.665  54.937  0.00  0.00     0.081 A 
ATOM      2  C   UNL d   1      59.079  49.657  55.751  0.00  0.00     0.301 A 
ATOM      3  C   UNL d   1      58.520  49.653  54.432  0.00  0.00     0.090 A 
ATOM      4  O   UNL d   1      58.312  49.636  56.073  0.00  0.00    -0.273 OA
ATOM      5  N   UNL d   1      58.624  49.661  53.612  0.00  0.00    -0.226 NA
ATOM      6  C   UNL d   1      57.761  49.632  54.756  0.00  0.00     0.041 A 
ATOM      7  C   UNL d   1      59.394  49.682  53.298  0.00  0.00     0.166 A 
ATOM      8  C   UNL d   1      59.936  49.686  54.617  0.00  0.00     0.010 A 
ATOM      9  C   UNL d   1      57.653  49.623  55.577  0.00  0.00     0.105 A 
ATOM     10  C   UNL d   1      60.048  49.694  53.797  0.00  0.00     0.039 A 
ATOM     11  O   UNL d   1      59.737  49.669  56.255  0.00  0.00    -0.259 OA
ATOM     12  C   UNL d   1      57.102  49.619  54.256  0.00  0.00     0.004 A 
ATOM     13  C   UNL d   1      60.585  49.698  55.125  0.00  0.00     0.000 C 
ATOM     14  C   UNL d   1      56.903  49.603  55.898  0.00  0.00     0.025 A 
ATOM     15  C   UNL d   1      56.347  49.599  54.584  0.00  0.00     0.000 A 
ATOM     16  C   UNL d   1      56.248  49.590  55.406  0.00  0.00     0.002 A 
ENDROOT
BRANCH   7  17
ATOM     17  N   UNL d   1      59.503  49.691  52.469  0.00  0.00    -0.189 NA
ATOM     18  C   UNL d   1      59.998  49.136  52.117  0.00  0.00     0.281 C 
ATOM     19  O   UNL d   1      60.388  48.569  52.585  0.00  0.00    -0.265 OA
BRANCH  18  20
ATOM     20  C   UNL d   1      60.106  49.141  51.310  0.00  0.00     0.060 A 
ATOM     21  C   UNL d   1      59.504  49.358  50.823  0.00  0.00     0.029 A 
ATOM     22  C   UNL d   1      59.615  49.363  50.000  0.00  0.00     0.094 A 
ATOM     23  C   UNL d   1      60.330  49.150  49.674  0.00  0.00     0.024 A 
ATOM     24  C   UNL d   1      60.953  48.925  50.185  0.00  0.00     0.002 A 
ATOM     25  C   UNL d   1      60.840  48.922  50.996  0.00  0.00     0.005 A 
BRANCH  22  26
ATOM     26  O   UNL d   1      58.989  49.588  49.501  0.00  0.00    -0.328 OA
ATOM     27  C   UNL d   1      58.197  49.442  49.733  0.00  0.00     0.181 C 
ENDBRANCH  22  26
ENDBRANCH  18  20
ENDBRANCH   7  17
TORSDOF 3
ENDMDL
