MODEL 1
REMARK VINA RESULT:     126.1      0.000      0.000
REMARK  9 active torsions:
REMARK  status: ('A' for Active; 'I' for Inactive)
REMARK    1  A    between atoms: C_2  and  C_1 
REMARK    2  A    between atoms: C_3  and  C_1 
REMARK    3  A    between atoms: C_12  and  C_1 
REMARK    4  A    between atoms: C_13  and  N_4 
REMARK    5  A    between atoms: C_14  and  N_5 
REMARK    6  A    between atoms: C_17  and  C_12 
REMARK    7  A    between atoms: N_16  and  C_15 
REMARK    8  A    between atoms: C_32  and  N_16 
REMARK    9  A    between atoms: C_33  and  N_16 
ROOT
ATOM      1  C   UNL d   1      60.554  47.727  50.919  0.00  0.00     0.075 C 
ENDROOT
BRANCH   1   2
ATOM      2  C   UNL d   1      60.864  47.228  51.498  0.00  0.00     0.191 A 
ATOM      3  N   UNL d   1      60.974  46.423  51.429  0.00  0.00    -0.192 N 
ATOM      4  N   UNL d   1      61.294  46.148  52.133  0.00  0.00    -0.039 NA
ATOM      5  N   UNL d   1      61.381  46.787  52.634  0.00  0.00    -0.022 NA
ATOM      6  N   UNL d   1      61.119  47.448  52.250  0.00  0.00    -0.108 NA
BRANCH   3   7
ATOM      7  C   UNL d   1      60.809  45.930  50.790  0.00  0.00     0.086 A 
ATOM      8  C   UNL d   1      60.546  45.164  50.901  0.00  0.00     0.019 A 
ATOM      9  C   UNL d   1      60.383  44.677  50.257  0.00  0.00     0.002 A 
ATOM     10  C   UNL d   1      60.483  44.955  49.502  0.00  0.00     0.000 A 
ATOM     11  C   UNL d   1      60.748  45.726  49.371  0.00  0.00     0.002 A 
ATOM     12  C   UNL d   1      60.318  44.460  48.847  0.00  0.00     0.000 C 
ATOM     13  C   UNL d   1      60.911  46.213  50.016  0.00  0.00     0.019 A 
ENDBRANCH   3   7
ENDBRANCH   1   2
BRANCH   1  14
ATOM     14  C   UNL d   1      61.032  48.308  50.597  0.00  0.00     0.191 A 
ATOM     15  N   UNL d   1      61.169  48.992  51.016  0.00  0.00    -0.192 N 
ATOM     16  N   UNL d   1      61.659  49.467  50.567  0.00  0.00    -0.039 NA
ATOM     17  N   UNL d   1      61.829  49.087  49.876  0.00  0.00    -0.022 NA
ATOM     18  N   UNL d   1      61.439  48.363  49.891  0.00  0.00    -0.108 NA
BRANCH  15  19
ATOM     19  C   UNL d   1      60.869  49.168  51.750  0.00  0.00     0.086 A 
ATOM     20  C   UNL d   1      61.320  49.040  52.424  0.00  0.00     0.019 A 
ATOM     21  C   UNL d   1      61.028  49.214  53.168  0.00  0.00     0.002 A 
ATOM     22  C   UNL d   1      60.261  49.524  53.232  0.00  0.00     0.000 A 
ATOM     23  C   UNL d   1      59.806  49.655  52.564  0.00  0.00     0.002 A 
ATOM     24  C   UNL d   1      59.952  49.706  53.992  0.00  0.00     0.000 C 
ATOM     25  C   UNL d   1      60.110  49.476  51.820  0.00  0.00     0.019 A 
ENDBRANCH  15  19
ENDBRANCH   1  14
BRANCH   1  26
ATOM     26  C   UNL d   1      59.650  47.751  50.519  0.00  0.00     0.006 C 
BRANCH  26  27
ATOM     27  C   UNL d   1      58.884  48.078  50.595  0.00  0.00     0.000 A 
ATOM     28  C   UNL d   1      58.297  48.028  51.248  0.00  0.00     0.002 A 
ATOM     29  C   UNL d   1      57.517  48.435  51.177  0.00  0.00     0.018 A 
ATOM     30  C   UNL d   1      57.318  48.897  50.447  0.00  0.00     0.064 A 
ATOM     31  C   UNL d   1      57.914  48.946  49.786  0.00  0.00     0.018 A 
ATOM     32  C   UNL d   1      58.687  48.543  49.857  0.00  0.00     0.002 A 
BRANCH  30  33
ATOM     33  N   UNL d   1      56.532  49.306  50.378  0.00  0.00    -0.304 N 
BRANCH  33  34
ATOM     34  C   UNL d   1      56.120  49.333  49.598  0.00  0.00     0.080 C 
ATOM     35  C   UNL d   1      56.543  49.075  48.862  0.00  0.00     0.021 C 
ENDBRANCH  33  34
BRANCH  33  36
ATOM     36  C   UNL d   1      56.166  49.682  51.091  0.00  0.00     0.080 C 
ATOM     37  C   UNL d   1      56.479  49.503  51.899  0.00  0.00     0.021 C 
ENDBRANCH  33  36
ENDBRANCH  30  33
ENDBRANCH  26  27
ENDBRANCH   1  26
TORSDOF 9
ENDMDL
