MODEL 1
REMARK VINA RESULT:      -5.7      0.000      0.000
REMARK  7 active torsions:
REMARK  status: ('A' for Active; 'I' for Inactive)
REMARK    1  A    between atoms: C_5  and  N_1 
REMARK    2  A    between atoms: S_12  and  C_2 
REMARK       I    between atoms: N_3  and  C_9 
REMARK    3  A    between atoms: C_15  and  C_4 
REMARK    4  A    between atoms: C_9  and  C_20 
REMARK       I    between atoms: C_10  and  N_14 
REMARK    5  A    between atoms: C_11  and  C_10 
REMARK    6  A    between atoms: C_20  and  S_12 
REMARK    7  A    between atoms: N_14  and  C_15 
ROOT
ATOM      1  N   UNL d   1      51.646  33.778  53.247  0.00  0.00    -0.268 N 
ATOM      2  C   UNL d   1      51.794  32.972  53.139  0.00  0.00     0.201 A 
ATOM      3  C   UNL d   1      50.845  33.919  53.081  0.00  0.00     0.190 A 
ATOM      4  N   UNL d   1      51.081  32.608  52.904  0.00  0.00    -0.121 NA
ATOM      5  N   UNL d   1      50.497  33.192  52.868  0.00  0.00    -0.126 NA
ENDROOT
BRANCH   2   6
ATOM      6  S   UNL d   1      52.510  32.595  53.242  0.00  0.00    -0.043 SA
BRANCH   6   7
ATOM      7  C   UNL d   1      52.594  31.792  53.061  0.00  0.00     0.099 C 
BRANCH   7   8
ATOM      8  C   UNL d   1      52.926  31.276  53.600  0.00  0.00     0.271 C 
ATOM      9  N   UNL d   1      52.853  30.465  53.496  0.00  0.00    -0.273 N 
ATOM     10  C   UNL d   1      53.160  29.885  53.995  0.00  0.00     0.067 A 
ATOM     11  C   UNL d   1      52.462  30.093  52.875  0.00  0.00     0.083 A 
ATOM     12  C   UNL d   1      52.954  29.148  53.677  0.00  0.00     0.018 A 
ATOM     13  C   UNL d   1      53.597  29.942  54.694  0.00  0.00     0.018 A 
ATOM     14  C   UNL d   1      53.191  28.464  54.066  0.00  0.00     0.002 A 
ATOM     15  C   UNL d   1      52.529  29.280  52.995  0.00  0.00     0.021 A 
ATOM     16  C   UNL d   1      53.633  28.509  54.772  0.00  0.00     0.000 A 
ATOM     17  C   UNL d   1      53.833  29.245  55.081  0.00  0.00     0.002 A 
ATOM     18  O   UNL d   1      53.338  31.572  54.255  0.00  0.00    -0.266 OA
ENDBRANCH   7   8
ENDBRANCH   6   7
ENDBRANCH   2   6
BRANCH   1  19
ATOM     19  C   UNL d   1      52.192  34.338  53.476  0.00  0.00     0.067 A 
ATOM     20  C   UNL d   1      52.630  34.741  52.911  0.00  0.00     0.016 A 
ATOM     21  C   UNL d   1      53.184  35.310  53.144  0.00  0.00     0.001 A 
ATOM     22  C   UNL d   1      52.524  34.586  52.114  0.00  0.00     0.002 C 
ATOM     23  C   UNL d   1      53.294  35.469  53.940  0.00  0.00     0.000 A 
ATOM     24  C   UNL d   1      52.848  35.058  54.511  0.00  0.00     0.001 A 
ATOM     25  C   UNL d   1      52.302  34.498  54.285  0.00  0.00     0.018 A 
ATOM     26  C   UNL d   1      52.966  35.226  55.310  0.00  0.00     0.000 C 
ENDBRANCH   1  19
BRANCH   3  27
ATOM     27  C   UNL d   1      50.461  34.648  53.119  0.00  0.00     0.141 C 
BRANCH  27  28
ATOM     28  N   UNL d   1      49.748  34.757  52.721  0.00  0.00    -0.202 NA
ATOM     29  C   UNL d   1      49.239  35.364  52.959  0.00  0.00     0.302 C 
ATOM     30  O   UNL d   1      49.450  35.852  53.592  0.00  0.00    -0.263 OA
BRANCH  29  31
ATOM     31  C   UNL d   1      48.520  35.485  52.569  0.00  0.00     0.158 A 
ATOM     32  O   UNL d   1      48.343  35.216  51.817  0.00  0.00    -0.300 OA
ATOM     33  C   UNL d   1      47.574  35.453  51.635  0.00  0.00     0.123 A 
ATOM     34  C   UNL d   1      47.285  35.872  52.291  0.00  0.00     0.029 A 
ATOM     35  C   UNL d   1      47.873  35.890  52.867  0.00  0.00     0.032 A 
ENDBRANCH  29  31
ENDBRANCH  27  28
ENDBRANCH   3  27
TORSDOF 7
ENDMDL
MODEL 2
REMARK VINA RESULT:      -3.8      1.482      5.802
REMARK  7 active torsions:
REMARK  status: ('A' for Active; 'I' for Inactive)
REMARK    1  A    between atoms: C_5  and  N_1 
REMARK    2  A    between atoms: S_12  and  C_2 
REMARK       I    between atoms: N_3  and  C_9 
REMARK    3  A    between atoms: C_15  and  C_4 
REMARK    4  A    between atoms: C_9  and  C_20 
REMARK       I    between atoms: C_10  and  N_14 
REMARK    5  A    between atoms: C_11  and  C_10 
REMARK    6  A    between atoms: C_20  and  S_12 
REMARK    7  A    between atoms: N_14  and  C_15 
ROOT
ATOM      1  N   UNL d   1      52.919  32.472  53.304  0.00  0.00    -0.268 N 
ATOM      2  C   UNL d   1      52.235  32.808  52.981  0.00  0.00     0.201 A 
ATOM      3  C   UNL d   1      52.889  31.652  53.178  0.00  0.00     0.190 A 
ATOM      4  N   UNL d   1      51.777  32.194  52.654  0.00  0.00    -0.121 NA
ATOM      5  N   UNL d   1      52.180  31.482  52.775  0.00  0.00    -0.126 NA
ENDROOT
BRANCH   2   6
ATOM      6  S   UNL d   1      52.041  33.600  52.983  0.00  0.00    -0.043 SA
BRANCH   6   7
ATOM      7  C   UNL d   1      51.471  33.895  52.460  0.00  0.00     0.099 C 
BRANCH   7   8
ATOM      8  C   UNL d   1      50.853  34.352  52.733  0.00  0.00     0.271 C 
ATOM      9  N   UNL d   1      50.186  34.467  52.269  0.00  0.00    -0.273 N 
ATOM     10  C   UNL d   1      49.524  34.914  52.476  0.00  0.00     0.067 A 
ATOM     11  C   UNL d   1      50.064  34.156  51.517  0.00  0.00     0.083 A 
ATOM     12  C   UNL d   1      48.990  34.877  51.844  0.00  0.00     0.018 A 
ATOM     13  C   UNL d   1      49.348  35.345  53.159  0.00  0.00     0.018 A 
ATOM     14  C   UNL d   1      48.274  35.276  51.900  0.00  0.00     0.002 A 
ATOM     15  C   UNL d   1      49.324  34.414  51.262  0.00  0.00     0.021 A 
ATOM     16  C   UNL d   1      48.086  35.714  52.584  0.00  0.00     0.000 A 
ATOM     17  C   UNL d   1      48.622  35.746  53.208  0.00  0.00     0.002 A 
ATOM     18  O   UNL d   1      50.897  34.702  53.483  0.00  0.00    -0.266 OA
ENDBRANCH   7   8
ENDBRANCH   6   7
ENDBRANCH   2   6
BRANCH   1  19
ATOM     19  C   UNL d   1      53.519  32.876  53.680  0.00  0.00     0.067 A 
ATOM     20  C   UNL d   1      53.435  33.101  54.464  0.00  0.00     0.016 A 
ATOM     21  C   UNL d   1      54.043  33.511  54.845  0.00  0.00     0.001 A 
ATOM     22  C   UNL d   1      52.749  32.923  54.876  0.00  0.00     0.002 C 
ATOM     23  C   UNL d   1      54.730  33.691  54.438  0.00  0.00     0.000 A 
ATOM     24  C   UNL d   1      54.813  33.461  53.642  0.00  0.00     0.001 A 
ATOM     25  C   UNL d   1      54.216  33.058  53.263  0.00  0.00     0.018 A 
ATOM     26  C   UNL d   1      55.510  33.647  53.240  0.00  0.00     0.000 C 
ENDBRANCH   1  19
BRANCH   3  27
ATOM     27  C   UNL d   1      53.459  31.102  53.411  0.00  0.00     0.141 C 
BRANCH  27  28
ATOM     28  N   UNL d   1      53.245  30.467  53.889  0.00  0.00    -0.202 NA
ATOM     29  C   UNL d   1      53.747  29.812  53.942  0.00  0.00     0.302 C 
ATOM     30  O   UNL d   1      54.454  29.802  53.516  0.00  0.00    -0.263 OA
BRANCH  29  31
ATOM     31  C   UNL d   1      53.545  29.167  54.419  0.00  0.00     0.158 A 
ATOM     32  O   UNL d   1      53.468  28.395  54.157  0.00  0.00    -0.300 OA
ATOM     33  C   UNL d   1      53.262  27.926  54.802  0.00  0.00     0.123 A 
ATOM     34  C   UNL d   1      53.214  28.425  55.464  0.00  0.00     0.029 A 
ATOM     35  C   UNL d   1      53.390  29.193  55.222  0.00  0.00     0.032 A 
ENDBRANCH  29  31
ENDBRANCH  27  28
ENDBRANCH   3  27
TORSDOF 7
ENDMDL
