MODEL 1
REMARK VINA RESULT:      53.2      0.000      0.000
REMARK  5 active torsions:
REMARK  status: ('A' for Active; 'I' for Inactive)
REMARK    1  A    between atoms: N_2  and  S_1 
REMARK    2  A    between atoms: C_8  and  S_1 
REMARK    3  A    between atoms: S_7  and  C_3 
REMARK    4  A    between atoms: C_11  and  S_7 
REMARK    5  A    between atoms: C_12  and  C_11 
ROOT
ATOM      1  N   UNL d   1     -51.360  26.181  33.795  0.00  0.00    -0.208 N 
ATOM      2  C   UNL d   1     -51.194  26.407  34.579  0.00  0.00     0.189 A 
ATOM      3  N   UNL d   1     -50.457  26.790  34.587  0.00  0.00    -0.219 NA
ATOM      4  C   UNL d   1     -50.722  26.426  33.317  0.00  0.00     0.114 A 
ATOM      5  C   UNL d   1     -50.171  26.799  33.808  0.00  0.00     0.121 A 
ENDROOT
BRANCH   1   6
ATOM      6  S   UNL d   1     -52.042  25.782  33.539  0.00  0.00     0.273 S 
ATOM      7  O   UNL d   1     -52.437  26.500  33.587  0.00  0.00    -0.200 OA
ATOM      8  O   UNL d   1     -52.822  25.617  33.307  0.00  0.00    -0.200 OA
BRANCH   6   9
ATOM      9  C   UNL d   1     -51.661  25.049  33.485  0.00  0.00     0.104 A 
ATOM     10  C   UNL d   1     -52.101  24.360  33.552  0.00  0.00     0.013 A 
ATOM     11  C   UNL d   1     -51.721  23.631  33.498  0.00  0.00     0.001 A 
ATOM     12  C   UNL d   1     -50.906  23.598  33.377  0.00  0.00     0.000 A 
ATOM     13  C   UNL d   1     -50.471  24.291  33.310  0.00  0.00     0.001 A 
ATOM     14  C   UNL d   1     -50.856  25.023  33.365  0.00  0.00     0.013 A 
ENDBRANCH   6   9
ENDBRANCH   1   6
BRANCH   2  15
ATOM     15  S   UNL d   1     -51.683  26.272  35.241  0.00  0.00    -0.049 SA
BRANCH  15  16
ATOM     16  C   UNL d   1     -51.548  26.688  35.943  0.00  0.00     0.038 C 
BRANCH  16  17
ATOM     17  C   UNL d   1     -51.781  26.357  36.671  0.00  0.00     0.007 A 
ATOM     18  C   UNL d   1     -51.436  26.616  37.383  0.00  0.00     0.001 A 
ATOM     19  C   UNL d   1     -51.662  26.292  38.103  0.00  0.00     0.000 A 
ATOM     20  C   UNL d   1     -52.240  25.702  38.120  0.00  0.00     0.000 A 
ATOM     21  C   UNL d   1     -52.587  25.441  37.411  0.00  0.00     0.000 A 
ATOM     22  C   UNL d   1     -52.472  25.372  38.839  0.00  0.00     0.000 C 
ATOM     23  C   UNL d   1     -52.356  25.768  36.691  0.00  0.00     0.001 A 
ENDBRANCH  16  17
ENDBRANCH  15  16
ENDBRANCH   2  15
TORSDOF 5
ENDMDL
MODEL 2
REMARK VINA RESULT:      54.1      2.676      3.281
REMARK  5 active torsions:
REMARK  status: ('A' for Active; 'I' for Inactive)
REMARK    1  A    between atoms: N_2  and  S_1 
REMARK    2  A    between atoms: C_8  and  S_1 
REMARK    3  A    between atoms: S_7  and  C_3 
REMARK    4  A    between atoms: C_11  and  S_7 
REMARK    5  A    between atoms: C_12  and  C_11 
ROOT
ATOM      1  N   UNL d   1     -51.036  24.988  33.411  0.00  0.00    -0.208 N 
ATOM      2  C   UNL d   1     -50.319  25.378  33.580  0.00  0.00     0.189 A 
ATOM      3  N   UNL d   1     -49.712  24.812  33.582  0.00  0.00    -0.219 NA
ATOM      4  C   UNL d   1     -50.869  24.178  33.309  0.00  0.00     0.114 A 
ATOM      5  C   UNL d   1     -50.055  24.074  33.414  0.00  0.00     0.121 A 
ENDROOT
BRANCH   1   6
ATOM      6  S   UNL d   1     -51.782  25.348  33.356  0.00  0.00     0.273 S 
ATOM      7  O   UNL d   1     -51.395  26.071  33.366  0.00  0.00    -0.200 OA
ATOM      8  O   UNL d   1     -52.384  25.917  33.305  0.00  0.00    -0.200 OA
BRANCH   6   9
ATOM      9  C   UNL d   1     -52.191  24.627  33.344  0.00  0.00     0.104 A 
ATOM     10  C   UNL d   1     -51.768  23.925  33.321  0.00  0.00     0.013 A 
ATOM     11  C   UNL d   1     -52.175  23.209  33.309  0.00  0.00     0.001 A 
ATOM     12  C   UNL d   1     -52.999  23.202  33.320  0.00  0.00     0.000 A 
ATOM     13  C   UNL d   1     -53.417  23.908  33.342  0.00  0.00     0.001 A 
ATOM     14  C   UNL d   1     -53.005  24.627  33.354  0.00  0.00     0.013 A 
ENDBRANCH   6   9
ENDBRANCH   1   6
BRANCH   2  15
ATOM     15  S   UNL d   1     -50.228  26.195  33.722  0.00  0.00    -0.049 SA
BRANCH  15  16
ATOM     16  C   UNL d   1     -49.562  26.590  33.432  0.00  0.00     0.038 C 
BRANCH  16  17
ATOM     17  C   UNL d   1     -49.265  27.252  33.840  0.00  0.00     0.007 A 
ATOM     18  C   UNL d   1     -48.519  27.222  34.208  0.00  0.00     0.001 A 
ATOM     19  C   UNL d   1     -48.221  27.872  34.612  0.00  0.00     0.000 A 
ATOM     20  C   UNL d   1     -48.669  28.565  34.653  0.00  0.00     0.000 A 
ATOM     21  C   UNL d   1     -49.414  28.600  34.286  0.00  0.00     0.000 A 
ATOM     22  C   UNL d   1     -48.377  29.223  35.056  0.00  0.00     0.000 C 
ATOM     23  C   UNL d   1     -49.709  27.944  33.882  0.00  0.00     0.001 A 
ENDBRANCH  16  17
ENDBRANCH  15  16
ENDBRANCH   2  15
TORSDOF 5
ENDMDL
