MODEL 1
REMARK VINA RESULT:      99.5      0.000      0.000
REMARK  4 active torsions:
REMARK  status: ('A' for Active; 'I' for Inactive)
REMARK    1  A    between atoms: N_5  and  S_1 
REMARK    2  A    between atoms: C_6  and  S_1 
REMARK    3  A    between atoms: N_2  and  C_7 
REMARK    4  A    between atoms: C_18  and  N_5 
ROOT
ATOM      1  C   UNL d   1      61.437  46.147  50.587  0.00  0.00     0.117 A 
ATOM      2  C   UNL d   1      60.947  47.708  50.714  0.00  0.00     0.070 A 
ATOM      3  C   UNL d   1      61.822  46.728  50.169  0.00  0.00     0.015 A 
ATOM      4  C   UNL d   1      60.800  46.344  51.074  0.00  0.00     0.015 A 
ATOM      5  C   UNL d   1      61.578  47.512  50.231  0.00  0.00     0.018 A 
ATOM      6  C   UNL d   1      60.559  47.127  51.133  0.00  0.00     0.018 A 
ENDROOT
BRANCH   1   7
ATOM      7  S   UNL d   1      61.682  45.363  50.524  0.00  0.00     0.327 S 
ATOM      8  O   UNL d   1      61.268  45.182  51.223  0.00  0.00    -0.186 OA
ATOM      9  O   UNL d   1      62.086  45.548  49.839  0.00  0.00    -0.186 OA
BRANCH   7  10
ATOM     10  N   UNL d   1      61.922  44.581  50.468  0.00  0.00    -0.317 NA
BRANCH  10  11
ATOM     11  C   UNL d   1      62.167  43.795  50.407  0.00  0.00     0.145 A 
ATOM     12  C   UNL d   1      62.278  43.336  51.093  0.00  0.00     0.033 A 
ATOM     13  C   UNL d   1      62.523  42.550  51.032  0.00  0.00     0.003 A 
ATOM     14  C   UNL d   1      62.660  42.214  50.300  0.00  0.00     0.000 A 
ATOM     15  C   UNL d   1      62.553  42.664  49.606  0.00  0.00     0.003 A 
ATOM     16  C   UNL d   1      62.906  41.426  50.241  0.00  0.00     0.000 C 
ATOM     17  C   UNL d   1      62.306  43.455  49.667  0.00  0.00     0.033 A 
ENDBRANCH  10  11
ENDBRANCH   7  10
ENDBRANCH   1   7
BRANCH   2  18
ATOM     18  N   UNL d   1      60.702  48.492  50.776  0.00  0.00    -0.242 N 
ATOM     19  C   UNL d   1      60.389  48.957  50.165  0.00  0.00     0.267 A 
ATOM     20  C   UNL d   1      60.218  49.708  50.470  0.00  0.00     0.066 A 
ATOM     21  O   UNL d   1      60.269  48.715  49.387  0.00  0.00    -0.267 OA
ATOM     22  C   UNL d   1      60.425  49.707  51.268  0.00  0.00     0.066 A 
ATOM     23  C   UNL d   1      60.723  48.960  51.459  0.00  0.00     0.267 A 
ATOM     24  O   UNL d   1      60.994  48.722  52.204  0.00  0.00    -0.267 OA
ENDBRANCH   2  18
TORSDOF 4
ENDMDL
