MODEL 1
REMARK VINA RESULT:      -7.7      0.000      0.000
REMARK  4 active torsions:
REMARK  status: ('A' for Active; 'I' for Inactive)
REMARK    1  A    between atoms: C_7  and  C_2 
REMARK    2  A    between atoms: C_6  and  C_3 
REMARK    3  A    between atoms: C_9  and  C_6 
REMARK    4  A    between atoms: O_15  and  C_10 
ROOT
ATOM      1  N   UNL d   1     -48.904  14.803  22.122  0.00  0.00    -0.201 NA
ATOM      2  C   UNL d   1     -49.019  14.017  22.335  0.00  0.00     0.114 A 
ATOM      3  C   UNL d   1     -47.793  14.384  22.689  0.00  0.00     0.089 A 
ATOM      4  C   UNL d   1     -48.156  15.034  22.335  0.00  0.00     0.286 A 
ATOM      5  S   UNL d   1     -48.312  13.754  22.694  0.00  0.00    -0.063 SA
ATOM      6  O   UNL d   1     -47.827  15.782  22.217  0.00  0.00    -0.265 OA
ENDROOT
BRANCH   3   7
ATOM      7  C   UNL d   1     -47.030  14.354  22.993  0.00  0.00     0.011 C 
BRANCH   7   8
ATOM      8  C   UNL d   1     -46.603  13.648  23.052  0.00  0.00     0.001 A 
ATOM      9  C   UNL d   1     -46.736  13.108  23.637  0.00  0.00     0.002 A 
ATOM     10  C   UNL d   1     -46.297  12.420  23.668  0.00  0.00     0.024 A 
ATOM     11  C   UNL d   1     -45.729  12.256  23.132  0.00  0.00     0.094 A 
ATOM     12  C   UNL d   1     -45.582  12.801  22.527  0.00  0.00     0.024 A 
ATOM     13  C   UNL d   1     -46.014  13.500  22.479  0.00  0.00     0.002 A 
BRANCH  11  14
ATOM     14  O   UNL d   1     -45.290  11.555  23.173  0.00  0.00    -0.328 OA
ATOM     15  C   UNL d   1     -45.573  10.913  23.592  0.00  0.00     0.181 C 
ENDBRANCH  11  14
ENDBRANCH   7   8
ENDBRANCH   3   7
BRANCH   2  16
ATOM     16  C   UNL d   1     -49.703  13.571  22.217  0.00  0.00     0.024 A 
ATOM     17  C   UNL d   1     -50.317  13.624  22.759  0.00  0.00     0.002 A 
ATOM     18  C   UNL d   1     -51.001  13.178  22.640  0.00  0.00     0.000 A 
ATOM     19  C   UNL d   1     -51.063  12.684  21.982  0.00  0.00     0.000 A 
ATOM     20  C   UNL d   1     -50.440  12.637  21.441  0.00  0.00     0.000 A 
ATOM     21  C   UNL d   1     -49.757  13.083  21.559  0.00  0.00     0.002 A 
ENDBRANCH   2  16
TORSDOF 4
ENDMDL
MODEL 2
REMARK VINA RESULT:      -7.3      1.583      2.154
REMARK  4 active torsions:
REMARK  status: ('A' for Active; 'I' for Inactive)
REMARK    1  A    between atoms: C_7  and  C_2 
REMARK    2  A    between atoms: C_6  and  C_3 
REMARK    3  A    between atoms: C_9  and  C_6 
REMARK    4  A    between atoms: O_15  and  C_10 
ROOT
ATOM      1  N   UNL d   1     -49.817  12.349  23.185  0.00  0.00    -0.201 NA
ATOM      2  C   UNL d   1     -49.596  13.128  23.047  0.00  0.00     0.114 A 
ATOM      3  C   UNL d   1     -48.528  12.439  23.433  0.00  0.00     0.089 A 
ATOM      4  C   UNL d   1     -49.170  11.921  23.422  0.00  0.00     0.286 A 
ATOM      5  S   UNL d   1     -48.777  13.182  23.206  0.00  0.00    -0.063 SA
ATOM      6  O   UNL d   1     -49.162  11.119  23.613  0.00  0.00    -0.265 OA
ENDROOT
BRANCH   3   7
ATOM      7  C   UNL d   1     -47.754  12.255  23.639  0.00  0.00     0.011 C 
BRANCH   7   8
ATOM      8  C   UNL d   1     -47.102  12.592  23.257  0.00  0.00     0.001 A 
ATOM      9  C   UNL d   1     -46.761  12.259  22.606  0.00  0.00     0.002 A 
ATOM     10  C   UNL d   1     -46.118  12.615  22.251  0.00  0.00     0.024 A 
ATOM     11  C   UNL d   1     -45.805  13.295  22.528  0.00  0.00     0.094 A 
ATOM     12  C   UNL d   1     -46.145  13.648  23.195  0.00  0.00     0.024 A 
ATOM     13  C   UNL d   1     -46.794  13.304  23.566  0.00  0.00     0.002 A 
BRANCH  11  14
ATOM     14  O   UNL d   1     -45.152  13.648  22.160  0.00  0.00    -0.328 OA
ATOM     15  C   UNL d   1     -44.591  13.189  21.784  0.00  0.00     0.181 C 
ENDBRANCH  11  14
ENDBRANCH   7   8
ENDBRANCH   3   7
BRANCH   2  16
ATOM     16  C   UNL d   1     -50.087  13.743  22.799  0.00  0.00     0.024 A 
ATOM     17  C   UNL d   1     -50.223  14.378  23.301  0.00  0.00     0.002 A 
ATOM     18  C   UNL d   1     -50.714  14.993  23.053  0.00  0.00     0.000 A 
ATOM     19  C   UNL d   1     -51.064  14.965  22.306  0.00  0.00     0.000 A 
ATOM     20  C   UNL d   1     -50.923  14.323  21.807  0.00  0.00     0.000 A 
ATOM     21  C   UNL d   1     -50.431  13.708  22.055  0.00  0.00     0.002 A 
ENDBRANCH   2  16
TORSDOF 4
ENDMDL
MODEL 3
REMARK VINA RESULT:      -7.0      1.342      3.963
REMARK  4 active torsions:
REMARK  status: ('A' for Active; 'I' for Inactive)
REMARK    1  A    between atoms: C_7  and  C_2 
REMARK    2  A    between atoms: C_6  and  C_3 
REMARK    3  A    between atoms: C_9  and  C_6 
REMARK    4  A    between atoms: O_15  and  C_10 
ROOT
ATOM      1  N   UNL d   1     -45.974  13.468  22.938  0.00  0.00    -0.201 NA
ATOM      2  C   UNL d   1     -46.535  12.910  23.159  0.00  0.00     0.114 A 
ATOM      3  C   UNL d   1     -47.140  14.075  22.961  0.00  0.00     0.089 A 
ATOM      4  C   UNL d   1     -46.335  14.183  22.816  0.00  0.00     0.286 A 
ATOM      5  S   UNL d   1     -47.275  13.298  23.172  0.00  0.00    -0.063 SA
ATOM      6  O   UNL d   1     -45.963  14.883  22.589  0.00  0.00    -0.265 OA
ENDROOT
BRANCH   3   7
ATOM      7  C   UNL d   1     -47.729  14.646  22.908  0.00  0.00     0.011 C 
BRANCH   7   8
ATOM      8  C   UNL d   1     -48.477  14.484  22.595  0.00  0.00     0.001 A 
ATOM      9  C   UNL d   1     -48.605  14.389  21.804  0.00  0.00     0.002 A 
ATOM     10  C   UNL d   1     -49.356  14.230  21.526  0.00  0.00     0.024 A 
ATOM     11  C   UNL d   1     -49.983  14.163  22.015  0.00  0.00     0.094 A 
ATOM     12  C   UNL d   1     -49.867  14.258  22.829  0.00  0.00     0.024 A 
ATOM     13  C   UNL d   1     -49.117  14.419  23.128  0.00  0.00     0.002 A 
BRANCH  11  14
ATOM     14  O   UNL d   1     -50.741  14.001  21.721  0.00  0.00    -0.328 OA
ATOM     15  C   UNL d   1     -51.061  13.253  21.793  0.00  0.00     0.181 C 
ENDBRANCH  11  14
ENDBRANCH   7   8
ENDBRANCH   3   7
BRANCH   2  16
ATOM     16  C   UNL d   1     -46.397  12.116  23.334  0.00  0.00     0.024 A 
ATOM     17  C   UNL d   1     -47.030  11.629  23.523  0.00  0.00     0.002 A 
ATOM     18  C   UNL d   1     -46.892  10.834  23.698  0.00  0.00     0.000 A 
ATOM     19  C   UNL d   1     -46.123  10.536  23.682  0.00  0.00     0.000 A 
ATOM     20  C   UNL d   1     -45.491  11.032  23.491  0.00  0.00     0.000 A 
ATOM     21  C   UNL d   1     -45.629  11.827  23.316  0.00  0.00     0.002 A 
ENDBRANCH   2  16
TORSDOF 4
ENDMDL
MODEL 4
REMARK VINA RESULT:      -6.7      1.687      4.499
REMARK  4 active torsions:
REMARK  status: ('A' for Active; 'I' for Inactive)
REMARK    1  A    between atoms: C_7  and  C_2 
REMARK    2  A    between atoms: C_6  and  C_3 
REMARK    3  A    between atoms: C_9  and  C_6 
REMARK    4  A    between atoms: O_15  and  C_10 
ROOT
ATOM      1  N   UNL d   1     -47.533  11.793  22.792  0.00  0.00    -0.201 NA
ATOM      2  C   UNL d   1     -47.420  12.607  22.812  0.00  0.00     0.114 A 
ATOM      3  C   UNL d   1     -48.701  12.344  23.044  0.00  0.00     0.089 A 
ATOM      4  C   UNL d   1     -48.313  11.624  22.933  0.00  0.00     0.286 A 
ATOM      5  S   UNL d   1     -48.164  12.954  22.972  0.00  0.00    -0.063 SA
ATOM      6  O   UNL d   1     -48.650  10.872  22.960  0.00  0.00    -0.265 OA
ENDROOT
BRANCH   3   7
ATOM      7  C   UNL d   1     -49.500  12.451  23.203  0.00  0.00     0.011 C 
BRANCH   7   8
ATOM      8  C   UNL d   1     -49.888  13.168  23.063  0.00  0.00     0.001 A 
ATOM      9  C   UNL d   1     -50.202  13.359  22.345  0.00  0.00     0.002 A 
ATOM     10  C   UNL d   1     -50.580  14.075  22.238  0.00  0.00     0.024 A 
ATOM     11  C   UNL d   1     -50.653  14.606  22.829  0.00  0.00     0.094 A 
ATOM     12  C   UNL d   1     -50.335  14.424  23.572  0.00  0.00     0.024 A 
ATOM     13  C   UNL d   1     -49.951  13.707  23.698  0.00  0.00     0.002 A 
BRANCH  11  14
ATOM     14  O   UNL d   1     -51.038  15.330  22.710  0.00  0.00    -0.328 OA
ATOM     15  C   UNL d   1     -51.064  15.888  23.306  0.00  0.00     0.181 C 
ENDBRANCH  11  14
ENDBRANCH   7   8
ENDBRANCH   3   7
BRANCH   2  16
ATOM     16  C   UNL d   1     -46.709  13.009  22.695  0.00  0.00     0.024 A 
ATOM     17  C   UNL d   1     -46.104  12.643  22.278  0.00  0.00     0.002 A 
ATOM     18  C   UNL d   1     -45.392  13.044  22.162  0.00  0.00     0.000 A 
ATOM     19  C   UNL d   1     -45.294  13.806  22.464  0.00  0.00     0.000 A 
ATOM     20  C   UNL d   1     -45.907  14.167  22.882  0.00  0.00     0.000 A 
ATOM     21  C   UNL d   1     -46.619  13.766  22.999  0.00  0.00     0.002 A 
ENDBRANCH   2  16
TORSDOF 4
ENDMDL
MODEL 5
REMARK VINA RESULT:      -6.6      8.150      9.746
REMARK  4 active torsions:
REMARK  status: ('A' for Active; 'I' for Inactive)
REMARK    1  A    between atoms: C_7  and  C_2 
REMARK    2  A    between atoms: C_6  and  C_3 
REMARK    3  A    between atoms: C_9  and  C_6 
REMARK    4  A    between atoms: O_15  and  C_10 
ROOT
ATOM      1  N   UNL d   1     -40.389  14.545  17.020  0.00  0.00    -0.201 NA
ATOM      2  C   UNL d   1     -39.733  14.345  17.473  0.00  0.00     0.114 A 
ATOM      3  C   UNL d   1     -40.469  15.222  18.145  0.00  0.00     0.089 A 
ATOM      4  C   UNL d   1     -40.844  15.080  17.424  0.00  0.00     0.286 A 
ATOM      5  S   UNL d   1     -39.786  14.777  18.186  0.00  0.00    -0.063 SA
ATOM      6  O   UNL d   1     -41.549  15.416  17.158  0.00  0.00    -0.265 OA
ENDROOT
BRANCH   3   7
ATOM      7  C   UNL d   1     -40.726  15.727  18.740  0.00  0.00     0.011 C 
BRANCH   7   8
ATOM      8  C   UNL d   1     -40.491  15.640  19.528  0.00  0.00     0.001 A 
ATOM      9  C   UNL d   1     -39.787  15.922  19.804  0.00  0.00     0.002 A 
ATOM     10  C   UNL d   1     -39.582  15.820  20.588  0.00  0.00     0.024 A 
ATOM     11  C   UNL d   1     -40.061  15.446  21.105  0.00  0.00     0.094 A 
ATOM     12  C   UNL d   1     -40.787  15.152  20.836  0.00  0.00     0.024 A 
ATOM     13  C   UNL d   1     -41.010  15.245  20.049  0.00  0.00     0.002 A 
BRANCH  11  14
ATOM     14  O   UNL d   1     -39.844  15.348  21.899  0.00  0.00    -0.328 OA
ATOM     15  C   UNL d   1     -39.307  15.856  22.246  0.00  0.00     0.181 C 
ENDBRANCH  11  14
ENDBRANCH   7   8
ENDBRANCH   3   7
BRANCH   2  16
ATOM     16  C   UNL d   1     -39.133  13.819  17.264  0.00  0.00     0.024 A 
ATOM     17  C   UNL d   1     -39.053  13.114  17.678  0.00  0.00     0.002 A 
ATOM     18  C   UNL d   1     -38.453  12.588  17.469  0.00  0.00     0.000 A 
ATOM     19  C   UNL d   1     -37.940  12.771  16.849  0.00  0.00     0.000 A 
ATOM     20  C   UNL d   1     -38.026  13.482  16.438  0.00  0.00     0.000 A 
ATOM     21  C   UNL d   1     -38.626  14.009  16.647  0.00  0.00     0.002 A 
ENDBRANCH   2  16
TORSDOF 4
ENDMDL
MODEL 6
REMARK VINA RESULT:      -5.9      7.932      9.417
REMARK  4 active torsions:
REMARK  status: ('A' for Active; 'I' for Inactive)
REMARK    1  A    between atoms: C_7  and  C_2 
REMARK    2  A    between atoms: C_6  and  C_3 
REMARK    3  A    between atoms: C_9  and  C_6 
REMARK    4  A    between atoms: O_15  and  C_10 
ROOT
ATOM      1  N   UNL d   1     -40.636  15.263  21.449  0.00  0.00    -0.201 NA
ATOM      2  C   UNL d   1     -39.871  15.010  21.289  0.00  0.00     0.114 A 
ATOM      3  C   UNL d   1     -40.380  15.560  20.193  0.00  0.00     0.089 A 
ATOM      4  C   UNL d   1     -40.955  15.600  20.784  0.00  0.00     0.286 A 
ATOM      5  S   UNL d   1     -39.711  15.200  20.491  0.00  0.00    -0.063 SA
ATOM      6  O   UNL d   1     -41.712  15.922  20.718  0.00  0.00    -0.265 OA
ENDROOT
BRANCH   3   7
ATOM      7  C   UNL d   1     -40.451  15.833  19.421  0.00  0.00     0.011 C 
BRANCH   7   8
ATOM      8  C   UNL d   1     -40.210  15.386  18.769  0.00  0.00     0.001 A 
ATOM      9  C   UNL d   1     -40.633  14.756  18.494  0.00  0.00     0.002 A 
ATOM     10  C   UNL d   1     -40.368  14.335  17.847  0.00  0.00     0.024 A 
ATOM     11  C   UNL d   1     -39.693  14.524  17.466  0.00  0.00     0.094 A 
ATOM     12  C   UNL d   1     -39.249  15.169  17.736  0.00  0.00     0.024 A 
ATOM     13  C   UNL d   1     -39.500  15.606  18.387  0.00  0.00     0.002 A 
BRANCH  11  14
ATOM     14  O   UNL d   1     -39.434  14.089  16.810  0.00  0.00    -0.328 OA
ATOM     15  C   UNL d   1     -38.684  14.205  16.507  0.00  0.00     0.181 C 
ENDBRANCH  11  14
ENDBRANCH   7   8
ENDBRANCH   3   7
BRANCH   2  16
ATOM     16  C   UNL d   1     -39.355  14.639  21.816  0.00  0.00     0.024 A 
ATOM     17  C   UNL d   1     -38.823  15.092  22.246  0.00  0.00     0.002 A 
ATOM     18  C   UNL d   1     -38.308  14.721  22.772  0.00  0.00     0.000 A 
ATOM     19  C   UNL d   1     -38.330  13.900  22.863  0.00  0.00     0.000 A 
ATOM     20  C   UNL d   1     -38.869  13.452  22.426  0.00  0.00     0.000 A 
ATOM     21  C   UNL d   1     -39.384  13.823  21.899  0.00  0.00     0.002 A 
ENDBRANCH   2  16
TORSDOF 4
ENDMDL
