MODEL 1
REMARK VINA RESULT:      -9.2      0.000      0.000
REMARK  6 active torsions:
REMARK  status: ('A' for Active; 'I' for Inactive)
REMARK    1  A    between atoms: C_4  and  S_1 
REMARK    2  A    between atoms: C_5  and  S_1 
REMARK    3  A    between atoms: C_2  and  N_7 
REMARK    4  A    between atoms: N_3  and  C_2 
REMARK    5  A    between atoms: C_17  and  N_6 
REMARK    6  A    between atoms: N_7  and  C_12 
ROOT
ATOM      1  C   UNL d   1      52.114  33.609  53.011  0.00  0.00     0.206 C 
ATOM      2  S   UNL d   1      52.450  33.929  53.691  0.00  0.00    -0.038 SA
ENDROOT
BRANCH   1   3
ATOM      3  N   UNL d   1      52.504  33.002  52.605  0.00  0.00    -0.218 NA
BRANCH   3   4
ATOM      4  C   UNL d   1      53.030  32.506  53.003  0.00  0.00     0.085 A 
ATOM      5  C   UNL d   1      52.861  31.701  53.067  0.00  0.00     0.031 A 
ATOM      6  C   UNL d   1      53.386  31.209  53.464  0.00  0.00     0.094 A 
ATOM      7  C   UNL d   1      54.079  31.522  53.797  0.00  0.00     0.012 A 
ATOM      8  C   UNL d   1      54.240  32.328  53.729  0.00  0.00     0.002 A 
ATOM      9  C   UNL d   1      53.710  32.817  53.329  0.00  0.00     0.019 A 
BRANCH   6  10
ATOM     10  S   UNL d   1      53.223  30.406  53.530  0.00  0.00     0.262 S 
ATOM     11  O   UNL d   1      53.339  30.455  54.349  0.00  0.00    -0.213 OA
ATOM     12  O   UNL d   1      53.108  30.362  52.718  0.00  0.00    -0.213 OA
BRANCH  10  13
ATOM     13  C   UNL d   1      53.060  29.604  53.598  0.00  0.00     0.364 C 
ATOM     14  F   UNL d   1      52.637  29.218  53.006  0.00  0.00    -0.159 F 
ATOM     15  F   UNL d   1      53.320  29.180  54.260  0.00  0.00    -0.159 F 
ENDBRANCH  10  13
ENDBRANCH   6  10
ENDBRANCH   3   4
ENDBRANCH   1   3
BRANCH   1  16
ATOM     16  N   UNL d   1      51.392  33.891  52.737  0.00  0.00    -0.278 N 
ATOM     17  C   UNL d   1      50.737  33.903  53.236  0.00  0.00     0.101 A 
ATOM     18  C   UNL d   1      50.017  34.184  52.961  0.00  0.00     0.100 A 
ATOM     19  N   UNL d   1      49.950  34.454  52.189  0.00  0.00    -0.301 N 
ATOM     20  C   UNL d   1      50.602  34.443  51.686  0.00  0.00     0.100 A 
ATOM     21  C   UNL d   1      51.326  34.160  51.964  0.00  0.00     0.101 A 
BRANCH  19  22
ATOM     22  C   UNL d   1      49.222  34.735  51.919  0.00  0.00     0.064 A 
ATOM     23  C   UNL d   1      48.785  35.249  52.394  0.00  0.00     0.018 A 
ATOM     24  C   UNL d   1      48.060  35.533  52.132  0.00  0.00     0.002 A 
ATOM     25  C   UNL d   1      47.768  35.305  51.393  0.00  0.00     0.000 A 
ATOM     26  C   UNL d   1      48.202  34.793  50.919  0.00  0.00     0.002 A 
ATOM     27  C   UNL d   1      48.930  34.507  51.180  0.00  0.00     0.018 A 
ENDBRANCH  19  22
ENDBRANCH   1  16
TORSDOF 6
ENDMDL
MODEL 2
REMARK VINA RESULT:      -8.8      1.859      2.285
REMARK  6 active torsions:
REMARK  status: ('A' for Active; 'I' for Inactive)
REMARK    1  A    between atoms: C_4  and  S_1 
REMARK    2  A    between atoms: C_5  and  S_1 
REMARK    3  A    between atoms: C_2  and  N_7 
REMARK    4  A    between atoms: N_3  and  C_2 
REMARK    5  A    between atoms: C_17  and  N_6 
REMARK    6  A    between atoms: N_7  and  C_12 
ROOT
ATOM      1  C   UNL d   1      51.376  33.964  52.789  0.00  0.00     0.206 C 
ATOM      2  S   UNL d   1      51.934  34.047  52.190  0.00  0.00    -0.038 SA
ENDROOT
BRANCH   1   3
ATOM      3  N   UNL d   1      51.554  33.508  53.458  0.00  0.00    -0.218 NA
BRANCH   3   4
ATOM      4  C   UNL d   1      52.245  33.056  53.481  0.00  0.00     0.085 A 
ATOM      5  C   UNL d   1      52.858  33.277  53.989  0.00  0.00     0.031 A 
ATOM      6  C   UNL d   1      53.544  32.826  54.010  0.00  0.00     0.094 A 
ATOM      7  C   UNL d   1      53.618  32.156  53.525  0.00  0.00     0.012 A 
ATOM      8  C   UNL d   1      53.001  31.943  53.021  0.00  0.00     0.002 A 
ATOM      9  C   UNL d   1      52.313  32.399  53.003  0.00  0.00     0.019 A 
BRANCH   6  10
ATOM     10  S   UNL d   1      54.158  33.040  54.513  0.00  0.00     0.262 S 
ATOM     11  O   UNL d   1      53.677  32.868  55.165  0.00  0.00    -0.213 OA
ATOM     12  O   UNL d   1      54.631  33.209  53.863  0.00  0.00    -0.213 OA
BRANCH  10  13
ATOM     13  C   UNL d   1      54.771  33.254  55.016  0.00  0.00     0.364 C 
ATOM     14  F   UNL d   1      54.751  33.028  55.808  0.00  0.00    -0.159 F 
ATOM     15  F   UNL d   1      55.410  33.696  54.730  0.00  0.00    -0.159 F 
ENDBRANCH  10  13
ENDBRANCH   6  10
ENDBRANCH   3   4
ENDBRANCH   1   3
BRANCH   1  16
ATOM     16  N   UNL d   1      50.644  34.331  52.725  0.00  0.00    -0.278 N 
ATOM     17  C   UNL d   1      50.334  34.749  53.363  0.00  0.00     0.101 A 
ATOM     18  C   UNL d   1      49.603  35.116  53.298  0.00  0.00     0.100 A 
ATOM     19  N   UNL d   1      49.181  35.067  52.595  0.00  0.00    -0.301 N 
ATOM     20  C   UNL d   1      49.487  34.650  51.955  0.00  0.00     0.100 A 
ATOM     21  C   UNL d   1      50.223  34.281  52.022  0.00  0.00     0.101 A 
BRANCH  19  22
ATOM     22  C   UNL d   1      48.446  35.438  52.537  0.00  0.00     0.064 A 
ATOM     23  C   UNL d   1      48.018  35.383  51.834  0.00  0.00     0.018 A 
ATOM     24  C   UNL d   1      47.286  35.751  51.769  0.00  0.00     0.002 A 
ATOM     25  C   UNL d   1      46.978  36.177  52.408  0.00  0.00     0.000 A 
ATOM     26  C   UNL d   1      47.403  36.232  53.108  0.00  0.00     0.002 A 
ATOM     27  C   UNL d   1      48.138  35.864  53.176  0.00  0.00     0.018 A 
ENDBRANCH  19  22
ENDBRANCH   1  16
TORSDOF 6
ENDMDL
