MODEL 1
REMARK VINA RESULT:      -6.3      0.000      0.000
REMARK  4 active torsions:
REMARK  status: ('A' for Active; 'I' for Inactive)
REMARK       I    between atoms: N_2  and  C_1 
REMARK       I    between atoms: N_3  and  C_1 
REMARK    1  A    between atoms: C_7  and  N_3 
REMARK    2  A    between atoms: C_8  and  C_12 
REMARK    3  A    between atoms: C_17  and  C_8 
REMARK    4  A    between atoms: O_18  and  C_9 
ROOT
ATOM      1  C   UNL d   1     -41.645-122.950 -50.851  0.00  0.00     0.354 C 
ATOM      2  N   UNL d   1     -41.516-123.016 -51.663  0.00  0.00    -0.256 N 
ATOM      3  N   UNL d   1     -41.862-123.616 -50.418  0.00  0.00    -0.192 NA
ATOM      4  O   UNL d   1     -41.559-122.221 -50.473  0.00  0.00    -0.244 OA
ATOM      5  C   UNL d   1     -41.298-122.344 -52.097  0.00  0.00     0.085 A 
ATOM      6  C   UNL d   1     -41.601-123.743 -52.043  0.00  0.00     0.085 A 
ATOM      7  C   UNL d   1     -41.166-122.409 -52.918  0.00  0.00     0.019 A 
ATOM      8  C   UNL d   1     -41.471-123.802 -52.848  0.00  0.00     0.019 A 
ATOM      9  C   UNL d   1     -41.254-123.134 -53.284  0.00  0.00     0.003 A 
ENDROOT
BRANCH   3  10
ATOM     10  C   UNL d   1     -41.994-123.554 -49.599  0.00  0.00     0.086 A 
ATOM     11  C   UNL d   1     -42.728-123.317 -49.321  0.00  0.00     0.021 A 
ATOM     12  C   UNL d   1     -42.864-123.254 -48.510  0.00  0.00     0.026 A 
ATOM     13  C   UNL d   1     -42.254-123.433 -47.984  0.00  0.00     0.094 A 
ATOM     14  C   UNL d   1     -41.509-123.673 -48.268  0.00  0.00     0.026 A 
ATOM     15  C   UNL d   1     -41.387-123.732 -49.081  0.00  0.00     0.021 A 
BRANCH  13  16
ATOM     16  O   UNL d   1     -42.379-123.373 -47.165  0.00  0.00    -0.328 OA
ATOM     17  C   UNL d   1     -41.883-122.902 -46.704  0.00  0.00     0.181 C 
ENDBRANCH  13  16
ENDBRANCH   3  10
BRANCH   9  18
ATOM     18  C   UNL d   1     -41.123-123.197 -54.100  0.00  0.00     0.000 C 
BRANCH  18  19
ATOM     19  C   UNL d   1     -41.591-122.785 -54.632  0.00  0.00     0.000 A 
ATOM     20  C   UNL d   1     -42.368-123.023 -54.771  0.00  0.00     0.000 A 
ATOM     21  C   UNL d   1     -42.839-122.606 -55.308  0.00  0.00     0.000 A 
ATOM     22  C   UNL d   1     -42.529-121.948 -55.707  0.00  0.00     0.000 A 
ATOM     23  C   UNL d   1     -41.749-121.710 -55.566  0.00  0.00     0.000 A 
ATOM     24  C   UNL d   1     -41.281-122.127 -55.030  0.00  0.00     0.000 A 
ENDBRANCH  18  19
ENDBRANCH   9  18
TORSDOF 4
ENDMDL
MODEL 2
REMARK VINA RESULT:      -4.9      1.438      5.644
REMARK  4 active torsions:
REMARK  status: ('A' for Active; 'I' for Inactive)
REMARK       I    between atoms: N_2  and  C_1 
REMARK       I    between atoms: N_3  and  C_1 
REMARK    1  A    between atoms: C_7  and  N_3 
REMARK    2  A    between atoms: C_8  and  C_12 
REMARK    3  A    between atoms: C_17  and  C_8 
REMARK    4  A    between atoms: O_18  and  C_9 
ROOT
ATOM      1  C   UNL d   1     -41.493-122.479 -52.317  0.00  0.00     0.354 C 
ATOM      2  N   UNL d   1     -41.401-122.748 -51.543  0.00  0.00    -0.256 N 
ATOM      3  N   UNL d   1     -41.550-123.022 -52.933  0.00  0.00    -0.192 NA
ATOM      4  O   UNL d   1     -41.527-121.669 -52.475  0.00  0.00    -0.244 OA
ATOM      5  C   UNL d   1     -41.344-122.199 -50.924  0.00  0.00     0.085 A 
ATOM      6  C   UNL d   1     -41.366-123.556 -51.382  0.00  0.00     0.085 A 
ATOM      7  C   UNL d   1     -41.252-122.470 -50.141  0.00  0.00     0.019 A 
ATOM      8  C   UNL d   1     -41.276-123.817 -50.612  0.00  0.00     0.019 A 
ATOM      9  C   UNL d   1     -41.218-123.272 -49.993  0.00  0.00     0.003 A 
ENDROOT
BRANCH   3  10
ATOM     10  C   UNL d   1     -41.642-122.755 -53.716  0.00  0.00     0.086 A 
ATOM     11  C   UNL d   1     -41.146-123.040 -54.304  0.00  0.00     0.021 A 
ATOM     12  C   UNL d   1     -41.234-122.778 -55.081  0.00  0.00     0.026 A 
ATOM     13  C   UNL d   1     -41.824-122.229 -55.258  0.00  0.00     0.094 A 
ATOM     14  C   UNL d   1     -42.325-121.941 -54.659  0.00  0.00     0.026 A 
ATOM     15  C   UNL d   1     -42.227-122.211 -53.887  0.00  0.00     0.021 A 
BRANCH  13  16
ATOM     16  O   UNL d   1     -41.921-121.958 -56.038  0.00  0.00    -0.328 OA
ATOM     17  C   UNL d   1     -42.677-121.824 -56.337  0.00  0.00     0.181 C 
ENDBRANCH  13  16
ENDBRANCH   3  10
BRANCH   9  18
ATOM     18  C   UNL d   1     -41.126-123.540 -49.214  0.00  0.00     0.000 C 
BRANCH  18  19
ATOM     19  C   UNL d   1     -41.746-123.490 -48.678  0.00  0.00     0.000 A 
ATOM     20  C   UNL d   1     -42.480-123.816 -48.863  0.00  0.00     0.000 A 
ATOM     21  C   UNL d   1     -43.103-123.764 -48.321  0.00  0.00     0.000 A 
ATOM     22  C   UNL d   1     -42.988-123.384 -47.593  0.00  0.00     0.000 A 
ATOM     23  C   UNL d   1     -42.251-123.058 -47.410  0.00  0.00     0.000 A 
ATOM     24  C   UNL d   1     -41.631-123.110 -47.950  0.00  0.00     0.000 A 
ENDBRANCH  18  19
ENDBRANCH   9  18
TORSDOF 4
ENDMDL
MODEL 3
REMARK VINA RESULT:      -3.6      0.776      1.275
REMARK  4 active torsions:
REMARK  status: ('A' for Active; 'I' for Inactive)
REMARK       I    between atoms: N_2  and  C_1 
REMARK       I    between atoms: N_3  and  C_1 
REMARK    1  A    between atoms: C_7  and  N_3 
REMARK    2  A    between atoms: C_8  and  C_12 
REMARK    3  A    between atoms: C_17  and  C_8 
REMARK    4  A    between atoms: O_18  and  C_9 
ROOT
ATOM      1  C   UNL d   1     -41.539-122.854 -50.846  0.00  0.00     0.354 C 
ATOM      2  N   UNL d   1     -41.467-122.508 -51.591  0.00  0.00    -0.256 N 
ATOM      3  N   UNL d   1     -41.801-122.402 -50.210  0.00  0.00    -0.192 NA
ATOM      4  O   UNL d   1     -41.349-123.651 -50.738  0.00  0.00    -0.244 OA
ATOM      5  C   UNL d   1     -41.203-122.965 -52.231  0.00  0.00     0.085 A 
ATOM      6  C   UNL d   1     -41.656-121.713 -51.703  0.00  0.00     0.085 A 
ATOM      7  C   UNL d   1     -41.131-122.616 -52.984  0.00  0.00     0.019 A 
ATOM      8  C   UNL d   1     -41.584-121.374 -52.444  0.00  0.00     0.019 A 
ATOM      9  C   UNL d   1     -41.321-121.828 -53.084  0.00  0.00     0.003 A 
ENDROOT
BRANCH   3  10
ATOM     10  C   UNL d   1     -41.874-122.747 -49.457  0.00  0.00     0.086 A 
ATOM     11  C   UNL d   1     -41.206-123.018 -49.066  0.00  0.00     0.021 A 
ATOM     12  C   UNL d   1     -41.273-123.361 -48.320  0.00  0.00     0.026 A 
ATOM     13  C   UNL d   1     -42.019-123.428 -47.972  0.00  0.00     0.094 A 
ATOM     14  C   UNL d   1     -42.696-123.152 -48.371  0.00  0.00     0.026 A 
ATOM     15  C   UNL d   1     -42.614-122.812 -49.116  0.00  0.00     0.021 A 
BRANCH  13  16
ATOM     16  O   UNL d   1     -42.098-123.772 -47.220  0.00  0.00    -0.328 OA
ATOM     17  C   UNL d   1     -41.474-123.739 -46.682  0.00  0.00     0.181 C 
ENDBRANCH  13  16
ENDBRANCH   3  10
BRANCH   9  18
ATOM     18  C   UNL d   1     -41.248-121.482 -53.833  0.00  0.00     0.000 C 
BRANCH  18  19
ATOM     19  C   UNL d   1     -41.652-121.790 -54.477  0.00  0.00     0.000 A 
ATOM     20  C   UNL d   1     -41.236-122.126 -55.104  0.00  0.00     0.000 A 
ATOM     21  C   UNL d   1     -41.645-122.437 -55.753  0.00  0.00     0.000 A 
ATOM     22  C   UNL d   1     -42.473-122.409 -55.771  0.00  0.00     0.000 A 
ATOM     23  C   UNL d   1     -42.890-122.071 -55.141  0.00  0.00     0.000 A 
ATOM     24  C   UNL d   1     -42.481-121.762 -54.496  0.00  0.00     0.000 A 
ENDBRANCH  18  19
ENDBRANCH   9  18
TORSDOF 4
ENDMDL
