MODEL 1
REMARK VINA RESULT:      48.0      0.000      0.000
REMARK  2 active torsions:
REMARK  status: ('A' for Active; 'I' for Inactive)
REMARK    1  A    between atoms: N_9  and  C_3 
REMARK    2  A    between atoms: C_11  and  C_4 
ROOT
ATOM      1  N   UNL d   1      45.850 -15.954  43.429  0.00  0.00    -0.196 N 
ATOM      2  C   UNL d   1      45.882 -16.787  43.257  0.00  0.00     0.167 A 
ATOM      3  C   UNL d   1      45.455 -15.709  44.089  0.00  0.00     0.153 A 
ATOM      4  C   UNL d   1      46.274 -17.051  42.598  0.00  0.00     0.057 A 
ATOM      5  N   UNL d   1      46.616 -15.695  42.258  0.00  0.00    -0.161 NA
ATOM      6  N   UNL d   1      45.516 -17.320  43.755  0.00  0.00    -0.227 NA
ATOM      7  C   UNL d   1      45.082 -16.239  44.599  0.00  0.00     0.057 A 
ATOM      8  C   UNL d   1      46.647 -16.503  42.091  0.00  0.00     0.124 A 
ATOM      9  C   UNL d   1      45.113 -17.059  44.429  0.00  0.00     0.086 A 
ATOM     10  C   UNL d   1      44.728 -17.620  44.955  0.00  0.00     0.021 C 
ENDROOT
BRANCH   4  11
ATOM     11  C   UNL d   1      46.305 -17.858  42.430  0.00  0.00     0.005 A 
ATOM     12  C   UNL d   1      46.024 -18.135  41.717  0.00  0.00     0.001 A 
ATOM     13  C   UNL d   1      46.055 -18.942  41.550  0.00  0.00     0.011 A 
ATOM     14  C   UNL d   1      46.366 -19.459  42.098  0.00  0.00     0.058 A 
ATOM     15  C   UNL d   1      46.646 -19.169  42.814  0.00  0.00     0.011 A 
ATOM     16 CL   UNL d   1      46.398 -20.306  41.923  0.00  0.00    -0.082 Cl
ATOM     17  C   UNL d   1      46.616 -18.374  42.979  0.00  0.00     0.001 A 
ENDBRANCH   4  11
BRANCH   3  18
ATOM     18  N   UNL d   1      45.421 -14.868  44.267  0.00  0.00    -0.285 N 
ATOM     19  C   UNL d   1      46.075 -14.491  44.674  0.00  0.00     0.108 A 
ATOM     20  C   UNL d   1      46.037 -13.659  44.848  0.00  0.00     0.142 A 
ATOM     21  O   UNL d   1      45.345 -13.187  44.619  0.00  0.00    -0.300 OA
ATOM     22  C   UNL d   1      44.699 -13.585  44.211  0.00  0.00     0.142 A 
ATOM     23  C   UNL d   1      44.737 -14.417  44.037  0.00  0.00     0.108 A 
ENDBRANCH   3  18
TORSDOF 2
ENDMDL
