MODEL 1
REMARK VINA RESULT:      -3.0      0.000      0.000
REMARK  5 active torsions:
REMARK  status: ('A' for Active; 'I' for Inactive)
REMARK    1  A    between atoms: C_2  and  C_1 
REMARK       I    between atoms: N_5  and  C_2 
REMARK    2  A    between atoms: C_10  and  N_5 
REMARK    3  A    between atoms: C_11  and  C_6 
REMARK    4  A    between atoms: S_9  and  C_11 
REMARK    5  A    between atoms: C_13  and  S_9 
ROOT
ATOM      1  C   UNL d   1     -41.475-122.017 -51.996  0.00  0.00     0.158 A 
ATOM      2  O   UNL d   1     -41.870-122.208 -51.298  0.00  0.00    -0.302 OA
ATOM      3  C   UNL d   1     -41.126-122.713 -52.283  0.00  0.00     0.032 A 
ATOM      4  C   UNL d   1     -41.769-123.006 -51.152  0.00  0.00     0.107 A 
ATOM      5  C   UNL d   1     -41.309-123.325 -51.760  0.00  0.00     0.027 A 
ENDROOT
BRANCH   1   6
ATOM      6  C   UNL d   1     -41.429-121.273 -52.353  0.00  0.00     0.302 C 
ATOM      7  N   UNL d   1     -41.592-121.183 -53.154  0.00  0.00    -0.206 NA
ATOM      8  O   UNL d   1     -41.220-120.622 -51.898  0.00  0.00    -0.263 OA
BRANCH   7   9
ATOM      9  C   UNL d   1     -41.803-121.846 -53.609  0.00  0.00     0.085 A 
ATOM     10  C   UNL d   1     -41.255-122.433 -53.759  0.00  0.00     0.021 A 
ATOM     11  C   UNL d   1     -41.454-123.088 -54.205  0.00  0.00     0.031 A 
ATOM     12  C   UNL d   1     -42.226-123.160 -54.513  0.00  0.00     0.140 A 
ATOM     13  C   UNL d   1     -42.777-122.569 -54.362  0.00  0.00     0.031 A 
ATOM     14  F   UNL d   1     -42.433-123.813 -54.960  0.00  0.00    -0.204 F 
ATOM     15  C   UNL d   1     -42.570-121.910 -53.910  0.00  0.00     0.021 A 
ENDBRANCH   7   9
ENDBRANCH   1   6
BRANCH   4  16
ATOM     16  C   UNL d   1     -42.072-123.431 -50.511  0.00  0.00     0.060 C 
BRANCH  16  17
ATOM     17  S   UNL d   1     -41.668-123.434 -49.794  0.00  0.00    -0.084 SA
BRANCH  17  18
ATOM     18  C   UNL d   1     -42.069-123.561 -49.089  0.00  0.00     0.029 A 
ATOM     19  C   UNL d   1     -42.890-123.586 -49.077  0.00  0.00     0.006 A 
ATOM     20  C   UNL d   1     -43.292-123.713 -48.373  0.00  0.00     0.001 A 
ATOM     21  C   UNL d   1     -42.860-123.816 -47.673  0.00  0.00     0.000 A 
ATOM     22  C   UNL d   1     -42.037-123.791 -47.688  0.00  0.00     0.001 A 
ATOM     23  C   UNL d   1     -41.636-123.664 -48.394  0.00  0.00     0.006 A 
ENDBRANCH  17  18
ENDBRANCH  16  17
ENDBRANCH   4  16
TORSDOF 5
ENDMDL
MODEL 2
REMARK VINA RESULT:      -2.4      0.655      1.093
REMARK  5 active torsions:
REMARK  status: ('A' for Active; 'I' for Inactive)
REMARK    1  A    between atoms: C_2  and  C_1 
REMARK       I    between atoms: N_5  and  C_2 
REMARK    2  A    between atoms: C_10  and  N_5 
REMARK    3  A    between atoms: C_11  and  C_6 
REMARK    4  A    between atoms: S_9  and  C_11 
REMARK    5  A    between atoms: C_13  and  S_9 
ROOT
ATOM      1  C   UNL d   1     -41.438-121.887 -52.722  0.00  0.00     0.158 A 
ATOM      2  O   UNL d   1     -41.769-122.031 -51.981  0.00  0.00    -0.302 OA
ATOM      3  C   UNL d   1     -41.128-122.604 -52.999  0.00  0.00     0.032 A 
ATOM      4  C   UNL d   1     -41.668-122.821 -51.800  0.00  0.00     0.107 A 
ATOM      5  C   UNL d   1     -41.270-123.183 -52.429  0.00  0.00     0.027 A 
ENDROOT
BRANCH   1   6
ATOM      6  C   UNL d   1     -41.414-121.164 -53.123  0.00  0.00     0.302 C 
ATOM      7  N   UNL d   1     -41.664-121.112 -53.905  0.00  0.00    -0.206 NA
ATOM      8  O   UNL d   1     -41.137-120.497 -52.732  0.00  0.00    -0.263 OA
BRANCH   7   9
ATOM      9  C   UNL d   1     -41.944-121.791 -54.295  0.00  0.00     0.085 A 
ATOM     10  C   UNL d   1     -42.746-121.932 -54.349  0.00  0.00     0.021 A 
ATOM     11  C   UNL d   1     -43.030-122.596 -54.730  0.00  0.00     0.031 A 
ATOM     12  C   UNL d   1     -42.495-123.139 -55.070  0.00  0.00     0.140 A 
ATOM     13  C   UNL d   1     -41.687-122.996 -55.015  0.00  0.00     0.031 A 
ATOM     14  F   UNL d   1     -42.771-123.806 -55.454  0.00  0.00    -0.204 F 
ATOM     15  C   UNL d   1     -41.407-122.322 -54.628  0.00  0.00     0.021 A 
ENDBRANCH   7   9
ENDBRANCH   1   6
BRANCH   4  16
ATOM     16  C   UNL d   1     -41.917-123.204 -51.111  0.00  0.00     0.060 C 
BRANCH  16  17
ATOM     17  S   UNL d   1     -41.581-123.003 -50.387  0.00  0.00    -0.084 SA
BRANCH  17  18
ATOM     18  C   UNL d   1     -41.979-123.154 -49.685  0.00  0.00     0.029 A 
ATOM     19  C   UNL d   1     -41.570-123.425 -49.026  0.00  0.00     0.006 A 
ATOM     20  C   UNL d   1     -41.968-123.577 -48.324  0.00  0.00     0.001 A 
ATOM     21  C   UNL d   1     -42.787-123.454 -48.287  0.00  0.00     0.000 A 
ATOM     22  C   UNL d   1     -43.193-123.182 -48.949  0.00  0.00     0.001 A 
ATOM     23  C   UNL d   1     -42.795-123.031 -49.651  0.00  0.00     0.006 A 
ENDBRANCH  17  18
ENDBRANCH  16  17
ENDBRANCH   4  16
TORSDOF 5
ENDMDL
MODEL 3
REMARK VINA RESULT:      -2.1      2.046      4.553
REMARK  5 active torsions:
REMARK  status: ('A' for Active; 'I' for Inactive)
REMARK    1  A    between atoms: C_2  and  C_1 
REMARK       I    between atoms: N_5  and  C_2 
REMARK    2  A    between atoms: C_10  and  N_5 
REMARK    3  A    between atoms: C_11  and  C_6 
REMARK    4  A    between atoms: S_9  and  C_11 
REMARK    5  A    between atoms: C_13  and  S_9 
ROOT
ATOM      1  C   UNL d   1     -41.552-123.063 -50.337  0.00  0.00     0.158 A 
ATOM      2  O   UNL d   1     -41.744-123.388 -51.070  0.00  0.00    -0.302 OA
ATOM      3  C   UNL d   1     -41.166-122.343 -50.479  0.00  0.00     0.032 A 
ATOM      4  C   UNL d   1     -41.484-122.882 -51.656  0.00  0.00     0.107 A 
ATOM      5  C   UNL d   1     -41.124-122.231 -51.295  0.00  0.00     0.027 A 
ENDROOT
BRANCH   1   6
ATOM      6  C   UNL d   1     -41.710-123.388 -49.594  0.00  0.00     0.302 C 
ATOM      7  N   UNL d   1     -42.446-123.283 -49.241  0.00  0.00    -0.206 NA
ATOM      8  O   UNL d   1     -41.124-123.816 -49.210  0.00  0.00    -0.263 OA
BRANCH   7   9
ATOM      9  C   UNL d   1     -43.035-122.848 -49.635  0.00  0.00     0.085 A 
ATOM     10  C   UNL d   1     -43.628-123.236 -50.042  0.00  0.00     0.021 A 
ATOM     11  C   UNL d   1     -44.211-122.817 -50.432  0.00  0.00     0.031 A 
ATOM     12  C   UNL d   1     -44.202-121.983 -50.416  0.00  0.00     0.140 A 
ATOM     13  C   UNL d   1     -43.605-121.594 -50.006  0.00  0.00     0.031 A 
ATOM     14  F   UNL d   1     -44.782-121.556 -50.804  0.00  0.00    -0.204 F 
ATOM     15  C   UNL d   1     -43.019-122.023 -49.614  0.00  0.00     0.021 A 
ENDBRANCH   7   9
ENDBRANCH   1   6
BRANCH   4  16
ATOM     16  C   UNL d   1     -41.562-122.992 -52.472  0.00  0.00     0.060 C 
BRANCH  16  17
ATOM     17  S   UNL d   1     -41.514-122.346 -52.979  0.00  0.00    -0.084 SA
BRANCH  17  18
ATOM     18  C   UNL d   1     -41.656-122.434 -53.783  0.00  0.00     0.029 A 
ATOM     19  C   UNL d   1     -42.037-121.841 -54.204  0.00  0.00     0.006 A 
ATOM     20  C   UNL d   1     -42.179-121.928 -55.008  0.00  0.00     0.001 A 
ATOM     21  C   UNL d   1     -41.934-122.622 -55.390  0.00  0.00     0.000 A 
ATOM     22  C   UNL d   1     -41.552-123.215 -54.964  0.00  0.00     0.001 A 
ATOM     23  C   UNL d   1     -41.410-123.126 -54.160  0.00  0.00     0.006 A 
ENDBRANCH  17  18
ENDBRANCH  16  17
ENDBRANCH   4  16
TORSDOF 5
ENDMDL
