MODEL 1
REMARK VINA RESULT:      -8.9      0.000      0.000
REMARK  4 active torsions:
REMARK  status: ('A' for Active; 'I' for Inactive)
REMARK    1  A    between atoms: C_15  and  C_2 
REMARK    2  A    between atoms: C_5  and  S_13 
REMARK       I    between atoms: C_11  and  N_8 
REMARK    3  A    between atoms: C_18  and  C_11 
REMARK    4  A    between atoms: S_13  and  C_18 
ROOT
ATOM      1  N   UNL d   1      50.383  34.448  52.533  0.00  0.00    -0.272 N 
ATOM      2  C   UNL d   1      49.657  34.761  52.337  0.00  0.00     0.271 C 
ATOM      3  C   UNL d   1      51.850  33.819  52.950  0.00  0.00     0.023 A 
ATOM      4  C   UNL d   1      50.867  34.102  51.964  0.00  0.00     0.083 A 
ATOM      5  C   UNL d   1      50.638  34.477  53.323  0.00  0.00     0.083 A 
ATOM      6  O   UNL d   1      49.397  34.737  51.566  0.00  0.00    -0.266 OA
ATOM      7  C   UNL d   1      51.601  33.788  52.172  0.00  0.00     0.021 A 
ATOM      8  C   UNL d   1      51.375  34.160  53.525  0.00  0.00     0.021 A 
ENDROOT
BRANCH   2   9
ATOM      9  C   UNL d   1      49.178  35.107  52.923  0.00  0.00     0.099 C 
BRANCH   9  10
ATOM     10  S   UNL d   1      48.507  35.536  52.704  0.00  0.00    -0.054 SA
BRANCH  10  11
ATOM     11  C   UNL d   1      48.052  35.938  53.280  0.00  0.00     0.164 A 
ATOM     12  S   UNL d   1      47.229  35.925  53.346  0.00  0.00    -0.039 SA
ATOM     13  C   UNL d   1      47.019  36.402  53.996  0.00  0.00     0.134 A 
ATOM     14  C   UNL d   1      46.242  36.545  54.264  0.00  0.00     0.030 C 
ATOM     15  N   UNL d   1      47.719  36.709  54.329  0.00  0.00    -0.140 NA
ATOM     16  N   UNL d   1      48.364  36.421  53.883  0.00  0.00    -0.134 NA
ENDBRANCH  10  11
ENDBRANCH   9  10
ENDBRANCH   2   9
BRANCH   3  17
ATOM     17  C   UNL d   1      52.574  33.509  53.162  0.00  0.00     0.110 A 
ATOM     18  N   UNL d   1      53.233  33.940  53.368  0.00  0.00    -0.126 NA
ATOM     19  O   UNL d   1      53.847  33.415  53.542  0.00  0.00    -0.211 OA
ATOM     20  C   UNL d   1      53.560  32.662  53.442  0.00  0.00     0.127 A 
ATOM     21  C   UNL d   1      53.904  31.918  53.531  0.00  0.00     0.029 A 
ATOM     22  C   UNL d   1      52.767  32.717  53.205  0.00  0.00     0.047 A 
ATOM     23  C   UNL d   1      53.472  31.246  53.388  0.00  0.00     0.032 A 
ATOM     24  C   UNL d   1      52.678  31.288  53.150  0.00  0.00     0.140 A 
ATOM     25  C   UNL d   1      52.336  32.045  53.062  0.00  0.00     0.033 A 
ATOM     26  F   UNL d   1      52.246  30.616  53.008  0.00  0.00    -0.204 F 
ENDBRANCH   3  17
TORSDOF 4
ENDMDL
MODEL 2
REMARK VINA RESULT:      -8.6      2.736      5.652
REMARK  4 active torsions:
REMARK  status: ('A' for Active; 'I' for Inactive)
REMARK    1  A    between atoms: C_15  and  C_2 
REMARK    2  A    between atoms: C_5  and  S_13 
REMARK       I    between atoms: C_11  and  N_8 
REMARK    3  A    between atoms: C_18  and  C_11 
REMARK    4  A    between atoms: S_13  and  C_18 
ROOT
ATOM      1  N   UNL d   1      51.916  33.241  52.866  0.00  0.00    -0.272 N 
ATOM      2  C   UNL d   1      52.548  32.729  52.814  0.00  0.00     0.271 C 
ATOM      3  C   UNL d   1      50.626  34.261  52.984  0.00  0.00     0.023 A 
ATOM      4  C   UNL d   1      51.946  33.993  52.533  0.00  0.00     0.083 A 
ATOM      5  C   UNL d   1      51.229  32.997  53.265  0.00  0.00     0.083 A 
ATOM      6  O   UNL d   1      53.226  32.958  52.426  0.00  0.00    -0.266 OA
ATOM      7  C   UNL d   1      51.300  34.504  52.592  0.00  0.00     0.021 A 
ATOM      8  C   UNL d   1      50.586  33.515  53.320  0.00  0.00     0.021 A 
ENDROOT
BRANCH   2   9
ATOM      9  C   UNL d   1      52.504  31.972  53.155  0.00  0.00     0.099 C 
BRANCH   9  10
ATOM     10  S   UNL d   1      53.093  31.415  52.996  0.00  0.00    -0.054 SA
BRANCH  10  11
ATOM     11  C   UNL d   1      53.021  30.628  53.272  0.00  0.00     0.164 A 
ATOM     12  S   UNL d   1      53.375  30.316  53.949  0.00  0.00    -0.039 SA
ATOM     13  C   UNL d   1      53.151  29.516  54.006  0.00  0.00     0.134 A 
ATOM     14  C   UNL d   1      53.384  28.987  54.608  0.00  0.00     0.030 C 
ATOM     15  N   UNL d   1      52.656  29.338  53.360  0.00  0.00    -0.140 NA
ATOM     16  N   UNL d   1      52.574  30.031  52.901  0.00  0.00    -0.134 NA
ENDBRANCH  10  11
ENDBRANCH   9  10
ENDBRANCH   2   9
BRANCH   3  17
ATOM     17  C   UNL d   1      49.985  34.762  53.046  0.00  0.00     0.110 A 
ATOM     18  N   UNL d   1      49.848  35.287  53.653  0.00  0.00    -0.126 NA
ATOM     19  O   UNL d   1      49.140  35.686  53.501  0.00  0.00    -0.211 OA
ATOM     20  C   UNL d   1      48.845  35.402  52.800  0.00  0.00     0.127 A 
ATOM     21  C   UNL d   1      48.167  35.582  52.366  0.00  0.00     0.029 A 
ATOM     22  C   UNL d   1      49.369  34.826  52.513  0.00  0.00     0.047 A 
ATOM     23  C   UNL d   1      48.012  35.200  51.668  0.00  0.00     0.032 A 
ATOM     24  C   UNL d   1      48.529  34.621  51.370  0.00  0.00     0.140 A 
ATOM     25  C   UNL d   1      49.214  34.445  51.814  0.00  0.00     0.033 A 
ATOM     26  F   UNL d   1      48.374  34.240  50.672  0.00  0.00    -0.204 F 
ENDBRANCH   3  17
TORSDOF 4
ENDMDL
MODEL 3
REMARK VINA RESULT:      -8.4      1.218      1.452
REMARK  4 active torsions:
REMARK  status: ('A' for Active; 'I' for Inactive)
REMARK    1  A    between atoms: C_15  and  C_2 
REMARK    2  A    between atoms: C_5  and  S_13 
REMARK       I    between atoms: C_11  and  N_8 
REMARK    3  A    between atoms: C_18  and  C_11 
REMARK    4  A    between atoms: S_13  and  C_18 
ROOT
ATOM      1  N   UNL d   1      50.315  34.340  52.554  0.00  0.00    -0.272 N 
ATOM      2  C   UNL d   1      49.665  34.790  52.356  0.00  0.00     0.271 C 
ATOM      3  C   UNL d   1      51.626  33.431  52.977  0.00  0.00     0.023 A 
ATOM      4  C   UNL d   1      50.839  34.068  51.980  0.00  0.00     0.083 A 
ATOM      5  C   UNL d   1      50.452  34.153  53.352  0.00  0.00     0.083 A 
ATOM      6  O   UNL d   1      49.523  34.978  51.577  0.00  0.00    -0.266 OA
ATOM      7  C   UNL d   1      51.494  33.613  52.191  0.00  0.00     0.021 A 
ATOM      8  C   UNL d   1      51.111  33.697  53.556  0.00  0.00     0.021 A 
ENDROOT
BRANCH   2   9
ATOM      9  C   UNL d   1      49.145  35.058  52.947  0.00  0.00     0.099 C 
BRANCH   9  10
ATOM     10  S   UNL d   1      48.517  35.556  52.746  0.00  0.00    -0.054 SA
BRANCH  10  11
ATOM     11  C   UNL d   1      48.076  35.947  53.340  0.00  0.00     0.164 A 
ATOM     12  S   UNL d   1      47.258  35.914  53.440  0.00  0.00    -0.039 SA
ATOM     13  C   UNL d   1      47.064  36.386  54.098  0.00  0.00     0.134 A 
ATOM     14  C   UNL d   1      46.295  36.511  54.399  0.00  0.00     0.030 C 
ATOM     15  N   UNL d   1      47.769  36.709  54.403  0.00  0.00    -0.140 NA
ATOM     16  N   UNL d   1      48.402  36.436  53.931  0.00  0.00    -0.134 NA
ENDBRANCH  10  11
ENDBRANCH   9  10
ENDBRANCH   2   9
BRANCH   3  17
ATOM     17  C   UNL d   1      52.271  32.983  53.191  0.00  0.00     0.110 A 
ATOM     18  N   UNL d   1      52.387  32.198  53.007  0.00  0.00    -0.126 NA
ATOM     19  O   UNL d   1      53.109  31.956  53.329  0.00  0.00    -0.211 OA
ATOM     20  C   UNL d   1      53.434  32.596  53.709  0.00  0.00     0.127 A 
ATOM     21  C   UNL d   1      54.137  32.698  54.129  0.00  0.00     0.029 A 
ATOM     22  C   UNL d   1      52.915  33.237  53.626  0.00  0.00     0.047 A 
ATOM     23  C   UNL d   1      54.319  33.417  54.456  0.00  0.00     0.032 A 
ATOM     24  C   UNL d   1      53.808  34.067  54.379  0.00  0.00     0.140 A 
ATOM     25  C   UNL d   1      53.098  33.956  53.953  0.00  0.00     0.033 A 
ATOM     26  F   UNL d   1      53.990  34.786  54.706  0.00  0.00    -0.204 F 
ENDBRANCH   3  17
TORSDOF 4
ENDMDL
MODEL 4
REMARK VINA RESULT:      -7.4      1.665      1.856
REMARK  4 active torsions:
REMARK  status: ('A' for Active; 'I' for Inactive)
REMARK    1  A    between atoms: C_15  and  C_2 
REMARK    2  A    between atoms: C_5  and  S_13 
REMARK       I    between atoms: C_11  and  N_8 
REMARK    3  A    between atoms: C_18  and  C_11 
REMARK    4  A    between atoms: S_13  and  C_18 
ROOT
ATOM      1  N   UNL d   1      50.984  34.138  53.117  0.00  0.00    -0.272 N 
ATOM      2  C   UNL d   1      50.321  34.610  53.070  0.00  0.00     0.271 C 
ATOM      3  C   UNL d   1      52.320  33.172  53.191  0.00  0.00     0.023 A 
ATOM      4  C   UNL d   1      51.484  34.166  53.770  0.00  0.00     0.083 A 
ATOM      5  C   UNL d   1      51.156  33.617  52.492  0.00  0.00     0.083 A 
ATOM      6  O   UNL d   1      50.144  35.122  53.677  0.00  0.00    -0.266 OA
ATOM      7  C   UNL d   1      52.153  33.683  53.807  0.00  0.00     0.021 A 
ATOM      8  C   UNL d   1      51.828  33.137  52.537  0.00  0.00     0.021 A 
ENDROOT
BRANCH   2   9
ATOM      9  C   UNL d   1      49.825  34.571  52.404  0.00  0.00     0.099 C 
BRANCH   9  10
ATOM     10  S   UNL d   1      49.229  35.134  52.303  0.00  0.00    -0.054 SA
BRANCH  10  11
ATOM     11  C   UNL d   1      48.619  35.013  51.742  0.00  0.00     0.164 A 
ATOM     12  S   UNL d   1      47.872  35.362  51.753  0.00  0.00    -0.039 SA
ATOM     13  C   UNL d   1      47.452  35.082  51.091  0.00  0.00     0.134 A 
ATOM     14  C   UNL d   1      46.670  35.292  50.885  0.00  0.00     0.030 C 
ATOM     15  N   UNL d   1      47.946  34.558  50.672  0.00  0.00    -0.140 NA
ATOM     16  N   UNL d   1      48.675  34.514  51.077  0.00  0.00    -0.134 NA
ENDBRANCH  10  11
ENDBRANCH   9  10
ENDBRANCH   2   9
BRANCH   3  17
ATOM     17  C   UNL d   1      52.978  32.694  53.223  0.00  0.00     0.110 A 
ATOM     18  N   UNL d   1      53.752  32.949  53.242  0.00  0.00    -0.126 NA
ATOM     19  O   UNL d   1      54.246  32.287  53.273  0.00  0.00    -0.211 OA
ATOM     20  C   UNL d   1      53.773  31.628  53.273  0.00  0.00     0.127 A 
ATOM     21  C   UNL d   1      53.941  30.821  53.297  0.00  0.00     0.029 A 
ATOM     22  C   UNL d   1      52.983  31.877  53.242  0.00  0.00     0.047 A 
ATOM     23  C   UNL d   1      53.341  30.275  53.291  0.00  0.00     0.032 A 
ATOM     24  C   UNL d   1      52.545  30.513  53.260  0.00  0.00     0.140 A 
ATOM     25  C   UNL d   1      52.382  31.331  53.236  0.00  0.00     0.033 A 
ATOM     26  F   UNL d   1      51.944  29.967  53.254  0.00  0.00    -0.204 F 
ENDBRANCH   3  17
TORSDOF 4
ENDMDL
MODEL 5
REMARK VINA RESULT:      -7.1      1.817      2.093
REMARK  4 active torsions:
REMARK  status: ('A' for Active; 'I' for Inactive)
REMARK    1  A    between atoms: C_15  and  C_2 
REMARK    2  A    between atoms: C_5  and  S_13 
REMARK       I    between atoms: C_11  and  N_8 
REMARK    3  A    between atoms: C_18  and  C_11 
REMARK    4  A    between atoms: S_13  and  C_18 
ROOT
ATOM      1  N   UNL d   1      50.310  34.415  52.940  0.00  0.00    -0.272 N 
ATOM      2  C   UNL d   1      49.651  34.894  52.917  0.00  0.00     0.271 C 
ATOM      3  C   UNL d   1      51.639  33.439  52.965  0.00  0.00     0.023 A 
ATOM      4  C   UNL d   1      50.786  34.373  53.610  0.00  0.00     0.083 A 
ATOM      5  C   UNL d   1      50.504  33.960  52.272  0.00  0.00     0.083 A 
ATOM      6  O   UNL d   1      49.453  35.344  53.566  0.00  0.00    -0.266 OA
ATOM      7  C   UNL d   1      51.451  33.885  53.623  0.00  0.00     0.021 A 
ATOM      8  C   UNL d   1      51.172  33.473  52.292  0.00  0.00     0.021 A 
ENDROOT
BRANCH   2   9
ATOM      9  C   UNL d   1      49.180  34.926  52.233  0.00  0.00     0.099 C 
BRANCH   9  10
ATOM     10  S   UNL d   1      48.596  35.507  52.163  0.00  0.00    -0.054 SA
BRANCH  10  11
ATOM     11  C   UNL d   1      47.922  35.379  51.684  0.00  0.00     0.164 A 
ATOM     12  S   UNL d   1      47.180  35.725  51.785  0.00  0.00    -0.039 SA
ATOM     13  C   UNL d   1      46.682  35.437  51.183  0.00  0.00     0.134 A 
ATOM     14  C   UNL d   1      45.880  35.642  51.074  0.00  0.00     0.030 C 
ATOM     15  N   UNL d   1      47.123  34.911  50.710  0.00  0.00    -0.140 NA
ATOM     16  N   UNL d   1      47.897  34.873  51.021  0.00  0.00    -0.134 NA
ENDBRANCH  10  11
ENDBRANCH   9  10
ENDBRANCH   2   9
BRANCH   3  17
ATOM     17  C   UNL d   1      52.295  32.955  52.972  0.00  0.00     0.110 A 
ATOM     18  N   UNL d   1      52.368  32.247  52.577  0.00  0.00    -0.126 NA
ATOM     19  O   UNL d   1      53.118  31.935  52.731  0.00  0.00    -0.211 OA
ATOM     20  C   UNL d   1      53.502  32.455  53.222  0.00  0.00     0.127 A 
ATOM     21  C   UNL d   1      54.253  32.448  53.563  0.00  0.00     0.029 A 
ATOM     22  C   UNL d   1      52.993  33.091  53.375  0.00  0.00     0.047 A 
ATOM     23  C   UNL d   1      54.492  33.058  54.042  0.00  0.00     0.032 A 
ATOM     24  C   UNL d   1      53.991  33.701  54.202  0.00  0.00     0.140 A 
ATOM     25  C   UNL d   1      53.232  33.700  53.853  0.00  0.00     0.033 A 
ATOM     26  F   UNL d   1      54.231  34.310  54.680  0.00  0.00    -0.204 F 
ENDBRANCH   3  17
TORSDOF 4
ENDMDL
MODEL 6
REMARK VINA RESULT:      -6.7      2.661      5.549
REMARK  4 active torsions:
REMARK  status: ('A' for Active; 'I' for Inactive)
REMARK    1  A    between atoms: C_15  and  C_2 
REMARK    2  A    between atoms: C_5  and  S_13 
REMARK       I    between atoms: C_11  and  N_8 
REMARK    3  A    between atoms: C_18  and  C_11 
REMARK    4  A    between atoms: S_13  and  C_18 
ROOT
ATOM      1  N   UNL d   1      51.035  33.568  53.026  0.00  0.00    -0.272 N 
ATOM      2  C   UNL d   1      51.666  33.164  53.347  0.00  0.00     0.271 C 
ATOM      3  C   UNL d   1      49.768  34.405  52.380  0.00  0.00     0.023 A 
ATOM      4  C   UNL d   1      50.375  33.170  52.736  0.00  0.00     0.083 A 
ATOM      5  C   UNL d   1      51.060  34.398  52.991  0.00  0.00     0.083 A 
ATOM      6  O   UNL d   1      51.652  32.352  53.385  0.00  0.00    -0.266 OA
ATOM      7  C   UNL d   1      49.741  33.589  52.413  0.00  0.00     0.021 A 
ATOM      8  C   UNL d   1      50.420  34.810  52.666  0.00  0.00     0.021 A 
ENDROOT
BRANCH   2   9
ATOM      9  C   UNL d   1      52.326  33.580  53.636  0.00  0.00     0.099 C 
BRANCH   9  10
ATOM     10  S   UNL d   1      52.965  33.164  53.955  0.00  0.00    -0.054 SA
BRANCH  10  11
ATOM     11  C   UNL d   1      53.555  33.563  54.396  0.00  0.00     0.164 A 
ATOM     12  S   UNL d   1      54.328  33.303  54.520  0.00  0.00    -0.039 SA
ATOM     13  C   UNL d   1      54.715  33.873  54.988  0.00  0.00     0.134 A 
ATOM     14  C   UNL d   1      55.507  33.834  55.248  0.00  0.00     0.030 C 
ATOM     15  N   UNL d   1      54.174  34.485  55.151  0.00  0.00    -0.140 NA
ATOM     16  N   UNL d   1      53.450  34.293  54.782  0.00  0.00    -0.134 NA
ENDBRANCH  10  11
ENDBRANCH   9  10
ENDBRANCH   2   9
BRANCH   3  17
ATOM     17  C   UNL d   1      49.145  34.823  52.062  0.00  0.00     0.110 A 
ATOM     18  N   UNL d   1      48.912  34.809  51.282  0.00  0.00    -0.126 NA
ATOM     19  O   UNL d   1      48.260  35.309  51.193  0.00  0.00    -0.211 OA
ATOM     20  C   UNL d   1      48.096  35.628  51.922  0.00  0.00     0.127 A 
ATOM     21  C   UNL d   1      47.519  36.157  52.182  0.00  0.00     0.029 A 
ATOM     22  C   UNL d   1      48.644  35.327  52.466  0.00  0.00     0.047 A 
ATOM     23  C   UNL d   1      47.488  36.381  52.961  0.00  0.00     0.032 A 
ATOM     24  C   UNL d   1      48.032  36.086  53.515  0.00  0.00     0.140 A 
ATOM     25  C   UNL d   1      48.613  35.551  53.245  0.00  0.00     0.033 A 
ATOM     26  F   UNL d   1      48.001  36.311  54.294  0.00  0.00    -0.204 F 
ENDBRANCH   3  17
TORSDOF 4
ENDMDL
