MODEL 1
REMARK VINA RESULT:      -7.4      0.000      0.000
REMARK  1 active torsions:
REMARK  status: ('A' for Active; 'I' for Inactive)
REMARK    1  A    between atoms: C_6  and  C_1 
ROOT
ATOM      1  C   UNL d   1     -47.241  13.449  23.004  0.00  0.00     0.085 A 
ATOM      2  C   UNL d   1     -47.666  14.129  22.794  0.00  0.00     0.137 A 
ATOM      3  C   UNL d   1     -47.763  12.866  23.204  0.00  0.00     0.013 A 
ATOM      4  C   UNL d   1     -48.515  13.180  23.119  0.00  0.00     0.031 A 
ATOM      5  S   UNL d   1     -48.441  13.962  22.865  0.00  0.00    -0.066 SA
ATOM      6  C   UNL d   1     -47.661  12.084  23.454  0.00  0.00     0.001 A 
ATOM      7  C   UNL d   1     -49.161  12.728  23.280  0.00  0.00     0.006 A 
ATOM      8  N   UNL d   1     -47.339  14.888  22.542  0.00  0.00    -0.141 N 
ATOM      9  C   UNL d   1     -48.297  11.624  23.616  0.00  0.00     0.000 A 
ATOM     10  C   UNL d   1     -49.077  11.961  23.525  0.00  0.00     0.001 A 
ATOM     11  C   UNL d   1     -49.777  11.476  23.697  0.00  0.00     0.000 C 
ENDROOT
BRANCH   1  12
ATOM     12  C   UNL d   1     -46.399  13.395  23.003  0.00  0.00     0.299 C 
ATOM     13  O   UNL d   1     -45.979  13.507  23.698  0.00  0.00    -0.264 OA
ATOM     14  N   UNL d   1     -45.977  13.225  22.285  0.00  0.00    -0.102 N 
ENDBRANCH   1  12
TORSDOF 1
ENDMDL
MODEL 2
REMARK VINA RESULT:      -7.3      1.088      1.704
REMARK  1 active torsions:
REMARK  status: ('A' for Active; 'I' for Inactive)
REMARK    1  A    between atoms: C_6  and  C_1 
ROOT
ATOM      1  C   UNL d   1     -47.098  12.545  23.305  0.00  0.00     0.085 A 
ATOM      2  C   UNL d   1     -46.935  11.777  23.572  0.00  0.00     0.137 A 
ATOM      3  C   UNL d   1     -47.900  12.643  23.266  0.00  0.00     0.013 A 
ATOM      4  C   UNL d   1     -48.238  11.937  23.508  0.00  0.00     0.031 A 
ATOM      5  S   UNL d   1     -47.631  11.410  23.694  0.00  0.00    -0.066 SA
ATOM      6  C   UNL d   1     -48.375  13.280  23.042  0.00  0.00     0.001 A 
ATOM      7  C   UNL d   1     -49.039  11.860  23.529  0.00  0.00     0.006 A 
ATOM      8  N   UNL d   1     -46.156  11.427  23.698  0.00  0.00    -0.141 N 
ATOM      9  C   UNL d   1     -49.175  13.216  23.059  0.00  0.00     0.000 A 
ATOM     10  C   UNL d   1     -49.518  12.476  23.313  0.00  0.00     0.001 A 
ATOM     11  C   UNL d   1     -50.382  12.390  23.337  0.00  0.00     0.000 C 
ENDROOT
BRANCH   1  12
ATOM     12  C   UNL d   1     -46.510  13.116  23.112  0.00  0.00     0.299 C 
ATOM     13  O   UNL d   1     -46.190  13.592  23.698  0.00  0.00    -0.264 OA
ATOM     14  N   UNL d   1     -46.241  13.207  22.310  0.00  0.00    -0.102 N 
ENDBRANCH   1  12
TORSDOF 1
ENDMDL
MODEL 3
REMARK VINA RESULT:      -7.0      2.028      2.859
REMARK  1 active torsions:
REMARK  status: ('A' for Active; 'I' for Inactive)
REMARK    1  A    between atoms: C_6  and  C_1 
ROOT
ATOM      1  C   UNL d   1     -48.936  12.281  22.667  0.00  0.00     0.085 A 
ATOM      2  C   UNL d   1     -49.180  12.510  21.909  0.00  0.00     0.137 A 
ATOM      3  C   UNL d   1     -48.175  12.526  22.782  0.00  0.00     0.013 A 
ATOM      4  C   UNL d   1     -47.942  12.908  22.096  0.00  0.00     0.031 A 
ATOM      5  S   UNL d   1     -48.573  12.892  21.564  0.00  0.00    -0.066 SA
ATOM      6  C   UNL d   1     -47.654  12.454  23.419  0.00  0.00     0.001 A 
ATOM      7  C   UNL d   1     -47.201  13.217  22.039  0.00  0.00     0.006 A 
ATOM      8  N   UNL d   1     -49.951  12.368  21.547  0.00  0.00    -0.141 N 
ATOM      9  C   UNL d   1     -46.913  12.759  23.374  0.00  0.00     0.000 A 
ATOM     10  C   UNL d   1     -46.679  13.156  22.654  0.00  0.00     0.001 A 
ATOM     11  C   UNL d   1     -45.881  13.491  22.589  0.00  0.00     0.000 C 
ENDROOT
BRANCH   1  12
ATOM     12  C   UNL d   1     -49.420  11.861  23.216  0.00  0.00     0.299 C 
ATOM     13  O   UNL d   1     -49.346  11.048  23.290  0.00  0.00    -0.264 OA
ATOM     14  N   UNL d   1     -49.987  12.272  23.696  0.00  0.00    -0.102 N 
ENDBRANCH   1  12
TORSDOF 1
ENDMDL
MODEL 4
REMARK VINA RESULT:      -6.9      2.307      2.948
REMARK  1 active torsions:
REMARK  status: ('A' for Active; 'I' for Inactive)
REMARK    1  A    between atoms: C_6  and  C_1 
ROOT
ATOM      1  C   UNL d   1     -48.980  14.340  22.379  0.00  0.00     0.085 A 
ATOM      2  C   UNL d   1     -49.330  13.742  21.925  0.00  0.00     0.137 A 
ATOM      3  C   UNL d   1     -48.200  14.162  22.489  0.00  0.00     0.013 A 
ATOM      4  C   UNL d   1     -48.061  13.453  22.103  0.00  0.00     0.031 A 
ATOM      5  S   UNL d   1     -48.768  13.203  21.759  0.00  0.00    -0.066 SA
ATOM      6  C   UNL d   1     -47.588  14.549  22.889  0.00  0.00     0.001 A 
ATOM      7  C   UNL d   1     -47.324  13.127  22.112  0.00  0.00     0.006 A 
ATOM      8  N   UNL d   1     -50.154  13.698  21.671  0.00  0.00    -0.141 N 
ATOM      9  C   UNL d   1     -46.850  14.234  22.904  0.00  0.00     0.000 A 
ATOM     10  C   UNL d   1     -46.716  13.493  22.499  0.00  0.00     0.001 A 
ATOM     11  C   UNL d   1     -45.923  13.139  22.506  0.00  0.00     0.000 C 
ENDROOT
BRANCH   1  12
ATOM     12  C   UNL d   1     -49.390  15.017  22.671  0.00  0.00     0.299 C 
ATOM     13  O   UNL d   1     -49.427  15.700  22.219  0.00  0.00    -0.264 OA
ATOM     14  N   UNL d   1     -49.767  15.001  23.432  0.00  0.00    -0.102 N 
ENDBRANCH   1  12
TORSDOF 1
ENDMDL
MODEL 5
REMARK VINA RESULT:      -6.9      1.460      2.159
REMARK  1 active torsions:
REMARK  status: ('A' for Active; 'I' for Inactive)
REMARK    1  A    between atoms: C_6  and  C_1 
ROOT
ATOM      1  C   UNL d   1     -48.285  13.560  22.875  0.00  0.00     0.085 A 
ATOM      2  C   UNL d   1     -47.750  14.183  22.772  0.00  0.00     0.137 A 
ATOM      3  C   UNL d   1     -47.876  12.896  23.087  0.00  0.00     0.013 A 
ATOM      4  C   UNL d   1     -47.084  13.104  23.115  0.00  0.00     0.031 A 
ATOM      5  S   UNL d   1     -47.019  13.903  22.918  0.00  0.00    -0.066 SA
ATOM      6  C   UNL d   1     -48.113  12.123  23.259  0.00  0.00     0.001 A 
ATOM      7  C   UNL d   1     -46.530  12.554  23.312  0.00  0.00     0.006 A 
ATOM      8  N   UNL d   1     -47.936  14.996  22.545  0.00  0.00    -0.141 N 
ATOM      9  C   UNL d   1     -47.570  11.566  23.457  0.00  0.00     0.000 A 
ATOM     10  C   UNL d   1     -46.746  11.793  23.484  0.00  0.00     0.001 A 
ATOM     11  C   UNL d   1     -46.146  11.203  23.696  0.00  0.00     0.000 C 
ENDROOT
BRANCH   1  12
ATOM     12  C   UNL d   1     -49.119  13.627  22.772  0.00  0.00     0.299 C 
ATOM     13  O   UNL d   1     -49.599  13.804  23.412  0.00  0.00    -0.264 OA
ATOM     14  N   UNL d   1     -49.472  13.513  22.007  0.00  0.00    -0.102 N 
ENDBRANCH   1  12
TORSDOF 1
ENDMDL
MODEL 6
REMARK VINA RESULT:      -6.8      1.756      2.753
REMARK  1 active torsions:
REMARK  status: ('A' for Active; 'I' for Inactive)
REMARK    1  A    between atoms: C_6  and  C_1 
ROOT
ATOM      1  C   UNL d   1     -47.975  12.249  23.091  0.00  0.00     0.085 A 
ATOM      2  C   UNL d   1     -47.197  12.235  23.376  0.00  0.00     0.137 A 
ATOM      3  C   UNL d   1     -48.154  13.002  22.859  0.00  0.00     0.013 A 
ATOM      4  C   UNL d   1     -47.488  13.459  22.998  0.00  0.00     0.031 A 
ATOM      5  S   UNL d   1     -46.903  12.972  23.318  0.00  0.00    -0.066 SA
ATOM      6  C   UNL d   1     -48.835  13.342  22.537  0.00  0.00     0.001 A 
ATOM      7  C   UNL d   1     -47.494  14.244  22.822  0.00  0.00     0.006 A 
ATOM      8  N   UNL d   1     -46.769  11.550  23.683  0.00  0.00    -0.141 N 
ATOM      9  C   UNL d   1     -48.853  14.124  22.357  0.00  0.00     0.000 A 
ATOM     10  C   UNL d   1     -48.153  14.591  22.506  0.00  0.00     0.001 A 
ATOM     11  C   UNL d   1     -48.156  15.439  22.316  0.00  0.00     0.000 C 
ENDROOT
BRANCH   1  12
ATOM     12  C   UNL d   1     -48.482  11.577  23.058  0.00  0.00     0.299 C 
ATOM     13  O   UNL d   1     -48.466  11.083  22.403  0.00  0.00    -0.264 OA
ATOM     14  N   UNL d   1     -49.013  11.402  23.697  0.00  0.00    -0.102 N 
ENDBRANCH   1  12
TORSDOF 1
ENDMDL
