MODEL 1
REMARK VINA RESULT:      26.9      0.000      0.000
REMARK  3 active torsions:
REMARK  status: ('A' for Active; 'I' for Inactive)
REMARK    1  A    between atoms: N_7  and  C_1 
REMARK    2  A    between atoms: N_10  and  N_7 
REMARK    3  A    between atoms: C_17  and  N_10 
ROOT
ATOM      1  N   UNL d   1      45.719 -16.123  43.891  0.00  0.00    -0.148 NA
ENDROOT
BRANCH   1   2
ATOM      2  N   UNL d   1      45.634 -15.591  44.531  0.00  0.00    -0.138 NA
BRANCH   2   3
ATOM      3  C   UNL d   1      45.391 -14.840  44.384  0.00  0.00     0.218 A 
ATOM      4  C   UNL d   1      45.868 -14.307  44.044  0.00  0.00     0.307 A 
ATOM      5  N   UNL d   1      45.602 -13.550  43.903  0.00  0.00    -0.150 NA
ATOM      6  O   UNL d   1      46.646 -14.531  43.831  0.00  0.00    -0.263 OA
ATOM      7  C   UNL d   1      44.889 -13.313  44.087  0.00  0.00     0.374 A 
ATOM      8  N   UNL d   1      44.374 -13.858  44.444  0.00  0.00    -0.150 NA
ATOM      9  O   UNL d   1      44.655 -12.519  43.923  0.00  0.00    -0.242 OA
ATOM     10  C   UNL d   1      44.612 -14.616  44.596  0.00  0.00     0.307 A 
ATOM     11  O   UNL d   1      44.088 -15.154  44.955  0.00  0.00    -0.263 OA
ENDBRANCH   2   3
ENDBRANCH   1   2
BRANCH   1  12
ATOM     12  C   UNL d   1      45.899 -16.920  44.055  0.00  0.00     0.105 A 
ATOM     13  C   UNL d   1      46.052 -17.383  43.402  0.00  0.00     0.048 A 
ATOM     14  C   UNL d   1      46.235 -18.180  43.514  0.00  0.00     0.124 A 
ATOM     15  O   UNL d   1      46.389 -18.644  42.861  0.00  0.00    -0.301 OA
ATOM     16  C   UNL d   1      46.263 -18.505  44.288  0.00  0.00     0.123 A 
ATOM     17  C   UNL d   1      46.572 -19.441  42.973  0.00  0.00     0.149 A 
ATOM     18  C   UNL d   1      46.600 -19.766  43.747  0.00  0.00     0.149 A 
ATOM     19  O   UNL d   1      46.443 -19.290  44.399  0.00  0.00    -0.301 OA
ATOM     20  C   UNL d   1      46.107 -18.029  44.941  0.00  0.00     0.028 A 
ATOM     21  C   UNL d   1      45.926 -17.245  44.829  0.00  0.00     0.023 A 
ENDBRANCH   1  12
TORSDOF 3
ENDMDL
