MODEL 1
REMARK VINA RESULT:      -6.2      0.000      0.000
REMARK  4 active torsions:
REMARK  status: ('A' for Active; 'I' for Inactive)
REMARK    1  A    between atoms: C_2  and  S_1 
REMARK    2  A    between atoms: C_4  and  S_1 
REMARK    3  A    between atoms: C_3  and  C_2 
REMARK    4  A    between atoms: C_8  and  C_3 
ROOT
ATOM      1  S   UNL d   1     -41.447-122.621 -52.563  0.00  0.00     0.214 S 
ATOM      2  O   UNL d   1     -41.768-123.375 -52.656  0.00  0.00    -0.217 OA
ATOM      3  O   UNL d   1     -41.131-121.884 -52.466  0.00  0.00    -0.217 OA
ENDROOT
BRANCH   1   4
ATOM      4  C   UNL d   1     -41.311-122.795 -51.779  0.00  0.00     0.141 C 
BRANCH   4   5
ATOM      5  C   UNL d   1     -41.806-122.496 -51.207  0.00  0.00     0.207 C 
ATOM      6  O   UNL d   1     -42.293-121.898 -51.427  0.00  0.00    -0.286 OA
BRANCH   5   7
ATOM      7  C   UNL d   1     -41.801-122.797 -50.438  0.00  0.00     0.040 A 
ATOM      8  C   UNL d   1     -42.510-122.845 -50.017  0.00  0.00     0.003 A 
ATOM      9  C   UNL d   1     -42.506-123.145 -49.249  0.00  0.00     0.000 A 
ATOM     10  C   UNL d   1     -41.825-123.399 -48.887  0.00  0.00     0.000 A 
ATOM     11  C   UNL d   1     -41.123-123.351 -49.307  0.00  0.00     0.000 A 
ATOM     12  C   UNL d   1     -41.126-123.049 -50.076  0.00  0.00     0.003 A 
ENDBRANCH   5   7
ENDBRANCH   4   5
ENDBRANCH   1   4
BRANCH   1  13
ATOM     13  C   UNL d   1     -41.588-122.464 -53.343  0.00  0.00     0.088 A 
ATOM     14  C   UNL d   1     -41.174-122.875 -53.921  0.00  0.00     0.011 A 
ATOM     15  C   UNL d   1     -41.296-122.737 -54.729  0.00  0.00     0.001 A 
ATOM     16  C   UNL d   1     -41.870-122.151 -54.939  0.00  0.00     0.000 A 
ATOM     17  C   UNL d   1     -42.269-121.756 -54.369  0.00  0.00     0.001 A 
ATOM     18  C   UNL d   1     -42.026-121.979 -55.748  0.00  0.00     0.000 C 
ATOM     19  C   UNL d   1     -42.136-121.905 -53.566  0.00  0.00     0.011 A 
ENDBRANCH   1  13
TORSDOF 4
ENDMDL
MODEL 2
REMARK VINA RESULT:      -5.9      0.616      4.263
REMARK  4 active torsions:
REMARK  status: ('A' for Active; 'I' for Inactive)
REMARK    1  A    between atoms: C_2  and  S_1 
REMARK    2  A    between atoms: C_4  and  S_1 
REMARK    3  A    between atoms: C_3  and  C_2 
REMARK    4  A    between atoms: C_8  and  C_3 
ROOT
ATOM      1  S   UNL d   1     -41.350-122.744 -51.917  0.00  0.00     0.214 S 
ATOM      2  O   UNL d   1     -41.581-121.962 -51.794  0.00  0.00    -0.217 OA
ATOM      3  O   UNL d   1     -41.123-123.508 -52.044  0.00  0.00    -0.217 OA
ENDROOT
BRANCH   1   4
ATOM      4  C   UNL d   1     -41.228-122.564 -52.702  0.00  0.00     0.141 C 
BRANCH   4   5
ATOM      5  C   UNL d   1     -41.677-122.928 -53.275  0.00  0.00     0.207 C 
ATOM      6  O   UNL d   1     -42.044-123.609 -53.068  0.00  0.00    -0.286 OA
BRANCH   5   7
ATOM      7  C   UNL d   1     -41.747-122.605 -54.032  0.00  0.00     0.040 A 
ATOM      8  C   UNL d   1     -41.123-122.686 -54.566  0.00  0.00     0.003 A 
ATOM      9  C   UNL d   1     -41.192-122.364 -55.322  0.00  0.00     0.000 A 
ATOM     10  C   UNL d   1     -41.857-121.965 -55.564  0.00  0.00     0.000 A 
ATOM     11  C   UNL d   1     -42.475-121.886 -55.031  0.00  0.00     0.000 A 
ATOM     12  C   UNL d   1     -42.406-122.209 -54.274  0.00  0.00     0.003 A 
ENDBRANCH   5   7
ENDBRANCH   4   5
ENDBRANCH   1   4
BRANCH   1  13
ATOM     13  C   UNL d   1     -41.476-122.905 -51.136  0.00  0.00     0.088 A 
ATOM     14  C   UNL d   1     -41.123-123.564 -50.795  0.00  0.00     0.011 A 
ATOM     15  C   UNL d   1     -41.233-123.757 -49.997  0.00  0.00     0.001 A 
ATOM     16  C   UNL d   1     -41.728-123.244 -49.539  0.00  0.00     0.000 A 
ATOM     17  C   UNL d   1     -42.067-122.604 -49.880  0.00  0.00     0.001 A 
ATOM     18  C   UNL d   1     -41.867-123.401 -48.725  0.00  0.00     0.000 C 
ATOM     19  C   UNL d   1     -41.948-122.425 -50.679  0.00  0.00     0.011 A 
ENDBRANCH   1  13
TORSDOF 4
ENDMDL
MODEL 3
REMARK VINA RESULT:      -5.8      0.754      1.027
REMARK  4 active torsions:
REMARK  status: ('A' for Active; 'I' for Inactive)
REMARK    1  A    between atoms: C_2  and  S_1 
REMARK    2  A    between atoms: C_4  and  S_1 
REMARK    3  A    between atoms: C_3  and  C_2 
REMARK    4  A    between atoms: C_8  and  C_3 
ROOT
ATOM      1  S   UNL d   1     -41.301-122.956 -51.654  0.00  0.00     0.214 S 
ATOM      2  O   UNL d   1     -41.482-123.759 -51.710  0.00  0.00    -0.217 OA
ATOM      3  O   UNL d   1     -41.123-122.170 -51.593  0.00  0.00    -0.217 OA
ENDROOT
BRANCH   1   4
ATOM      4  C   UNL d   1     -41.268-123.039 -50.844  0.00  0.00     0.141 C 
BRANCH   4   5
ATOM      5  C   UNL d   1     -41.932-122.894 -50.396  0.00  0.00     0.207 C 
ATOM      6  O   UNL d   1     -42.572-122.605 -50.782  0.00  0.00    -0.286 OA
BRANCH   5   7
ATOM      7  C   UNL d   1     -41.938-123.040 -49.583  0.00  0.00     0.040 A 
ATOM      8  C   UNL d   1     -42.638-122.934 -49.158  0.00  0.00     0.003 A 
ATOM      9  C   UNL d   1     -42.645-123.079 -48.346  0.00  0.00     0.000 A 
ATOM     10  C   UNL d   1     -41.984-123.325 -47.945  0.00  0.00     0.000 A 
ATOM     11  C   UNL d   1     -41.290-123.430 -48.370  0.00  0.00     0.000 A 
ATOM     12  C   UNL d   1     -41.283-123.284 -49.182  0.00  0.00     0.003 A 
ENDBRANCH   5   7
ENDBRANCH   4   5
ENDBRANCH   1   4
BRANCH   1  13
ATOM     13  C   UNL d   1     -41.337-122.891 -52.459  0.00  0.00     0.088 A 
ATOM     14  C   UNL d   1     -41.250-123.562 -52.924  0.00  0.00     0.011 A 
ATOM     15  C   UNL d   1     -41.282-123.529 -53.751  0.00  0.00     0.001 A 
ATOM     16  C   UNL d   1     -41.409-122.770 -54.104  0.00  0.00     0.000 A 
ATOM     17  C   UNL d   1     -41.492-122.121 -53.641  0.00  0.00     0.001 A 
ATOM     18  C   UNL d   1     -41.448-122.689 -54.940  0.00  0.00     0.000 C 
ATOM     19  C   UNL d   1     -41.457-122.171 -52.817  0.00  0.00     0.011 A 
ENDBRANCH   1  13
TORSDOF 4
ENDMDL
MODEL 4
REMARK VINA RESULT:      -5.4      0.690      4.310
REMARK  4 active torsions:
REMARK  status: ('A' for Active; 'I' for Inactive)
REMARK    1  A    between atoms: C_2  and  S_1 
REMARK    2  A    between atoms: C_4  and  S_1 
REMARK    3  A    between atoms: C_3  and  C_2 
REMARK    4  A    between atoms: C_8  and  C_3 
ROOT
ATOM      1  S   UNL d   1     -41.678-122.575 -51.144  0.00  0.00     0.214 S 
ATOM      2  O   UNL d   1     -41.123-123.185 -51.126  0.00  0.00    -0.217 OA
ATOM      3  O   UNL d   1     -42.219-121.976 -51.168  0.00  0.00    -0.217 OA
ENDROOT
BRANCH   1   4
ATOM      4  C   UNL d   1     -41.467-122.432 -51.918  0.00  0.00     0.141 C 
BRANCH   4   5
ATOM      5  C   UNL d   1     -41.677-122.961 -52.499  0.00  0.00     0.207 C 
ATOM      6  O   UNL d   1     -41.937-123.679 -52.257  0.00  0.00    -0.286 OA
BRANCH   5   7
ATOM      7  C   UNL d   1     -41.622-122.761 -53.298  0.00  0.00     0.040 A 
ATOM      8  C   UNL d   1     -41.192-123.248 -53.809  0.00  0.00     0.003 A 
ATOM      9  C   UNL d   1     -41.136-123.049 -54.607  0.00  0.00     0.000 A 
ATOM     10  C   UNL d   1     -41.492-122.387 -54.914  0.00  0.00     0.000 A 
ATOM     11  C   UNL d   1     -41.919-121.906 -54.405  0.00  0.00     0.000 A 
ATOM     12  C   UNL d   1     -41.974-122.105 -53.606  0.00  0.00     0.003 A 
ENDBRANCH   5   7
ENDBRANCH   4   5
ENDBRANCH   1   4
BRANCH   1  13
ATOM     13  C   UNL d   1     -41.875-122.730 -50.376  0.00  0.00     0.088 A 
ATOM     14  C   UNL d   1     -42.630-122.554 -50.107  0.00  0.00     0.011 A 
ATOM     15  C   UNL d   1     -42.863-122.701 -49.326  0.00  0.00     0.001 A 
ATOM     16  C   UNL d   1     -42.287-123.044 -48.809  0.00  0.00     0.000 A 
ATOM     17  C   UNL d   1     -41.553-123.212 -49.080  0.00  0.00     0.001 A 
ATOM     18  C   UNL d   1     -42.480-123.210 -48.007  0.00  0.00     0.000 C 
ATOM     19  C   UNL d   1     -41.336-123.060 -49.863  0.00  0.00     0.011 A 
ENDBRANCH   1  13
TORSDOF 4
ENDMDL
