MODEL 1
REMARK VINA RESULT:      68.0      0.000      0.000
REMARK  8 active torsions:
REMARK  status: ('A' for Active; 'I' for Inactive)
REMARK    1  A    between atoms: C_2  and  C_1 
REMARK    2  A    between atoms: C_12  and  C_5 
REMARK    3  A    between atoms: C_14  and  C_6 
REMARK    4  A    between atoms: O_20  and  C_13 
REMARK    5  A    between atoms: O_21  and  C_14 
REMARK    6  A    between atoms: O_23  and  C_15 
REMARK    7  A    between atoms: O_22  and  C_16 
REMARK    8  A    between atoms: C_26  and  O_21 
ROOT
ATOM      1  C   UNL d   1     -49.692  27.612  33.884  0.00  0.00     0.206 A 
ATOM      2  O   UNL d   1     -49.591  28.380  34.261  0.00  0.00    -0.268 OA
ATOM      3  N   UNL d   1     -48.906  27.306  33.693  0.00  0.00    -0.121 NA
ATOM      4  C   UNL d   1     -48.744  28.553  34.306  0.00  0.00     0.205 A 
ATOM      5  N   UNL d   1     -48.315  27.881  33.950  0.00  0.00    -0.121 NA
ENDROOT
BRANCH   1   6
ATOM      6  C   UNL d   1     -50.409  27.245  33.737  0.00  0.00     0.061 A 
ATOM      7  C   UNL d   1     -50.476  26.440  33.843  0.00  0.00     0.012 A 
ATOM      8  C   UNL d   1     -51.179  26.065  33.701  0.00  0.00     0.081 A 
ATOM      9  C   UNL d   1     -51.829  26.496  33.450  0.00  0.00     0.086 A 
ATOM     10  N   UNL d   1     -51.766  27.296  33.344  0.00  0.00    -0.245 NA
ATOM     11  C   UNL d   1     -52.532  26.121  33.309  0.00  0.00     0.021 C 
ATOM     12  C   UNL d   1     -51.058  27.677  33.486  0.00  0.00     0.085 A 
ATOM     13  C   UNL d   1     -51.000  28.480  33.378  0.00  0.00     0.021 C 
BRANCH   8  14
ATOM     14  C   UNL d   1     -51.240  25.270  33.807  0.00  0.00     0.302 C 
ATOM     15  O   UNL d   1     -51.740  24.971  34.375  0.00  0.00    -0.259 OA
BRANCH  14  16
ATOM     16  O   UNL d   1     -50.805  24.757  33.352  0.00  0.00    -0.271 OA
BRANCH  16  17
ATOM     17  C   UNL d   1     -50.753  23.976  33.560  0.00  0.00     0.126 C 
ATOM     18  C   UNL d   1     -51.331  23.443  33.306  0.00  0.00     0.029 C 
ENDBRANCH  16  17
ENDBRANCH  14  16
ENDBRANCH   8  14
ENDBRANCH   1   6
BRANCH   4  19
ATOM     19  C   UNL d   1     -48.379  29.273  34.646  0.00  0.00     0.047 A 
ATOM     20  C   UNL d   1     -48.421  30.015  34.213  0.00  0.00     0.030 A 
ATOM     21  C   UNL d   1     -48.062  30.727  34.546  0.00  0.00     0.118 A 
ATOM     22  C   UNL d   1     -47.658  30.692  35.321  0.00  0.00     0.138 A 
ATOM     23  C   UNL d   1     -47.621  29.939  35.750  0.00  0.00     0.118 A 
ATOM     24  C   UNL d   1     -47.982  29.229  35.412  0.00  0.00     0.030 A 
BRANCH  21  25
ATOM     25  O   UNL d   1     -47.917  31.577  34.413  0.00  0.00    -0.326 OA
ATOM     26  C   UNL d   1     -48.351  32.006  33.796  0.00  0.00     0.181 C 
ENDBRANCH  21  25
BRANCH  22  27
ATOM     27  O   UNL d   1     -47.300  31.404  35.653  0.00  0.00    -0.324 OA
ATOM     28  C   UNL d   1     -47.313  32.143  35.203  0.00  0.00     0.182 C 
ENDBRANCH  22  27
BRANCH  23  29
ATOM     29  O   UNL d   1     -47.221  29.901  36.518  0.00  0.00    -0.326 OA
ATOM     30  C   UNL d   1     -47.216  29.162  36.967  0.00  0.00     0.181 C 
ENDBRANCH  23  29
ENDBRANCH   4  19
TORSDOF 8
ENDMDL
