MODEL 1
REMARK VINA RESULT:      -2.8      0.000      0.000
REMARK  3 active torsions:
REMARK  status: ('A' for Active; 'I' for Inactive)
REMARK    1  A    between atoms: C_6  and  N_3 
REMARK    2  A    between atoms: C_5  and  C_4 
REMARK    3  A    between atoms: O_18  and  C_14 
ROOT
ATOM      1  C   UNL d   1      31.718  16.091 -24.792  0.00  0.00     0.366 A 
ATOM      2  C   UNL d   1      32.457  16.401 -24.595  0.00  0.00     0.308 A 
ATOM      3  N   UNL d   1      32.119  17.094 -24.351  0.00  0.00    -0.272 N 
ATOM      4  C   UNL d   1      31.356  16.791 -24.548  0.00  0.00     0.115 A 
ATOM      5  O   UNL d   1      33.235  16.132 -24.626  0.00  0.00    -0.265 OA
ATOM      6  F   UNL d   1      32.205  15.457 -24.998  0.00  0.00    -0.188 F 
ATOM      7  F   UNL d   1      31.237  15.490 -25.080  0.00  0.00    -0.188 F 
ENDROOT
BRANCH   3   8
ATOM      8  C   UNL d   1      32.392  17.824 -24.032  0.00  0.00     0.067 A 
ATOM      9  C   UNL d   1      32.420  17.924 -23.223  0.00  0.00     0.020 A 
ATOM     10  C   UNL d   1      32.686  18.634 -22.895  0.00  0.00     0.026 A 
ATOM     11  C   UNL d   1      32.922  19.237 -23.406  0.00  0.00     0.094 A 
ATOM     12  C   UNL d   1      32.900  19.150 -24.222  0.00  0.00     0.026 A 
ATOM     13  C   UNL d   1      32.634  18.440 -24.549  0.00  0.00     0.020 A 
BRANCH  11  14
ATOM     14  O   UNL d   1      33.195  19.963 -23.085  0.00  0.00    -0.328 OA
ATOM     15  C   UNL d   1      33.065  20.139 -22.281  0.00  0.00     0.181 C 
ENDBRANCH  11  14
ENDBRANCH   3   8
BRANCH   4  16
ATOM     16  C   UNL d   1      30.578  17.083 -24.507  0.00  0.00     0.045 A 
ATOM     17  C   UNL d   1      30.090  16.839 -23.899  0.00  0.00     0.141 A 
ATOM     18  F   UNL d   1      30.363  16.299 -23.316  0.00  0.00    -0.204 F 
ATOM     19  C   UNL d   1      29.302  17.144 -23.869  0.00  0.00     0.030 A 
ATOM     20  C   UNL d   1      29.061  17.669 -24.448  0.00  0.00     0.002 A 
ATOM     21  C   UNL d   1      29.544  17.914 -25.056  0.00  0.00     0.000 A 
ATOM     22  C   UNL d   1      30.325  17.621 -25.097  0.00  0.00     0.004 A 
ENDBRANCH   4  16
TORSDOF 3
ENDMDL
MODEL 2
REMARK VINA RESULT:      -1.7      1.969      3.762
REMARK  3 active torsions:
REMARK  status: ('A' for Active; 'I' for Inactive)
REMARK    1  A    between atoms: C_6  and  N_3 
REMARK    2  A    between atoms: C_5  and  C_4 
REMARK    3  A    between atoms: O_18  and  C_14 
ROOT
ATOM      1  C   UNL d   1      31.903  18.184 -24.680  0.00  0.00     0.366 A 
ATOM      2  C   UNL d   1      31.090  18.255 -24.804  0.00  0.00     0.308 A 
ATOM      3  N   UNL d   1      30.968  17.501 -24.538  0.00  0.00    -0.272 N 
ATOM      4  C   UNL d   1      31.797  17.413 -24.406  0.00  0.00     0.115 A 
ATOM      5  O   UNL d   1      30.587  18.844 -25.084  0.00  0.00    -0.265 OA
ATOM      6  F   UNL d   1      31.864  18.955 -24.973  0.00  0.00    -0.188 F 
ATOM      7  F   UNL d   1      32.668  18.483 -24.700  0.00  0.00    -0.188 F 
ENDROOT
BRANCH   3   8
ATOM      8  C   UNL d   1      30.303  16.996 -24.429  0.00  0.00     0.067 A 
ATOM      9  C   UNL d   1      29.925  16.978 -23.707  0.00  0.00     0.020 A 
ATOM     10  C   UNL d   1      29.271  16.488 -23.585  0.00  0.00     0.026 A 
ATOM     11  C   UNL d   1      29.012  16.018 -24.211  0.00  0.00     0.094 A 
ATOM     12  C   UNL d   1      29.383  16.025 -24.943  0.00  0.00     0.026 A 
ATOM     13  C   UNL d   1      30.036  16.515 -25.065  0.00  0.00     0.020 A 
BRANCH  11  14
ATOM     14  O   UNL d   1      28.349  15.516 -24.100  0.00  0.00    -0.328 OA
ATOM     15  C   UNL d   1      27.699  15.776 -23.648  0.00  0.00     0.181 C 
ENDBRANCH  11  14
ENDBRANCH   3   8
BRANCH   4  16
ATOM     16  C   UNL d   1      32.286  16.804 -24.120  0.00  0.00     0.045 A 
ATOM     17  C   UNL d   1      32.590  16.857 -23.363  0.00  0.00     0.141 A 
ATOM     18  F   UNL d   1      32.415  17.515 -22.872  0.00  0.00    -0.204 F 
ATOM     19  C   UNL d   1      33.085  16.231 -23.085  0.00  0.00     0.030 A 
ATOM     20  C   UNL d   1      33.241  15.600 -23.582  0.00  0.00     0.002 A 
ATOM     21  C   UNL d   1      32.940  15.544 -24.337  0.00  0.00     0.000 A 
ATOM     22  C   UNL d   1      32.449  16.156 -24.624  0.00  0.00     0.004 A 
ENDBRANCH   4  16
TORSDOF 3
ENDMDL
MODEL 3
REMARK VINA RESULT:      -0.7      1.425      3.103
REMARK  3 active torsions:
REMARK  status: ('A' for Active; 'I' for Inactive)
REMARK    1  A    between atoms: C_6  and  N_3 
REMARK    2  A    between atoms: C_5  and  C_4 
REMARK    3  A    between atoms: O_18  and  C_14 
ROOT
ATOM      1  C   UNL d   1      32.432  16.405 -24.466  0.00  0.00     0.366 A 
ATOM      2  C   UNL d   1      31.668  16.155 -24.654  0.00  0.00     0.308 A 
ATOM      3  N   UNL d   1      31.368  16.885 -24.478  0.00  0.00    -0.272 N 
ATOM      4  C   UNL d   1      32.143  17.156 -24.281  0.00  0.00     0.115 A 
ATOM      5  O   UNL d   1      31.328  15.453 -24.917  0.00  0.00    -0.265 OA
ATOM      6  F   UNL d   1      32.581  15.622 -24.681  0.00  0.00    -0.188 F 
ATOM      7  F   UNL d   1      33.239  16.274 -24.386  0.00  0.00    -0.188 F 
ENDROOT
BRANCH   3   8
ATOM      8  C   UNL d   1      30.607  17.246 -24.481  0.00  0.00     0.067 A 
ATOM      9  C   UNL d   1      30.417  17.778 -25.069  0.00  0.00     0.020 A 
ATOM     10  C   UNL d   1      29.675  18.140 -25.086  0.00  0.00     0.026 A 
ATOM     11  C   UNL d   1      29.133  17.949 -24.494  0.00  0.00     0.094 A 
ATOM     12  C   UNL d   1      29.310  17.415 -23.897  0.00  0.00     0.026 A 
ATOM     13  C   UNL d   1      30.052  17.053 -23.881  0.00  0.00     0.020 A 
BRANCH  11  14
ATOM     14  O   UNL d   1      28.375  18.310 -24.500  0.00  0.00    -0.328 OA
ATOM     15  C   UNL d   1      28.097  18.708 -23.823  0.00  0.00     0.181 C 
ENDBRANCH  11  14
ENDBRANCH   3   8
BRANCH   4  16
ATOM     16  C   UNL d   1      32.465  17.875 -24.016  0.00  0.00     0.045 A 
ATOM     17  C   UNL d   1      32.627  17.972 -23.221  0.00  0.00     0.141 A 
ATOM     18  F   UNL d   1      32.473  17.356 -22.671  0.00  0.00    -0.204 F 
ATOM     19  C   UNL d   1      32.954  18.707 -22.963  0.00  0.00     0.030 A 
ATOM     20  C   UNL d   1      33.095  19.292 -23.519  0.00  0.00     0.002 A 
ATOM     21  C   UNL d   1      32.935  19.200 -24.313  0.00  0.00     0.000 A 
ATOM     22  C   UNL d   1      32.612  18.477 -24.579  0.00  0.00     0.004 A 
ENDBRANCH   4  16
TORSDOF 3
ENDMDL
