MODEL 1
REMARK VINA RESULT:      56.1      0.000      0.000
REMARK  2 active torsions:
REMARK  status: ('A' for Active; 'I' for Inactive)
REMARK    1  A    between atoms: C_6  and  C_1 
REMARK       I    between atoms: N_11  and  C_6 
REMARK    2  A    between atoms: C_13  and  N_11 
ROOT
ATOM      1  C   UNL d   1      13.668  13.339  -3.175  0.00  0.00     0.108 A 
ATOM      2  C   UNL d   1      13.787  14.391  -3.962  0.00  0.00     0.044 A 
ATOM      3  C   UNL d   1      14.191  14.560  -3.264  0.00  0.00     0.112 A 
ATOM      4  S   UNL d   1      14.115  13.902  -2.776  0.00  0.00    -0.061 SA
ATOM      5  C   UNL d   1      13.474  13.658  -3.907  0.00  0.00     0.116 A 
ATOM      6  N   UNL d   1      14.577  15.291  -3.162  0.00  0.00    -0.239 NA
ATOM      7  C   UNL d   1      14.137  15.668  -4.475  0.00  0.00     0.057 A 
ATOM      8  C   UNL d   1      13.759  14.949  -4.573  0.00  0.00     0.008 A 
ATOM      9  C   UNL d   1      14.542  15.837  -3.778  0.00  0.00     0.085 A 
ATOM     10  C   UNL d   1      14.112  16.226  -5.081  0.00  0.00     0.197 A 
ATOM     11  N   UNL d   1      12.966  13.324  -4.660  0.00  0.00    -0.147 N 
ATOM     12  O   UNL d   1      13.613  16.005  -5.929  0.00  0.00    -0.286 OA
ATOM     13  C   UNL d   1      14.920  16.564  -3.688  0.00  0.00     0.019 A 
ATOM     14  C   UNL d   1      14.488  16.945  -4.988  0.00  0.00     0.042 A 
ATOM     15  C   UNL d   1      14.892  17.114  -4.291  0.00  0.00     0.005 A 
ENDROOT
BRANCH   1  16
ATOM     16  C   UNL d   1      13.396  12.446  -2.874  0.00  0.00     0.287 C 
ATOM     17  N   UNL d   1      13.520  11.779  -2.174  0.00  0.00    -0.205 NA
ATOM     18  O   UNL d   1      12.873  12.199  -3.440  0.00  0.00    -0.265 OA
BRANCH  17  19
ATOM     19  C   UNL d   1      14.058  11.926  -1.507  0.00  0.00     0.112 A 
ATOM     20  C   UNL d   1      13.747  11.931  -0.697  0.00  0.00     0.158 A 
ATOM     21  F   UNL d   1      12.772  11.793  -0.181  0.00  0.00    -0.203 F 
ATOM     22  C   UNL d   1      14.301  12.081  -0.017  0.00  0.00     0.031 A 
ATOM     23  C   UNL d   1      15.152  12.224  -0.167  0.00  0.00     0.002 A 
ATOM     24  C   UNL d   1      15.455  12.217  -0.990  0.00  0.00     0.002 A 
ATOM     25  C   UNL d   1      14.919  12.070  -1.671  0.00  0.00     0.021 A 
ENDBRANCH  17  19
ENDBRANCH   1  16
TORSDOF 2
ENDMDL
