MODEL 1
REMARK VINA RESULT:      86.1      0.000      0.000
REMARK  3 active torsions:
REMARK  status: ('A' for Active; 'I' for Inactive)
REMARK       I    between atoms: C_6  and  N_1 
REMARK    1  A    between atoms: C_11  and  C_5 
REMARK    2  A    between atoms: C_12  and  C_6 
REMARK    3  A    between atoms: C_14  and  C_15 
ROOT
ATOM      1  N   UNL d   1      59.483  49.648  52.352  0.00  0.00    -0.264 N 
ATOM      2  C   UNL d   1      60.112  49.667  52.890  0.00  0.00     0.198 A 
ATOM      3  C   UNL d   1      58.787  49.642  52.776  0.00  0.00     0.138 A 
ATOM      4  N   UNL d   1      59.805  49.672  53.645  0.00  0.00    -0.243 NA
ATOM      5  C   UNL d   1      58.981  49.657  53.577  0.00  0.00     0.105 A 
ATOM      6  C   UNL d   1      59.528  49.637  51.518  0.00  0.00     0.263 C 
ATOM      7  C   UNL d   1      60.614  49.685  53.542  0.00  0.00     0.041 A 
ATOM      8  C   UNL d   1      60.428  49.662  52.130  0.00  0.00     0.041 A 
ATOM      9  S   UNL d   1      58.022  49.624  52.457  0.00  0.00    -0.058 SA
ATOM     10  N   UNL d   1      61.755  49.693  52.673  0.00  0.00    -0.302 N 
ATOM     11  O   UNL d   1      60.260  49.645  51.145  0.00  0.00    -0.267 OA
ATOM     12  C   UNL d   1      61.253  49.675  52.021  0.00  0.00     0.080 A 
ATOM     13  C   UNL d   1      61.440  49.698  53.432  0.00  0.00     0.080 A 
ATOM     14  C   UNL d   1      62.573  49.706  52.564  0.00  0.00     0.100 C 
ENDROOT
BRANCH   6  15
ATOM     15  C   UNL d   1      58.839  49.619  51.077  0.00  0.00     0.056 A 
ATOM     16  C   UNL d   1      58.111  49.534  51.447  0.00  0.00     0.004 A 
ATOM     17  C   UNL d   1      57.422  49.516  51.001  0.00  0.00    -0.004 A 
ATOM     18  C   UNL d   1      57.461  49.583  50.179  0.00  0.00    -0.023 A 
ATOM     19  C   UNL d   1      58.189  49.668  49.808  0.00  0.00    -0.004 A 
ATOM     20  C   UNL d   1      58.879  49.686  50.258  0.00  0.00     0.004 A 
BRANCH  18  21
ATOM     21  C   UNL d   1      56.767  49.565  49.729  0.00  0.00     0.019 C 
ATOM     22  C   UNL d   1      56.318  49.552  50.427  0.00  0.00     0.004 C 
ATOM     23  C   UNL d   1      57.209  49.577  49.040  0.00  0.00     0.004 C 
ATOM     24  C   UNL d   1      56.069  49.547  49.280  0.00  0.00     0.004 C 
ENDBRANCH  18  21
ENDBRANCH   6  15
BRANCH   5  25
ATOM     25  C   UNL d   1      58.417  49.655  54.173  0.00  0.00     0.020 A 
ATOM     26  C   UNL d   1      58.649  49.688  54.968  0.00  0.00     0.004 A 
ATOM     27  C   UNL d   1      58.077  49.686  55.563  0.00  0.00     0.030 A 
ATOM     28  C   UNL d   1      57.274  49.652  55.368  0.00  0.00     0.140 A 
ATOM     29  C   UNL d   1      57.047  49.620  54.575  0.00  0.00     0.030 A 
ATOM     30  F   UNL d   1      56.702  49.650  55.973  0.00  0.00    -0.204 F 
ATOM     31  C   UNL d   1      57.610  49.621  53.979  0.00  0.00     0.004 A 
ENDBRANCH   5  25
TORSDOF 3
ENDMDL
