MODEL 1
REMARK VINA RESULT:     -10.2      0.000      0.000
REMARK  3 active torsions:
REMARK  status: ('A' for Active; 'I' for Inactive)
REMARK    1  A    between atoms: C_4  and  C_1 
REMARK    2  A    between atoms: C_7  and  C_4 
REMARK    3  A    between atoms: C_10  and  C_7 
ROOT
ATOM      1  C   UNL d   1      53.397  31.718  53.209  0.00  0.00     0.062 A 
ATOM      2  C   UNL d   1      52.753  31.956  52.752  0.00  0.00     0.279 A 
ATOM      3  N   UNL d   1      52.258  31.306  52.653  0.00  0.00    -0.208 NA
ATOM      4  C   UNL d   1      53.297  30.923  53.391  0.00  0.00     0.022 A 
ATOM      5  C   UNL d   1      52.597  30.667  53.051  0.00  0.00     0.085 A 
ATOM      6  O   UNL d   1      52.625  32.710  52.446  0.00  0.00    -0.265 OA
ATOM      7  C   UNL d   1      53.764  30.401  53.830  0.00  0.00     0.002 A 
ATOM      8  C   UNL d   1      52.356  29.878  53.147  0.00  0.00     0.019 A 
ATOM      9  C   UNL d   1      53.524  29.613  53.926  0.00  0.00     0.000 A 
ATOM     10  C   UNL d   1      52.818  29.360  53.581  0.00  0.00     0.002 A 
ENDROOT
BRANCH   1  11
ATOM     11  C   UNL d   1      54.027  32.194  53.441  0.00  0.00     0.047 C 
BRANCH  11  12
ATOM     12  C   UNL d   1      53.754  32.700  54.036  0.00  0.00     0.196 C 
ATOM     13  O   UNL d   1      52.948  32.792  54.160  0.00  0.00    -0.287 OA
BRANCH  12  14
ATOM     14  C   UNL d   1      54.296  33.110  54.503  0.00  0.00     0.039 A 
ATOM     15  C   UNL d   1      54.173  33.182  55.316  0.00  0.00     0.003 A 
ATOM     16  C   UNL d   1      54.709  33.588  55.785  0.00  0.00     0.000 A 
ATOM     17  C   UNL d   1      55.381  33.931  55.443  0.00  0.00     0.000 A 
ATOM     18  C   UNL d   1      55.505  33.860  54.631  0.00  0.00     0.000 A 
ATOM     19  C   UNL d   1      54.968  33.452  54.159  0.00  0.00     0.003 A 
ENDBRANCH  12  14
ENDBRANCH  11  12
ENDBRANCH   1  11
TORSDOF 3
ENDMDL
MODEL 2
REMARK VINA RESULT:     -10.0      1.704      3.785
REMARK  3 active torsions:
REMARK  status: ('A' for Active; 'I' for Inactive)
REMARK    1  A    between atoms: C_4  and  C_1 
REMARK    2  A    between atoms: C_7  and  C_4 
REMARK    3  A    between atoms: C_10  and  C_7 
ROOT
ATOM      1  C   UNL d   1      53.548  33.166  54.560  0.00  0.00     0.062 A 
ATOM      2  C   UNL d   1      54.237  33.465  54.900  0.00  0.00     0.279 A 
ATOM      3  N   UNL d   1      54.243  34.280  54.790  0.00  0.00    -0.208 NA
ATOM      4  C   UNL d   1      53.131  33.798  54.241  0.00  0.00     0.022 A 
ATOM      5  C   UNL d   1      53.555  34.485  54.381  0.00  0.00     0.085 A 
ATOM      6  O   UNL d   1      54.820  33.027  55.284  0.00  0.00    -0.265 OA
ATOM      7  C   UNL d   1      52.409  33.828  53.837  0.00  0.00     0.002 A 
ATOM      8  C   UNL d   1      53.259  35.214  54.116  0.00  0.00     0.019 A 
ATOM      9  C   UNL d   1      52.114  34.556  53.572  0.00  0.00     0.000 A 
ATOM     10  C   UNL d   1      52.545  35.244  53.716  0.00  0.00     0.002 A 
ENDROOT
BRANCH   1  11
ATOM     11  C   UNL d   1      53.320  32.375  54.543  0.00  0.00     0.047 C 
BRANCH  11  12
ATOM     12  C   UNL d   1      53.740  32.006  53.933  0.00  0.00     0.196 C 
ATOM     13  O   UNL d   1      54.385  32.381  53.592  0.00  0.00    -0.287 OA
BRANCH  12  14
ATOM     14  C   UNL d   1      53.506  31.260  53.672  0.00  0.00     0.039 A 
ATOM     15  C   UNL d   1      53.611  30.599  54.156  0.00  0.00     0.003 A 
ATOM     16  C   UNL d   1      53.381  29.855  53.902  0.00  0.00     0.000 A 
ATOM     17  C   UNL d   1      53.038  29.760  53.153  0.00  0.00     0.000 A 
ATOM     18  C   UNL d   1      52.933  30.420  52.669  0.00  0.00     0.000 A 
ATOM     19  C   UNL d   1      53.164  31.168  52.923  0.00  0.00     0.003 A 
ENDBRANCH  12  14
ENDBRANCH  11  12
ENDBRANCH   1  11
TORSDOF 3
ENDMDL
MODEL 3
REMARK VINA RESULT:      -9.8      1.811      2.896
REMARK  3 active torsions:
REMARK  status: ('A' for Active; 'I' for Inactive)
REMARK    1  A    between atoms: C_4  and  C_1 
REMARK    2  A    between atoms: C_7  and  C_4 
REMARK    3  A    between atoms: C_10  and  C_7 
ROOT
ATOM      1  C   UNL d   1      53.272  32.372  53.265  0.00  0.00     0.062 A 
ATOM      2  C   UNL d   1      53.877  32.557  53.795  0.00  0.00     0.279 A 
ATOM      3  N   UNL d   1      54.146  31.854  54.128  0.00  0.00    -0.208 NA
ATOM      4  C   UNL d   1      53.171  31.557  53.272  0.00  0.00     0.022 A 
ATOM      5  C   UNL d   1      53.707  31.235  53.802  0.00  0.00     0.085 A 
ATOM      6  O   UNL d   1      54.164  33.310  53.964  0.00  0.00    -0.265 OA
ATOM      7  C   UNL d   1      52.649  31.069  52.855  0.00  0.00     0.002 A 
ATOM      8  C   UNL d   1      53.725  30.414  53.921  0.00  0.00     0.019 A 
ATOM      9  C   UNL d   1      52.669  30.249  52.974  0.00  0.00     0.000 A 
ATOM     10  C   UNL d   1      53.210  29.929  53.509  0.00  0.00     0.002 A 
ENDROOT
BRANCH   1  11
ATOM     11  C   UNL d   1      52.848  32.911  52.810  0.00  0.00     0.047 C 
BRANCH  11  12
ATOM     12  C   UNL d   1      52.312  33.295  53.311  0.00  0.00     0.196 C 
ATOM     13  O   UNL d   1      52.441  33.306  54.121  0.00  0.00    -0.287 OA
BRANCH  12  14
ATOM     14  C   UNL d   1      51.649  33.666  52.989  0.00  0.00     0.039 A 
ATOM     15  C   UNL d   1      50.932  33.661  53.399  0.00  0.00     0.003 A 
ATOM     16  C   UNL d   1      50.270  34.027  53.085  0.00  0.00     0.000 A 
ATOM     17  C   UNL d   1      50.317  34.408  52.350  0.00  0.00     0.000 A 
ATOM     18  C   UNL d   1      51.032  34.414  51.940  0.00  0.00     0.000 A 
ATOM     19  C   UNL d   1      51.698  34.046  52.255  0.00  0.00     0.003 A 
ENDBRANCH  12  14
ENDBRANCH  11  12
ENDBRANCH   1  11
TORSDOF 3
ENDMDL
MODEL 4
REMARK VINA RESULT:      -9.6      1.869      3.708
REMARK  3 active torsions:
REMARK  status: ('A' for Active; 'I' for Inactive)
REMARK    1  A    between atoms: C_4  and  C_1 
REMARK    2  A    between atoms: C_7  and  C_4 
REMARK    3  A    between atoms: C_10  and  C_7 
ROOT
ATOM      1  C   UNL d   1      53.129  32.686  53.866  0.00  0.00     0.062 A 
ATOM      2  C   UNL d   1      53.521  32.027  53.561  0.00  0.00     0.279 A 
ATOM      3  N   UNL d   1      54.311  32.073  53.787  0.00  0.00    -0.208 NA
ATOM      4  C   UNL d   1      53.679  33.136  54.279  0.00  0.00     0.022 A 
ATOM      5  C   UNL d   1      54.406  32.762  54.233  0.00  0.00     0.085 A 
ATOM      6  O   UNL d   1      53.184  31.426  53.109  0.00  0.00    -0.265 OA
ATOM      7  C   UNL d   1      53.600  33.847  54.694  0.00  0.00     0.002 A 
ATOM      8  C   UNL d   1      55.067  33.099  54.605  0.00  0.00     0.019 A 
ATOM      9  C   UNL d   1      54.260  34.183  55.065  0.00  0.00     0.000 A 
ATOM     10  C   UNL d   1      54.990  33.803  55.016  0.00  0.00     0.002 A 
ENDROOT
BRANCH   1  11
ATOM     11  C   UNL d   1      52.330  32.859  53.773  0.00  0.00     0.047 C 
BRANCH  11  12
ATOM     12  C   UNL d   1      52.218  33.111  52.992  0.00  0.00     0.196 C 
ATOM     13  O   UNL d   1      52.774  32.926  52.417  0.00  0.00    -0.287 OA
BRANCH  12  14
ATOM     14  C   UNL d   1      51.545  33.546  52.797  0.00  0.00     0.039 A 
ATOM     15  C   UNL d   1      51.556  34.060  52.151  0.00  0.00     0.003 A 
ATOM     16  C   UNL d   1      50.891  34.495  51.953  0.00  0.00     0.000 A 
ATOM     17  C   UNL d   1      50.199  34.422  52.403  0.00  0.00     0.000 A 
ATOM     18  C   UNL d   1      50.187  33.910  53.049  0.00  0.00     0.000 A 
ATOM     19  C   UNL d   1      50.855  33.472  53.249  0.00  0.00     0.003 A 
ENDBRANCH  12  14
ENDBRANCH  11  12
ENDBRANCH   1  11
TORSDOF 3
ENDMDL
MODEL 5
REMARK VINA RESULT:      -9.3      1.431      2.385
REMARK  3 active torsions:
REMARK  status: ('A' for Active; 'I' for Inactive)
REMARK    1  A    between atoms: C_4  and  C_1 
REMARK    2  A    between atoms: C_7  and  C_4 
REMARK    3  A    between atoms: C_10  and  C_7 
ROOT
ATOM      1  C   UNL d   1      52.782  32.748  53.091  0.00  0.00     0.062 A 
ATOM      2  C   UNL d   1      52.455  32.002  52.962  0.00  0.00     0.279 A 
ATOM      3  N   UNL d   1      51.646  32.095  52.847  0.00  0.00    -0.208 NA
ATOM      4  C   UNL d   1      52.174  33.299  53.055  0.00  0.00     0.022 A 
ATOM      5  C   UNL d   1      51.474  32.901  52.904  0.00  0.00     0.085 A 
ATOM      6  O   UNL d   1      52.863  31.286  52.950  0.00  0.00    -0.265 OA
ATOM      7  C   UNL d   1      52.178  34.121  53.141  0.00  0.00     0.002 A 
ATOM      8  C   UNL d   1      50.764  33.327  52.839  0.00  0.00     0.019 A 
ATOM      9  C   UNL d   1      51.469  34.546  53.076  0.00  0.00     0.000 A 
ATOM     10  C   UNL d   1      50.767  34.141  52.925  0.00  0.00     0.002 A 
ENDROOT
BRANCH   1  11
ATOM     11  C   UNL d   1      53.577  32.909  53.231  0.00  0.00     0.047 C 
BRANCH  11  12
ATOM     12  C   UNL d   1      53.754  32.653  53.998  0.00  0.00     0.196 C 
ATOM     13  O   UNL d   1      53.358  32.010  54.319  0.00  0.00    -0.287 OA
BRANCH  12  14
ATOM     14  C   UNL d   1      54.329  33.049  54.437  0.00  0.00     0.039 A 
ATOM     15  C   UNL d   1      54.228  33.161  55.248  0.00  0.00     0.003 A 
ATOM     16  C   UNL d   1      54.796  33.554  55.689  0.00  0.00     0.000 A 
ATOM     17  C   UNL d   1      55.480  33.843  55.321  0.00  0.00     0.000 A 
ATOM     18  C   UNL d   1      55.581  33.732  54.510  0.00  0.00     0.000 A 
ATOM     19  C   UNL d   1      55.011  33.338  54.066  0.00  0.00     0.003 A 
ENDBRANCH  12  14
ENDBRANCH  11  12
ENDBRANCH   1  11
TORSDOF 3
ENDMDL
