MODEL 1
REMARK VINA RESULT:      51.6      0.000      0.000
REMARK  7 active torsions:
REMARK  status: ('A' for Active; 'I' for Inactive)
REMARK    1  A    between atoms: C_10  and  N_1 
REMARK    2  A    between atoms: S_12  and  C_2 
REMARK    3  A    between atoms: S_3  and  N_11 
REMARK    4  A    between atoms: C_7  and  S_3 
REMARK    5  A    between atoms: N_11  and  C_15 
REMARK    6  A    between atoms: C_19  and  S_12 
REMARK    7  A    between atoms: C_15  and  C_19 
ROOT
ATOM      1  C   UNL d   1     -48.843  28.978  34.500  0.00  0.00     0.060 C 
ENDROOT
BRANCH   1   2
ATOM      2  C   UNL d   1     -48.930  28.558  33.812  0.00  0.00     0.119 C 
BRANCH   2   3
ATOM      3  N   UNL d   1     -49.680  28.455  33.468  0.00  0.00    -0.156 NA
BRANCH   3   4
ATOM      4  S   UNL d   1     -50.019  27.704  33.437  0.00  0.00     0.285 S 
ATOM      5  O   UNL d   1     -50.801  28.049  33.423  0.00  0.00    -0.198 OA
ATOM      6  O   UNL d   1     -49.269  27.343  33.449  0.00  0.00    -0.198 OA
BRANCH   4   7
ATOM      7  C   UNL d   1     -50.384  26.943  33.404  0.00  0.00     0.105 A 
ATOM      8  C   UNL d   1     -51.197  26.907  33.367  0.00  0.00     0.013 A 
ATOM      9  C   UNL d   1     -51.561  26.180  33.335  0.00  0.00     0.001 A 
ATOM     10  C   UNL d   1     -51.107  25.483  33.339  0.00  0.00     0.000 A 
ATOM     11  C   UNL d   1     -50.298  25.537  33.376  0.00  0.00     0.001 A 
ATOM     12  C   UNL d   1     -51.487  24.734  33.306  0.00  0.00     0.000 C 
ATOM     13  C   UNL d   1     -49.930  26.246  33.408  0.00  0.00     0.013 A 
ENDBRANCH   4   7
ENDBRANCH   3   4
ENDBRANCH   2   3
ENDBRANCH   1   2
BRANCH   1  14
ATOM     14  S   UNL d   1     -48.394  29.640  34.527  0.00  0.00    -0.045 SA
BRANCH  14  15
ATOM     15  C   UNL d   1     -47.945  29.818  35.191  0.00  0.00     0.219 A 
ATOM     16  N   UNL d   1     -47.670  30.570  35.295  0.00  0.00    -0.186 N 
ATOM     17  N   UNL d   1     -47.239  30.594  36.001  0.00  0.00    -0.038 NA
ATOM     18  N   UNL d   1     -47.263  29.844  36.313  0.00  0.00    -0.022 NA
ATOM     19  N   UNL d   1     -47.685  29.371  35.834  0.00  0.00    -0.101 NA
BRANCH  16  20
ATOM     20  C   UNL d   1     -47.799  31.201  34.782  0.00  0.00     0.087 A 
ATOM     21  C   UNL d   1     -48.491  31.255  34.346  0.00  0.00     0.019 A 
ATOM     22  C   UNL d   1     -48.618  31.896  33.828  0.00  0.00     0.002 A 
ATOM     23  C   UNL d   1     -48.047  32.485  33.748  0.00  0.00     0.000 A 
ATOM     24  C   UNL d   1     -47.349  32.425  34.191  0.00  0.00     0.002 A 
ATOM     25  C   UNL d   1     -47.224  31.786  34.707  0.00  0.00     0.019 A 
ENDBRANCH  16  20
ENDBRANCH  14  15
ENDBRANCH   1  14
TORSDOF 7
ENDMDL
MODEL 2
REMARK VINA RESULT:      54.0      1.528      5.684
REMARK  7 active torsions:
REMARK  status: ('A' for Active; 'I' for Inactive)
REMARK    1  A    between atoms: C_10  and  N_1 
REMARK    2  A    between atoms: S_12  and  C_2 
REMARK    3  A    between atoms: S_3  and  N_11 
REMARK    4  A    between atoms: C_7  and  S_3 
REMARK    5  A    between atoms: N_11  and  C_15 
REMARK    6  A    between atoms: C_19  and  S_12 
REMARK    7  A    between atoms: C_15  and  C_19 
ROOT
ATOM      1  C   UNL d   1     -49.892  27.646  34.257  0.00  0.00     0.060 C 
ENDROOT
BRANCH   1   2
ATOM      2  C   UNL d   1     -49.230  28.112  34.255  0.00  0.00     0.119 C 
BRANCH   2   3
ATOM      3  N   UNL d   1     -48.856  28.325  34.967  0.00  0.00    -0.156 NA
BRANCH   3   4
ATOM      4  S   UNL d   1     -48.500  29.065  35.041  0.00  0.00     0.285 S 
ATOM      5  O   UNL d   1     -48.109  28.814  35.758  0.00  0.00    -0.198 OA
ATOM      6  O   UNL d   1     -48.870  29.334  34.345  0.00  0.00    -0.198 OA
BRANCH   4   7
ATOM      7  C   UNL d   1     -48.128  29.817  35.133  0.00  0.00     0.105 A 
ATOM      8  C   UNL d   1     -48.103  30.316  34.489  0.00  0.00     0.013 A 
ATOM      9  C   UNL d   1     -47.747  31.044  34.564  0.00  0.00     0.001 A 
ATOM     10  C   UNL d   1     -47.412  31.275  35.289  0.00  0.00     0.000 A 
ATOM     11  C   UNL d   1     -47.446  30.765  35.920  0.00  0.00     0.001 A 
ATOM     12  C   UNL d   1     -47.045  32.027  35.363  0.00  0.00     0.000 C 
ATOM     13  C   UNL d   1     -47.793  30.048  35.858  0.00  0.00     0.013 A 
ENDBRANCH   4   7
ENDBRANCH   3   4
ENDBRANCH   2   3
ENDBRANCH   1   2
BRANCH   1  14
ATOM     14  S   UNL d   1     -50.158  27.300  33.587  0.00  0.00    -0.045 SA
BRANCH  14  15
ATOM     15  C   UNL d   1     -50.951  27.108  33.495  0.00  0.00     0.219 A 
ATOM     16  N   UNL d   1     -51.164  26.337  33.389  0.00  0.00    -0.186 N 
ATOM     17  N   UNL d   1     -51.987  26.302  33.313  0.00  0.00    -0.038 NA
ATOM     18  N   UNL d   1     -52.258  27.066  33.376  0.00  0.00    -0.022 NA
ATOM     19  N   UNL d   1     -51.643  27.556  33.485  0.00  0.00    -0.101 NA
BRANCH  16  20
ATOM     20  C   UNL d   1     -50.646  25.697  33.362  0.00  0.00     0.087 A 
ATOM     21  C   UNL d   1     -49.834  25.812  33.338  0.00  0.00     0.019 A 
ATOM     22  C   UNL d   1     -49.313  25.162  33.311  0.00  0.00     0.002 A 
ATOM     23  C   UNL d   1     -49.609  24.392  33.308  0.00  0.00     0.000 A 
ATOM     24  C   UNL d   1     -50.430  24.282  33.333  0.00  0.00     0.002 A 
ATOM     25  C   UNL d   1     -50.949  24.931  33.360  0.00  0.00     0.019 A 
ENDBRANCH  16  20
ENDBRANCH  14  15
ENDBRANCH   1  14
TORSDOF 7
ENDMDL
