MODEL 1
REMARK VINA RESULT:      43.4      0.000      0.000
REMARK  6 active torsions:
REMARK  status: ('A' for Active; 'I' for Inactive)
REMARK    1  A    between atoms: C_6  and  N_2 
REMARK    2  A    between atoms: C_7  and  C_3 
REMARK    3  A    between atoms: C_8  and  C_6 
REMARK    4  A    between atoms: C_14  and  C_8 
REMARK    5  A    between atoms: C_9  and  O_12 
REMARK    6  A    between atoms: O_12  and  C_14 
ROOT
ATOM      1  N   UNL d   1     -59.861 -99.568 -43.420  0.00  0.00    -0.224 NA
ATOM      2  N   UNL d   1     -58.651 -99.005 -43.514  0.00  0.00    -0.286 N 
ATOM      3  C   UNL d   1     -59.266 -99.347 -43.967  0.00  0.00     0.191 A 
ATOM      4  C   UNL d   1     -58.860 -99.016 -42.723  0.00  0.00     0.083 A 
ATOM      5  C   UNL d   1     -59.643 -99.380 -42.663  0.00  0.00     0.099 A 
ATOM      6  C   UNL d   1     -58.467 -98.756 -42.060  0.00  0.00     0.019 A 
ATOM      7  C   UNL d   1     -59.954 -99.442 -41.891  0.00  0.00     0.021 A 
ATOM      8  C   UNL d   1     -58.831 -98.849 -41.343  0.00  0.00     0.002 A 
ATOM      9  C   UNL d   1     -59.562 -99.189 -41.286  0.00  0.00     0.002 A 
ENDROOT
BRANCH   2  10
ATOM     10  C   UNL d   1     -58.027 -98.758 -43.949  0.00  0.00     0.084 C 
BRANCH  10  11
ATOM     11  C   UNL d   1     -57.424 -99.266 -44.191  0.00  0.00     0.046 C 
BRANCH  11  12
ATOM     12  C   UNL d   1     -57.160 -99.316 -44.964  0.00  0.00     0.124 C 
BRANCH  12  13
ATOM     13  O   UNL d   1     -56.378 -99.447 -45.161  0.00  0.00    -0.305 OA
BRANCH  13  14
ATOM     14  C   UNL d   1     -55.845 -99.839 -44.669  0.00  0.00     0.100 A 
ATOM     15  C   UNL d   1     -55.250 -99.459 -44.245  0.00  0.00     0.025 A 
ATOM     16  C   UNL d   1     -54.718 -99.851 -43.754  0.00  0.00     0.002 A 
ATOM     17  C   UNL d   1     -54.786-100.683 -43.682  0.00  0.00     0.000 A 
ATOM     18  C   UNL d   1     -55.383-101.092 -44.102  0.00  0.00     0.002 A 
ATOM     19  C   UNL d   1     -55.913-100.671 -44.597  0.00  0.00     0.025 A 
ENDBRANCH  13  14
ENDBRANCH  12  13
ENDBRANCH  11  12
ENDBRANCH  10  11
ENDBRANCH   2  10
BRANCH   3  20
ATOM     20  C   UNL d   1     -58.902 -99.254 -44.684  0.00  0.00     0.271 C 
ATOM     21  O   UNL d   1     -59.321 -98.877 -45.307  0.00  0.00    -0.280 OA
ENDBRANCH   3  20
TORSDOF 6
ENDMDL
MODEL 2
REMARK VINA RESULT:      43.6      1.754      2.616
REMARK  6 active torsions:
REMARK  status: ('A' for Active; 'I' for Inactive)
REMARK    1  A    between atoms: C_6  and  N_2 
REMARK    2  A    between atoms: C_7  and  C_3 
REMARK    3  A    between atoms: C_8  and  C_6 
REMARK    4  A    between atoms: C_14  and  C_8 
REMARK    5  A    between atoms: C_9  and  O_12 
REMARK    6  A    between atoms: O_12  and  C_14 
ROOT
ATOM      1  N   UNL d   1     -57.179 -99.175 -43.100  0.00  0.00    -0.224 NA
ATOM      2  N   UNL d   1     -56.628 -98.905 -44.290  0.00  0.00    -0.286 N 
ATOM      3  C   UNL d   1     -56.444 -99.076 -43.491  0.00  0.00     0.191 A 
ATOM      4  C   UNL d   1     -57.441 -98.901 -44.384  0.00  0.00     0.083 A 
ATOM      5  C   UNL d   1     -57.797 -99.075 -43.615  0.00  0.00     0.099 A 
ATOM      6  C   UNL d   1     -57.905 -98.767 -45.039  0.00  0.00     0.019 A 
ATOM      7  C   UNL d   1     -58.631 -99.095 -43.598  0.00  0.00     0.021 A 
ATOM      8  C   UNL d   1     -58.709 -98.803 -44.948  0.00  0.00     0.002 A 
ATOM      9  C   UNL d   1     -59.041 -98.966 -44.229  0.00  0.00     0.002 A 
ENDROOT
BRANCH   2  10
ATOM     10  C   UNL d   1     -55.987 -98.792 -44.753  0.00  0.00     0.084 C 
BRANCH  10  11
ATOM     11  C   UNL d   1     -55.635 -99.401 -45.183  0.00  0.00     0.046 C 
BRANCH  11  12
ATOM     12  C   UNL d   1     -54.930 -99.757 -44.968  0.00  0.00     0.124 C 
BRANCH  12  13
ATOM     13  O   UNL d   1     -54.714-100.505 -45.213  0.00  0.00    -0.305 OA
BRANCH  13  14
ATOM     14  C   UNL d   1     -54.956-101.195 -44.832  0.00  0.00     0.100 A 
ATOM     15  C   UNL d   1     -55.402-101.786 -45.195  0.00  0.00     0.025 A 
ATOM     16  C   UNL d   1     -55.643-102.474 -44.814  0.00  0.00     0.002 A 
ATOM     17  C   UNL d   1     -55.423-102.581 -44.012  0.00  0.00     0.000 A 
ATOM     18  C   UNL d   1     -54.971-101.995 -43.622  0.00  0.00     0.002 A 
ATOM     19  C   UNL d   1     -54.736-101.302 -44.030  0.00  0.00     0.025 A 
ENDBRANCH  13  14
ENDBRANCH  12  13
ENDBRANCH  11  12
ENDBRANCH  10  11
ENDBRANCH   2  10
BRANCH   3  20
ATOM     20  C   UNL d   1     -55.640 -99.040 -43.582  0.00  0.00     0.271 C 
ATOM     21  O   UNL d   1     -55.171 -98.757 -42.946  0.00  0.00    -0.280 OA
ENDBRANCH   3  20
TORSDOF 6
ENDMDL
MODEL 3
REMARK VINA RESULT:      44.3      1.916      4.424
REMARK  6 active torsions:
REMARK  status: ('A' for Active; 'I' for Inactive)
REMARK    1  A    between atoms: C_6  and  N_2 
REMARK    2  A    between atoms: C_7  and  C_3 
REMARK    3  A    between atoms: C_8  and  C_6 
REMARK    4  A    between atoms: C_14  and  C_8 
REMARK    5  A    between atoms: C_9  and  O_12 
REMARK    6  A    between atoms: O_12  and  C_14 
ROOT
ATOM      1  N   UNL d   1     -54.956-101.208 -43.456  0.00  0.00    -0.224 NA
ATOM      2  N   UNL d   1     -54.932-100.046 -44.120  0.00  0.00    -0.286 N 
ATOM      3  C   UNL d   1     -54.984-100.377 -43.352  0.00  0.00     0.191 A 
ATOM      4  C   UNL d   1     -54.875-100.649 -44.670  0.00  0.00     0.083 A 
ATOM      5  C   UNL d   1     -54.891-101.400 -44.241  0.00  0.00     0.099 A 
ATOM      6  C   UNL d   1     -54.812-100.631 -45.481  0.00  0.00     0.019 A 
ATOM      7  C   UNL d   1     -54.838-102.087 -44.712  0.00  0.00     0.021 A 
ATOM      8  C   UNL d   1     -54.765-101.339 -45.873  0.00  0.00     0.002 A 
ATOM      9  C   UNL d   1     -54.780-102.040 -45.472  0.00  0.00     0.002 A 
ENDROOT
BRANCH   2  10
ATOM     10  C   UNL d   1     -54.949 -99.247 -44.129  0.00  0.00     0.084 C 
BRANCH  10  11
ATOM     11  C   UNL d   1     -55.371 -98.818 -44.693  0.00  0.00     0.046 C 
BRANCH  11  12
ATOM     12  C   UNL d   1     -56.188 -98.764 -44.701  0.00  0.00     0.124 C 
BRANCH  12  13
ATOM     13  O   UNL d   1     -56.668 -99.185 -44.192  0.00  0.00    -0.305 OA
BRANCH  13  14
ATOM     14  C   UNL d   1     -57.492 -99.155 -44.216  0.00  0.00     0.100 A 
ATOM     15  C   UNL d   1     -57.954 -98.785 -43.643  0.00  0.00     0.025 A 
ATOM     16  C   UNL d   1     -58.776 -98.756 -43.668  0.00  0.00     0.002 A 
ATOM     17  C   UNL d   1     -59.165 -99.123 -44.313  0.00  0.00     0.000 A 
ATOM     18  C   UNL d   1     -58.719 -99.505 -44.908  0.00  0.00     0.002 A 
ATOM     19  C   UNL d   1     -57.882 -99.522 -44.861  0.00  0.00     0.025 A 
ENDBRANCH  13  14
ENDBRANCH  12  13
ENDBRANCH  11  12
ENDBRANCH  10  11
ENDBRANCH   2  10
BRANCH   3  20
ATOM     20  C   UNL d   1     -55.031 -99.670 -42.961  0.00  0.00     0.271 C 
ATOM     21  O   UNL d   1     -54.873 -99.651 -42.136  0.00  0.00    -0.280 OA
ENDBRANCH   3  20
TORSDOF 6
ENDMDL
