MODEL 1
REMARK VINA RESULT:      -0.6      0.000      0.000
REMARK  7 active torsions:
REMARK  status: ('A' for Active; 'I' for Inactive)
REMARK    1  A    between atoms: C_11  and  C_4 
REMARK    2  A    between atoms: N_12  and  C_5 
REMARK    3  A    between atoms: C_10  and  C_8 
REMARK    4  A    between atoms: C_15  and  N_12 
REMARK    5  A    between atoms: N_13  and  C_19 
REMARK    6  A    between atoms: C_14  and  C_15 
REMARK    7  A    between atoms: C_19  and  C_14 
ROOT
ATOM      1  C   UNL d   1      30.334  17.547 -24.386  0.00  0.00     0.168 A 
ATOM      2  N   UNL d   1      30.831  18.158 -24.672  0.00  0.00    -0.184 N 
ATOM      3  N   UNL d   1      30.662  16.889 -24.030  0.00  0.00    -0.231 NA
ATOM      4  C   UNL d   1      29.531  17.608 -24.462  0.00  0.00     0.057 A 
ATOM      5  C   UNL d   1      31.629  18.076 -24.585  0.00  0.00     0.217 A 
ATOM      6  N   UNL d   1      29.700  18.862 -25.097  0.00  0.00    -0.160 NA
ATOM      7  C   UNL d   1      31.969  17.420 -24.229  0.00  0.00     0.067 A 
ATOM      8  C   UNL d   1      31.479  16.819 -23.948  0.00  0.00     0.064 A 
ATOM      9  C   UNL d   1      29.210  18.261 -24.816  0.00  0.00     0.124 A 
ENDROOT
BRANCH   5  10
ATOM     10  N   UNL d   1      32.134  18.697 -24.875  0.00  0.00    -0.380 NA
BRANCH  10  11
ATOM     11  C   UNL d   1      32.635  19.341 -25.095  0.00  0.00     0.164 C 
BRANCH  11  12
ATOM     12  C   UNL d   1      32.869  19.899 -24.495  0.00  0.00     0.054 C 
BRANCH  12  13
ATOM     13  C   UNL d   1      33.041  20.708 -24.720  0.00  0.00     0.083 C 
BRANCH  13  14
ATOM     14  N   UNL d   1      33.096  21.307 -24.123  0.00  0.00    -0.300 N 
ATOM     15  C   UNL d   1      32.907  21.916 -24.684  0.00  0.00     0.100 C 
ATOM     16  C   UNL d   1      33.241  21.523 -23.309  0.00  0.00     0.100 C 
ENDBRANCH  13  14
ENDBRANCH  12  13
ENDBRANCH  11  12
ENDBRANCH  10  11
ENDBRANCH   5  10
BRANCH   8  17
ATOM     17  C   UNL d   1      31.818  16.130 -23.576  0.00  0.00     0.036 C 
ATOM     18  C   UNL d   1      32.152  15.453 -23.203  0.00  0.00     0.006 C 
ATOM     19  C   UNL d   1      32.076  15.477 -24.055  0.00  0.00     0.006 C 
ATOM     20  C   UNL d   1      31.896  16.102 -22.725  0.00  0.00     0.006 C 
ENDBRANCH   8  17
BRANCH   4  21
ATOM     21  C   UNL d   1      29.042  17.006 -24.181  0.00  0.00     0.004 A 
ATOM     22  C   UNL d   1      28.949  16.339 -24.617  0.00  0.00     0.000 A 
ATOM     23  C   UNL d   1      28.459  15.737 -24.336  0.00  0.00     0.000 A 
ATOM     24  C   UNL d   1      28.078  15.822 -23.627  0.00  0.00     0.000 A 
ATOM     25  C   UNL d   1      28.177  16.504 -23.189  0.00  0.00     0.000 A 
ATOM     26  C   UNL d   1      28.667  17.105 -23.470  0.00  0.00     0.000 A 
ENDBRANCH   4  21
TORSDOF 7
ENDMDL
