MODEL 1
REMARK VINA RESULT:      39.2      0.000      0.000
REMARK  5 active torsions:
REMARK  status: ('A' for Active; 'I' for Inactive)
REMARK    1  A    between atoms: C_7  and  N_2 
REMARK    2  A    between atoms: C_8  and  C_7 
REMARK    3  A    between atoms: C_13  and  C_8 
REMARK    4  A    between atoms: C_9  and  O_11 
REMARK    5  A    between atoms: O_11  and  C_13 
ROOT
ATOM      1  C   UNL d   1     -51.365  26.405  33.311  0.00  0.00     0.296 A 
ATOM      2  N   UNL d   1     -50.695  25.912  33.309  0.00  0.00    -0.268 N 
ATOM      3  S   UNL d   1     -52.033  25.920  33.312  0.00  0.00    -0.025 SA
ATOM      4  C   UNL d   1     -50.956  25.126  33.310  0.00  0.00     0.073 A 
ATOM      5  C   UNL d   1     -51.785  25.135  33.311  0.00  0.00     0.050 A 
ATOM      6  O   UNL d   1     -51.361  27.229  33.311  0.00  0.00    -0.259 OA
ATOM      7  C   UNL d   1     -50.549  24.414  33.309  0.00  0.00     0.018 A 
ATOM      8  C   UNL d   1     -52.201  24.412  33.312  0.00  0.00     0.008 A 
ATOM      9  C   UNL d   1     -50.964  23.701  33.309  0.00  0.00     0.002 A 
ATOM     10  C   UNL d   1     -51.784  23.701  33.311  0.00  0.00     0.001 A 
ENDROOT
BRANCH   2  11
ATOM     11  C   UNL d   1     -49.911  26.159  33.308  0.00  0.00     0.086 C 
BRANCH  11  12
ATOM     12  C   UNL d   1     -49.677  26.782  33.801  0.00  0.00     0.046 C 
BRANCH  12  13
ATOM     13  C   UNL d   1     -48.884  27.007  33.833  0.00  0.00     0.124 C 
BRANCH  13  14
ATOM     14  O   UNL d   1     -48.657  27.647  34.291  0.00  0.00    -0.305 OA
BRANCH  14  15
ATOM     15  C   UNL d   1     -48.428  28.293  34.754  0.00  0.00     0.100 A 
ATOM     16  C   UNL d   1     -48.182  28.982  34.383  0.00  0.00     0.025 A 
ATOM     17  C   UNL d   1     -47.953  29.628  34.848  0.00  0.00     0.002 A 
ATOM     18  C   UNL d   1     -47.970  29.579  35.669  0.00  0.00     0.000 A 
ATOM     19  C   UNL d   1     -48.220  28.877  36.033  0.00  0.00     0.002 A 
ATOM     20  C   UNL d   1     -48.448  28.237  35.576  0.00  0.00     0.025 A 
ENDBRANCH  14  15
ENDBRANCH  13  14
ENDBRANCH  12  13
ENDBRANCH  11  12
ENDBRANCH   2  11
TORSDOF 5
ENDMDL
MODEL 2
REMARK VINA RESULT:      41.0      1.013      1.483
REMARK  5 active torsions:
REMARK  status: ('A' for Active; 'I' for Inactive)
REMARK    1  A    between atoms: C_7  and  N_2 
REMARK    2  A    between atoms: C_8  and  C_7 
REMARK    3  A    between atoms: C_13  and  C_8 
REMARK    4  A    between atoms: C_9  and  O_11 
REMARK    5  A    between atoms: O_11  and  C_13 
ROOT
ATOM      1  C   UNL d   1     -50.029  24.797  33.306  0.00  0.00     0.296 A 
ATOM      2  N   UNL d   1     -50.639  25.362  33.306  0.00  0.00    -0.268 N 
ATOM      3  S   UNL d   1     -50.381  24.050  33.306  0.00  0.00    -0.025 SA
ATOM      4  C   UNL d   1     -51.362  24.959  33.306  0.00  0.00     0.073 A 
ATOM      5  C   UNL d   1     -51.199  24.146  33.306  0.00  0.00     0.050 A 
ATOM      6  O   UNL d   1     -49.221  24.955  33.306  0.00  0.00    -0.259 OA
ATOM      7  C   UNL d   1     -52.138  25.227  33.306  0.00  0.00     0.018 A 
ATOM      8  C   UNL d   1     -51.831  23.603  33.306  0.00  0.00     0.008 A 
ATOM      9  C   UNL d   1     -52.760  24.686  33.306  0.00  0.00     0.002 A 
ATOM     10  C   UNL d   1     -52.608  23.880  33.306  0.00  0.00     0.001 A 
ENDROOT
BRANCH   2  11
ATOM     11  C   UNL d   1     -50.542  26.180  33.306  0.00  0.00     0.086 C 
BRANCH  11  12
ATOM     12  C   UNL d   1     -50.089  26.539  33.898  0.00  0.00     0.046 C 
BRANCH  12  13
ATOM     13  C   UNL d   1     -50.190  27.339  34.066  0.00  0.00     0.124 C 
BRANCH  13  14
ATOM     14  O   UNL d   1     -49.582  27.767  34.409  0.00  0.00    -0.305 OA
BRANCH  14  15
ATOM     15  C   UNL d   1     -48.966  28.199  34.755  0.00  0.00     0.100 A 
ATOM     16  C   UNL d   1     -48.729  28.014  35.518  0.00  0.00     0.025 A 
ATOM     17  C   UNL d   1     -48.114  28.446  35.863  0.00  0.00     0.002 A 
ATOM     18  C   UNL d   1     -47.745  29.053  35.447  0.00  0.00     0.000 A 
ATOM     19  C   UNL d   1     -47.993  29.231  34.676  0.00  0.00     0.002 A 
ATOM     20  C   UNL d   1     -48.601  28.805  34.332  0.00  0.00     0.025 A 
ENDBRANCH  14  15
ENDBRANCH  13  14
ENDBRANCH  12  13
ENDBRANCH  11  12
ENDBRANCH   2  11
TORSDOF 5
ENDMDL
