MODEL 1
REMARK VINA RESULT:      -4.9      0.000      0.000
REMARK  4 active torsions:
REMARK  status: ('A' for Active; 'I' for Inactive)
REMARK    1  A    between atoms: C_9  and  N_1 
REMARK    2  A    between atoms: C_2  and  N_5 
REMARK    3  A    between atoms: N_5  and  O_12 
REMARK    4  A    between atoms: O_12  and  C_16 
ROOT
ATOM      1  N   UNL d   1     -42.183-123.201 -50.494  0.00  0.00    -0.126 NA
ENDROOT
BRANCH   1   2
ATOM      2  C   UNL d   1     -42.300-123.162 -49.678  0.00  0.00     0.108 A 
ATOM      3  C   UNL d   1     -42.988-122.793 -49.381  0.00  0.00     0.023 A 
ATOM      4  C   UNL d   1     -43.102-122.754 -48.586  0.00  0.00     0.044 A 
ATOM      5  C   UNL d   1     -43.578-122.451 -49.924  0.00  0.00     0.002 C 
ATOM      6  C   UNL d   1     -42.533-123.084 -48.063  0.00  0.00     0.196 A 
ATOM      7  C   UNL d   1     -41.872-123.438 -48.376  0.00  0.00     0.044 A 
ATOM      8  O   UNL d   1     -42.650-123.045 -47.247  0.00  0.00    -0.287 OA
ATOM      9  C   UNL d   1     -41.755-123.478 -49.191  0.00  0.00     0.023 A 
ATOM     10  C   UNL d   1     -41.123-123.817 -49.460  0.00  0.00     0.002 C 
ENDBRANCH   1   2
BRANCH   1  11
ATOM     11  O   UNL d   1     -41.573-122.800 -50.851  0.00  0.00    -0.211 OA
BRANCH  11  12
ATOM     12  C   UNL d   1     -41.496-122.786 -51.656  0.00  0.00     0.125 A 
ATOM     13  C   UNL d   1     -41.463-122.057 -52.063  0.00  0.00     0.029 A 
ATOM     14  C   UNL d   1     -41.384-122.042 -52.884  0.00  0.00     0.026 A 
ATOM     15  C   UNL d   1     -41.337-122.757 -53.309  0.00  0.00     0.127 A 
ATOM     16  C   UNL d   1     -41.370-123.476 -52.908  0.00  0.00     0.026 A 
ATOM     17  C   UNL d   1     -41.450-123.491 -52.070  0.00  0.00     0.029 A 
BRANCH  15  18
ATOM     18  N   UNL d   1     -41.260-122.742 -54.119  0.00  0.00    -0.114 N 
ATOM     19  O   UNL d   1     -41.307-122.072 -54.594  0.00  0.00    -0.532 OA
ATOM     20  O   UNL d   1     -41.123-123.402 -54.573  0.00  0.00    -0.532 OA
ENDBRANCH  15  18
ENDBRANCH  11  12
ENDBRANCH   1  11
TORSDOF 4
ENDMDL
MODEL 2
REMARK VINA RESULT:      -4.9      1.497      4.904
REMARK  4 active torsions:
REMARK  status: ('A' for Active; 'I' for Inactive)
REMARK    1  A    between atoms: C_9  and  N_1 
REMARK    2  A    between atoms: C_2  and  N_5 
REMARK    3  A    between atoms: N_5  and  O_12 
REMARK    4  A    between atoms: O_12  and  C_16 
ROOT
ATOM      1  N   UNL d   1     -41.925-122.827 -53.071  0.00  0.00    -0.126 NA
ENDROOT
BRANCH   1   2
ATOM      2  C   UNL d   1     -41.903-122.545 -53.846  0.00  0.00     0.108 A 
ATOM      3  C   UNL d   1     -41.509-122.991 -54.433  0.00  0.00     0.023 A 
ATOM      4  C   UNL d   1     -41.488-122.716 -55.189  0.00  0.00     0.044 A 
ATOM      5  C   UNL d   1     -41.123-123.747 -54.232  0.00  0.00     0.002 C 
ATOM      6  C   UNL d   1     -41.860-121.987 -55.381  0.00  0.00     0.196 A 
ATOM      7  C   UNL d   1     -42.236-121.572 -54.794  0.00  0.00     0.044 A 
ATOM      8  O   UNL d   1     -41.838-121.706 -56.156  0.00  0.00    -0.287 OA
ATOM      9  C   UNL d   1     -42.258-121.854 -54.019  0.00  0.00     0.023 A 
ATOM     10  C   UNL d   1     -42.620-121.443 -53.484  0.00  0.00     0.002 C 
ENDBRANCH   1   2
BRANCH   1  11
ATOM     11  O   UNL d   1     -41.332-122.653 -52.544  0.00  0.00    -0.211 OA
BRANCH  11  12
ATOM     12  C   UNL d   1     -41.413-122.813 -51.755  0.00  0.00     0.125 A 
ATOM     13  C   UNL d   1     -41.658-123.571 -51.503  0.00  0.00     0.029 A 
ATOM     14  C   UNL d   1     -41.741-123.735 -50.698  0.00  0.00     0.026 A 
ATOM     15  C   UNL d   1     -41.579-123.142 -50.136  0.00  0.00     0.127 A 
ATOM     16  C   UNL d   1     -41.337-122.395 -50.385  0.00  0.00     0.026 A 
ATOM     17  C   UNL d   1     -41.253-122.228 -51.205  0.00  0.00     0.029 A 
BRANCH  15  18
ATOM     18  N   UNL d   1     -41.661-123.304 -49.342  0.00  0.00    -0.114 N 
ATOM     19  O   UNL d   1     -42.288-123.064 -48.865  0.00  0.00    -0.532 OA
ATOM     20  O   UNL d   1     -41.123-123.731 -48.909  0.00  0.00    -0.532 OA
ENDBRANCH  15  18
ENDBRANCH  11  12
ENDBRANCH   1  11
TORSDOF 4
ENDMDL
MODEL 3
REMARK VINA RESULT:      -4.5      1.533      2.094
REMARK  4 active torsions:
REMARK  status: ('A' for Active; 'I' for Inactive)
REMARK    1  A    between atoms: C_9  and  N_1 
REMARK    2  A    between atoms: C_2  and  N_5 
REMARK    3  A    between atoms: N_5  and  O_12 
REMARK    4  A    between atoms: O_12  and  C_16 
ROOT
ATOM      1  N   UNL d   1     -41.905-122.351 -51.910  0.00  0.00    -0.126 NA
ENDROOT
BRANCH   1   2
ATOM      2  C   UNL d   1     -41.708-122.556 -51.135  0.00  0.00     0.108 A 
ATOM      3  C   UNL d   1     -41.324-121.997 -50.648  0.00  0.00     0.023 A 
ATOM      4  C   UNL d   1     -41.133-122.197 -49.893  0.00  0.00     0.044 A 
ATOM      5  C   UNL d   1     -41.131-121.202 -50.951  0.00  0.00     0.002 C 
ATOM      6  C   UNL d   1     -41.319-122.963 -49.601  0.00  0.00     0.196 A 
ATOM      7  C   UNL d   1     -41.692-123.490 -50.094  0.00  0.00     0.044 A 
ATOM      8  O   UNL d   1     -41.123-123.168 -48.827  0.00  0.00    -0.287 OA
ATOM      9  C   UNL d   1     -41.889-123.284 -50.868  0.00  0.00     0.023 A 
ATOM     10  C   UNL d   1     -42.240-123.800 -51.312  0.00  0.00     0.002 C 
ENDBRANCH   1   2
BRANCH   1  11
ATOM     11  O   UNL d   1     -41.377-122.454 -52.518  0.00  0.00    -0.211 OA
BRANCH  11  12
ATOM     12  C   UNL d   1     -41.593-122.321 -53.287  0.00  0.00     0.125 A 
ATOM     13  C   UNL d   1     -41.162-122.670 -53.912  0.00  0.00     0.029 A 
ATOM     14  C   UNL d   1     -41.382-122.535 -54.695  0.00  0.00     0.026 A 
ATOM     15  C   UNL d   1     -42.036-122.048 -54.864  0.00  0.00     0.127 A 
ATOM     16  C   UNL d   1     -42.461-121.703 -54.248  0.00  0.00     0.026 A 
ATOM     17  C   UNL d   1     -42.237-121.842 -53.448  0.00  0.00     0.029 A 
BRANCH  15  18
ATOM     18  N   UNL d   1     -42.254-121.914 -55.637  0.00  0.00    -0.114 N 
ATOM     19  O   UNL d   1     -42.950-122.174 -55.991  0.00  0.00    -0.532 OA
ATOM     20  O   UNL d   1     -41.803-121.499 -56.169  0.00  0.00    -0.532 OA
ENDBRANCH  15  18
ENDBRANCH  11  12
ENDBRANCH   1  11
TORSDOF 4
ENDMDL
MODEL 4
REMARK VINA RESULT:      -2.0      1.306      4.781
REMARK  4 active torsions:
REMARK  status: ('A' for Active; 'I' for Inactive)
REMARK    1  A    between atoms: C_9  and  N_1 
REMARK    2  A    between atoms: C_2  and  N_5 
REMARK    3  A    between atoms: N_5  and  O_12 
REMARK    4  A    between atoms: O_12  and  C_16 
ROOT
ATOM      1  N   UNL d   1     -41.772-122.584 -52.702  0.00  0.00    -0.126 NA
ENDROOT
BRANCH   1   2
ATOM      2  C   UNL d   1     -41.728-122.573 -53.526  0.00  0.00     0.108 A 
ATOM      3  C   UNL d   1     -42.011-121.907 -53.944  0.00  0.00     0.023 A 
ATOM      4  C   UNL d   1     -41.968-121.897 -54.746  0.00  0.00     0.044 A 
ATOM      5  C   UNL d   1     -42.349-121.226 -53.516  0.00  0.00     0.002 C 
ATOM      6  C   UNL d   1     -41.641-122.553 -55.158  0.00  0.00     0.196 A 
ATOM      7  C   UNL d   1     -41.373-123.189 -54.731  0.00  0.00     0.044 A 
ATOM      8  O   UNL d   1     -41.597-122.543 -55.982  0.00  0.00    -0.287 OA
ATOM      9  C   UNL d   1     -41.417-123.200 -53.907  0.00  0.00     0.023 A 
ATOM     10  C   UNL d   1     -41.157-123.812 -53.528  0.00  0.00     0.002 C 
ENDBRANCH   1   2
BRANCH   1  11
ATOM     11  O   UNL d   1     -42.323-123.038 -52.317  0.00  0.00    -0.211 OA
BRANCH  11  12
ATOM     12  C   UNL d   1     -42.385-123.027 -51.510  0.00  0.00     0.125 A 
ATOM     13  C   UNL d   1     -42.639-123.708 -51.098  0.00  0.00     0.029 A 
ATOM     14  C   UNL d   1     -42.702-123.697 -50.275  0.00  0.00     0.026 A 
ATOM     15  C   UNL d   1     -42.512-123.004 -49.854  0.00  0.00     0.127 A 
ATOM     16  C   UNL d   1     -42.261-122.332 -50.261  0.00  0.00     0.026 A 
ATOM     17  C   UNL d   1     -42.197-122.344 -51.100  0.00  0.00     0.029 A 
BRANCH  15  18
ATOM     18  N   UNL d   1     -42.574-122.992 -49.043  0.00  0.00    -0.114 N 
ATOM     19  O   UNL d   1     -42.959-122.416 -48.599  0.00  0.00    -0.532 OA
ATOM     20  O   UNL d   1     -42.257-123.560 -48.556  0.00  0.00    -0.532 OA
ENDBRANCH  15  18
ENDBRANCH  11  12
ENDBRANCH   1  11
TORSDOF 4
ENDMDL
