MODEL 1
REMARK VINA RESULT:      46.6      0.000      0.000
REMARK  7 active torsions:
REMARK  status: ('A' for Active; 'I' for Inactive)
REMARK    1  A    between atoms: N_2  and  S_1 
REMARK    2  A    between atoms: C_3  and  S_1 
REMARK    3  A    between atoms: C_9  and  N_2 
REMARK    4  A    between atoms: C_6  and  O_7 
REMARK    5  A    between atoms: O_7  and  C_14 
REMARK    6  A    between atoms: C_13  and  C_9 
REMARK    7  A    between atoms: O_17  and  C_10 
ROOT
ATOM      1  C   UNL d   1      13.455  13.494  -4.075  0.00  0.00     0.105 A 
ATOM      2  C   UNL d   1      13.016  12.810  -4.162  0.00  0.00     0.015 A 
ATOM      3  C   UNL d   1      13.903  13.616  -3.389  0.00  0.00     0.015 A 
ATOM      4  C   UNL d   1      13.466  12.368  -2.883  0.00  0.00     0.100 A 
ATOM      5  C   UNL d   1      13.019  12.246  -3.569  0.00  0.00     0.025 A 
ATOM      6  C   UNL d   1      13.906  13.052  -2.797  0.00  0.00     0.025 A 
ENDROOT
BRANCH   1   7
ATOM      7  S   UNL d   1      13.447  14.060  -4.679  0.00  0.00     0.285 S 
ATOM      8  O   UNL d   1      13.711  13.860  -5.436  0.00  0.00    -0.198 OA
ATOM      9  O   UNL d   1      13.174  14.822  -4.524  0.00  0.00    -0.198 OA
BRANCH   7  10
ATOM     10  N   UNL d   1      13.360  14.748  -5.133  0.00  0.00    -0.155 NA
BRANCH  10  11
ATOM     11  C   UNL d   1      14.018  15.055  -5.550  0.00  0.00     0.131 C 
BRANCH  11  12
ATOM     12  C   UNL d   1      14.092  15.878  -5.646  0.00  0.00     0.101 A 
ATOM     13  N   UNL d   1      14.637  16.294  -5.186  0.00  0.00    -0.242 NA
ATOM     14  C   UNL d   1      14.718  17.110  -5.274  0.00  0.00     0.099 A 
ATOM     15  C   UNL d   1      14.248  17.517  -5.830  0.00  0.00     0.021 A 
ATOM     16  C   UNL d   1      13.698  17.087  -6.292  0.00  0.00     0.003 A 
ATOM     17  C   UNL d   1      13.623  16.272  -6.198  0.00  0.00     0.021 A 
ENDBRANCH  11  12
ENDBRANCH  10  11
ENDBRANCH   7  10
ENDBRANCH   1   7
BRANCH   4  18
ATOM     18  O   UNL d   1      13.468  11.794  -2.283  0.00  0.00    -0.305 OA
BRANCH  18  19
ATOM     19  C   UNL d   1      14.050  11.806  -1.693  0.00  0.00     0.122 A 
ATOM     20  C   UNL d   1      13.829  11.802  -0.901  0.00  0.00     0.117 A 
ATOM     21  C   UNL d   1      14.410  11.813  -0.315  0.00  0.00     0.026 A 
ATOM     22  C   UNL d   1      15.203  11.828  -0.523  0.00  0.00     0.002 A 
ATOM     23  C   UNL d   1      15.423  11.832  -1.319  0.00  0.00     0.002 A 
ATOM     24  C   UNL d   1      14.842  11.820  -1.904  0.00  0.00     0.027 A 
BRANCH  20  25
ATOM     25  O   UNL d   1      13.035  11.787  -0.702  0.00  0.00    -0.326 OA
ATOM     26  C   UNL d   1      12.773  12.144  -0.020  0.00  0.00     0.181 C 
ENDBRANCH  20  25
ENDBRANCH  18  19
ENDBRANCH   4  18
TORSDOF 7
ENDMDL
MODEL 2
REMARK VINA RESULT:      49.0      1.703      3.060
REMARK  7 active torsions:
REMARK  status: ('A' for Active; 'I' for Inactive)
REMARK    1  A    between atoms: N_2  and  S_1 
REMARK    2  A    between atoms: C_3  and  S_1 
REMARK    3  A    between atoms: C_9  and  N_2 
REMARK    4  A    between atoms: C_6  and  O_7 
REMARK    5  A    between atoms: O_7  and  C_14 
REMARK    6  A    between atoms: C_13  and  C_9 
REMARK    7  A    between atoms: O_17  and  C_10 
ROOT
ATOM      1  C   UNL d   1      13.796  15.960  -5.074  0.00  0.00     0.105 A 
ATOM      2  C   UNL d   1      14.173  15.942  -4.348  0.00  0.00     0.015 A 
ATOM      3  C   UNL d   1      13.279  15.349  -5.288  0.00  0.00     0.015 A 
ATOM      4  C   UNL d   1      13.521  14.710  -4.048  0.00  0.00     0.100 A 
ATOM      5  C   UNL d   1      14.038  15.320  -3.834  0.00  0.00     0.025 A 
ATOM      6  C   UNL d   1      13.144  14.728  -4.773  0.00  0.00     0.025 A 
ENDROOT
BRANCH   1   7
ATOM      7  S   UNL d   1      13.937  16.592  -5.588  0.00  0.00     0.285 S 
ATOM      8  O   UNL d   1      13.745  16.524  -6.389  0.00  0.00    -0.198 OA
ATOM      9  O   UNL d   1      14.270  17.289  -5.300  0.00  0.00    -0.198 OA
BRANCH   7  10
ATOM     10  N   UNL d   1      14.151  17.317  -5.929  0.00  0.00    -0.155 NA
BRANCH  10  11
ATOM     11  C   UNL d   1      13.571  17.912  -6.036  0.00  0.00     0.131 C 
BRANCH  11  12
ATOM     12  C   UNL d   1      13.801  18.711  -6.031  0.00  0.00     0.101 A 
ATOM     13  N   UNL d   1      13.316  19.277  -6.386  0.00  0.00    -0.242 NA
ATOM     14  C   UNL d   1      13.536  20.071  -6.387  0.00  0.00     0.099 A 
ATOM     15  C   UNL d   1      14.251  20.305  -6.027  0.00  0.00     0.021 A 
ATOM     16  C   UNL d   1      14.737  19.724  -5.669  0.00  0.00     0.003 A 
ATOM     17  C   UNL d   1      14.511  18.933  -5.673  0.00  0.00     0.021 A 
ENDBRANCH  11  12
ENDBRANCH  10  11
ENDBRANCH   7  10
ENDBRANCH   1   7
BRANCH   4  18
ATOM     18  O   UNL d   1      13.386  14.079  -3.524  0.00  0.00    -0.305 OA
BRANCH  18  19
ATOM     19  C   UNL d   1      13.272  13.311  -3.813  0.00  0.00     0.122 A 
ATOM     20  C   UNL d   1      13.551  12.668  -3.383  0.00  0.00     0.117 A 
ATOM     21  C   UNL d   1      13.437  11.903  -3.672  0.00  0.00     0.026 A 
ATOM     22  C   UNL d   1      13.048  11.787  -4.384  0.00  0.00     0.002 A 
ATOM     23  C   UNL d   1      12.769  12.434  -4.814  0.00  0.00     0.002 A 
ATOM     24  C   UNL d   1      12.883  13.198  -4.526  0.00  0.00     0.027 A 
BRANCH  20  25
ATOM     25  O   UNL d   1      13.938  12.793  -2.672  0.00  0.00    -0.326 OA
ATOM     26  C   UNL d   1      14.136  12.166  -2.193  0.00  0.00     0.181 C 
ENDBRANCH  20  25
ENDBRANCH  18  19
ENDBRANCH   4  18
TORSDOF 7
ENDMDL
