MODEL 1
REMARK VINA RESULT:      -4.9      0.000      0.000
REMARK  4 active torsions:
REMARK  status: ('A' for Active; 'I' for Inactive)
REMARK    1  A    between atoms: C_2  and  S_1 
REMARK    2  A    between atoms: N_3  and  S_1 
REMARK    3  A    between atoms: C_4  and  N_3 
REMARK    4  A    between atoms: O_12  and  C_10 
ROOT
ATOM      1  N   UNL d   1      56.688   0.678  32.131  0.00  0.00    -0.156 NA
ENDROOT
BRANCH   1   2
ATOM      2  S   UNL d   1      57.305   0.670  31.535  0.00  0.00     0.291 S 
ATOM      3  O   UNL d   1      56.724   0.660  30.943  0.00  0.00    -0.198 OA
ATOM      4  O   UNL d   1      57.881   0.680  32.131  0.00  0.00    -0.198 OA
BRANCH   2   5
ATOM      5  C   UNL d   1      57.901   0.663  30.958  0.00  0.00     0.135 A 
ATOM      6  S   UNL d   1      58.713   0.651  31.030  0.00  0.00    -0.073 SA
ATOM      7  C   UNL d   1      59.010   0.648  30.280  0.00  0.00     0.036 A 
ATOM      8  C   UNL d   1      58.408   0.659  29.762  0.00  0.00     0.008 A 
ATOM      9  C   UNL d   1      57.698   0.668  30.155  0.00  0.00     0.020 A 
ENDBRANCH   2   5
ENDBRANCH   1   2
BRANCH   1  10
ATOM     10  C   UNL d   1      56.369  -0.066  32.417  0.00  0.00     0.116 A 
ATOM     11  C   UNL d   1      55.781  -0.064  33.051  0.00  0.00     0.112 A 
ATOM     12  C   UNL d   1      55.476  -0.724  33.327  0.00  0.00     0.026 A 
ATOM     13  C   UNL d   1      55.707  -1.463  33.021  0.00  0.00     0.002 A 
ATOM     14  C   UNL d   1      56.267  -1.491  32.417  0.00  0.00     0.002 A 
ATOM     15  C   UNL d   1      56.596  -0.780  32.117  0.00  0.00     0.022 A 
BRANCH  11  16
ATOM     16  O   UNL d   1      55.516   0.662  33.392  0.00  0.00    -0.327 OA
ATOM     17  C   UNL d   1      54.859   0.682  33.858  0.00  0.00     0.181 C 
ENDBRANCH  11  16
ENDBRANCH   1  10
TORSDOF 4
ENDMDL
MODEL 2
REMARK VINA RESULT:      -4.1      1.141      3.730
REMARK  4 active torsions:
REMARK  status: ('A' for Active; 'I' for Inactive)
REMARK    1  A    between atoms: C_2  and  S_1 
REMARK    2  A    between atoms: N_3  and  S_1 
REMARK    3  A    between atoms: C_4  and  N_3 
REMARK    4  A    between atoms: O_12  and  C_10 
ROOT
ATOM      1  N   UNL d   1      57.277  -0.187  30.739  0.00  0.00    -0.156 NA
ENDROOT
BRANCH   1   2
ATOM      2  S   UNL d   1      56.883  -0.255  31.498  0.00  0.00     0.291 S 
ATOM      3  O   UNL d   1      56.662   0.543  31.448  0.00  0.00    -0.198 OA
ATOM      4  O   UNL d   1      57.108  -1.052  31.542  0.00  0.00    -0.198 OA
BRANCH   2   5
ATOM      5  C   UNL d   1      56.503  -0.321  32.232  0.00  0.00     0.135 A 
ATOM      6  S   UNL d   1      56.313   0.244  32.788  0.00  0.00    -0.073 SA
ATOM      7  C   UNL d   1      55.947  -0.143  33.394  0.00  0.00     0.036 A 
ATOM      8  C   UNL d   1      55.910  -0.918  33.222  0.00  0.00     0.008 A 
ATOM      9  C   UNL d   1      56.250  -1.063  32.500  0.00  0.00     0.020 A 
ENDBRANCH   2   5
ENDBRANCH   1   2
BRANCH   1  10
ATOM     10  C   UNL d   1      58.079   0.114  30.705  0.00  0.00     0.116 A 
ATOM     11  C   UNL d   1      58.501   0.126  29.951  0.00  0.00     0.112 A 
ATOM     12  C   UNL d   1      59.229   0.394  29.894  0.00  0.00     0.026 A 
ATOM     13  C   UNL d   1      59.633   0.682  30.562  0.00  0.00     0.002 A 
ATOM     14  C   UNL d   1      59.252   0.682  31.293  0.00  0.00     0.002 A 
ATOM     15  C   UNL d   1      58.466   0.393  31.356  0.00  0.00     0.022 A 
BRANCH  11  16
ATOM     16  O   UNL d   1      58.132  -0.156  29.246  0.00  0.00    -0.327 OA
ATOM     17  C   UNL d   1      58.563  -0.271  28.573  0.00  0.00     0.181 C 
ENDBRANCH  11  16
ENDBRANCH   1  10
TORSDOF 4
ENDMDL
MODEL 3
REMARK VINA RESULT:      -3.3      1.515      3.828
REMARK  4 active torsions:
REMARK  status: ('A' for Active; 'I' for Inactive)
REMARK    1  A    between atoms: C_2  and  S_1 
REMARK    2  A    between atoms: N_3  and  S_1 
REMARK    3  A    between atoms: C_4  and  N_3 
REMARK    4  A    between atoms: O_12  and  C_10 
ROOT
ATOM      1  N   UNL d   1      57.810  -0.944  31.126  0.00  0.00    -0.156 NA
ENDROOT
BRANCH   1   2
ATOM      2  S   UNL d   1      57.196  -0.688  31.667  0.00  0.00     0.291 S 
ATOM      3  O   UNL d   1      57.694  -0.083  31.938  0.00  0.00    -0.198 OA
ATOM      4  O   UNL d   1      56.702  -1.295  31.392  0.00  0.00    -0.198 OA
BRANCH   2   5
ATOM      5  C   UNL d   1      56.602  -0.442  32.191  0.00  0.00     0.135 A 
ATOM      6  S   UNL d   1      56.408   0.300  32.467  0.00  0.00    -0.073 SA
ATOM      7  C   UNL d   1      55.779   0.204  32.964  0.00  0.00     0.036 A 
ATOM      8  C   UNL d   1      55.589  -0.567  32.995  0.00  0.00     0.008 A 
ATOM      9  C   UNL d   1      56.085  -0.999  32.521  0.00  0.00     0.020 A 
ENDBRANCH   2   5
ENDBRANCH   1   2
BRANCH   1  10
ATOM     10  C   UNL d   1      57.950  -0.498  30.406  0.00  0.00     0.116 A 
ATOM     11  C   UNL d   1      58.364  -0.871  29.745  0.00  0.00     0.112 A 
ATOM     12  C   UNL d   1      58.503  -0.489  29.082  0.00  0.00     0.026 A 
ATOM     13  C   UNL d   1      58.256   0.300  28.983  0.00  0.00     0.002 A 
ATOM     14  C   UNL d   1      57.859   0.678  29.599  0.00  0.00     0.002 A 
ATOM     15  C   UNL d   1      57.708   0.267  30.315  0.00  0.00     0.022 A 
BRANCH  11  16
ATOM     16  O   UNL d   1      58.633  -1.669  29.800  0.00  0.00    -0.327 OA
ATOM     17  C   UNL d   1      59.012  -2.020  29.180  0.00  0.00     0.181 C 
ENDBRANCH  11  16
ENDBRANCH   1  10
TORSDOF 4
ENDMDL
MODEL 4
REMARK VINA RESULT:      -2.3      9.910     10.487
REMARK  4 active torsions:
REMARK  status: ('A' for Active; 'I' for Inactive)
REMARK    1  A    between atoms: C_2  and  S_1 
REMARK    2  A    between atoms: N_3  and  S_1 
REMARK    3  A    between atoms: C_4  and  N_3 
REMARK    4  A    between atoms: O_12  and  C_10 
ROOT
ATOM      1  N   UNL d   1      59.135  -9.095  33.556  0.00  0.00    -0.156 NA
ENDROOT
BRANCH   1   2
ATOM      2  S   UNL d   1      59.539  -9.071  34.313  0.00  0.00     0.291 S 
ATOM      3  O   UNL d   1      59.843  -8.324  34.120  0.00  0.00    -0.198 OA
ATOM      4  O   UNL d   1      59.231  -9.818  34.500  0.00  0.00    -0.198 OA
BRANCH   2   5
ATOM      5  C   UNL d   1      59.928  -9.048  35.045  0.00  0.00     0.135 A 
ATOM      6  S   UNL d   1      60.308  -8.437  35.428  0.00  0.00    -0.073 SA
ATOM      7  C   UNL d   1      60.584  -8.738  36.124  0.00  0.00     0.036 A 
ATOM      8  C   UNL d   1      60.385  -9.506  36.172  0.00  0.00     0.008 A 
ATOM      9  C   UNL d   1      59.972  -9.732  35.510  0.00  0.00     0.020 A 
ENDBRANCH   2   5
ENDBRANCH   1   2
BRANCH   1  10
ATOM     10  C   UNL d   1      59.567  -9.337  32.856  0.00  0.00     0.116 A 
ATOM     11  C   UNL d   1      59.134  -9.592  32.152  0.00  0.00     0.112 A 
ATOM     12  C   UNL d   1      59.502  -9.815  31.505  0.00  0.00     0.026 A 
ATOM     13  C   UNL d   1      60.334  -9.818  31.464  0.00  0.00     0.002 A 
ATOM     14  C   UNL d   1      60.769  -9.579  32.122  0.00  0.00     0.002 A 
ATOM     15  C   UNL d   1      60.374  -9.338  32.821  0.00  0.00     0.022 A 
BRANCH  11  16
ATOM     16  O   UNL d   1      58.290  -9.606  32.146  0.00  0.00    -0.327 OA
ATOM     17  C   UNL d   1      57.884  -9.681  31.454  0.00  0.00     0.181 C 
ENDBRANCH  11  16
ENDBRANCH   1  10
TORSDOF 4
ENDMDL
MODEL 5
REMARK VINA RESULT:      -2.0      3.216      4.424
REMARK  4 active torsions:
REMARK  status: ('A' for Active; 'I' for Inactive)
REMARK    1  A    between atoms: C_2  and  S_1 
REMARK    2  A    between atoms: N_3  and  S_1 
REMARK    3  A    between atoms: C_4  and  N_3 
REMARK    4  A    between atoms: O_12  and  C_10 
ROOT
ATOM      1  N   UNL d   1      58.476  -1.761  29.687  0.00  0.00    -0.156 NA
ENDROOT
BRANCH   1   2
ATOM      2  S   UNL d   1      59.024  -2.352  29.392  0.00  0.00     0.291 S 
ATOM      3  O   UNL d   1      58.384  -2.794  29.104  0.00  0.00    -0.198 OA
ATOM      4  O   UNL d   1      59.660  -1.906  29.681  0.00  0.00    -0.198 OA
BRANCH   2   5
ATOM      5  C   UNL d   1      59.554  -2.923  29.107  0.00  0.00     0.135 A 
ATOM      6  S   UNL d   1      59.513  -3.411  28.456  0.00  0.00    -0.073 SA
ATOM      7  C   UNL d   1      60.189  -3.852  28.455  0.00  0.00     0.036 A 
ATOM      8  C   UNL d   1      60.633  -3.646  29.082  0.00  0.00     0.008 A 
ATOM      9  C   UNL d   1      60.263  -3.065  29.511  0.00  0.00     0.020 A 
ENDBRANCH   2   5
ENDBRANCH   1   2
BRANCH   1  10
ATOM     10  C   UNL d   1      58.535  -0.953  29.404  0.00  0.00     0.116 A 
ATOM     11  C   UNL d   1      58.201  -0.309  29.875  0.00  0.00     0.112 A 
ATOM     12  C   UNL d   1      58.241   0.431  29.641  0.00  0.00     0.026 A 
ATOM     13  C   UNL d   1      58.610   0.633  28.922  0.00  0.00     0.002 A 
ATOM     14  C   UNL d   1      58.936   0.038  28.456  0.00  0.00     0.002 A 
ATOM     15  C   UNL d   1      58.894  -0.762  28.707  0.00  0.00     0.022 A 
BRANCH  11  16
ATOM     16  O   UNL d   1      57.818  -0.467  30.610  0.00  0.00    -0.327 OA
ATOM     17  C   UNL d   1      57.494   0.133  31.042  0.00  0.00     0.181 C 
ENDBRANCH  11  16
ENDBRANCH   1  10
TORSDOF 4
ENDMDL
