MODEL 1
REMARK VINA RESULT:      -3.1      0.000      0.000
REMARK  2 active torsions:
REMARK  status: ('A' for Active; 'I' for Inactive)
REMARK    1  A    between atoms: C_3  and  N_1 
REMARK    2  A    between atoms: C_12  and  C_9 
ROOT
ATOM      1  C   UNL d   1      32.888  20.275 -22.772  0.00  0.00     0.187 A 
ATOM      2  N   UNL d   1      32.700  19.740 -22.164  0.00  0.00    -0.129 NA
ATOM      3  N   UNL d   1      32.597  18.941 -22.339  0.00  0.00    -0.147 NA
ATOM      4  C   UNL d   1      32.971  20.009 -23.545  0.00  0.00     0.039 A 
ATOM      5  C   UNL d   1      32.682  18.676 -23.123  0.00  0.00     0.103 A 
ATOM      6  C   UNL d   1      32.868  19.209 -23.721  0.00  0.00     0.022 A 
ATOM      7  C   UNL d   1      33.157  20.542 -24.148  0.00  0.00     0.003 A 
ATOM      8  C   UNL d   1      32.951  18.943 -24.499  0.00  0.00     0.002 A 
ATOM      9  C   UNL d   1      33.137  19.476 -25.095  0.00  0.00     0.000 A 
ATOM     10  C   UNL d   1      33.240  20.276 -24.920  0.00  0.00     0.000 A 
ENDROOT
BRANCH   1  11
ATOM     11  N   UNL d   1      32.991  21.074 -22.597  0.00  0.00    -0.191 N 
ATOM     12  N   UNL d   1      33.232  21.738 -23.042  0.00  0.00    -0.058 NA
ATOM     13  N   UNL d   1      33.233  22.404 -22.575  0.00  0.00    -0.129 NA
ATOM     14  C   UNL d   1      32.991  22.180 -21.814  0.00  0.00     0.122 A 
ATOM     15  C   UNL d   1      32.840  21.351 -21.827  0.00  0.00     0.105 A 
ATOM     16  C   UNL d   1      32.888  22.608 -21.118  0.00  0.00     0.022 A 
ATOM     17  C   UNL d   1      32.589  20.977 -21.138  0.00  0.00     0.021 A 
ATOM     18  C   UNL d   1      32.488  21.438 -20.430  0.00  0.00     0.002 A 
ATOM     19  C   UNL d   1      32.645  22.239 -20.456  0.00  0.00     0.002 A 
ENDBRANCH   1  11
BRANCH   5  20
ATOM     20  C   UNL d   1      32.579  17.876 -23.299  0.00  0.00     0.020 A 
ATOM     21  C   UNL d   1      33.241  17.376 -23.347  0.00  0.00     0.004 A 
ATOM     22  C   UNL d   1      33.138  16.577 -23.522  0.00  0.00     0.030 A 
ATOM     23  C   UNL d   1      32.373  16.277 -23.650  0.00  0.00     0.140 A 
ATOM     24  C   UNL d   1      31.721  16.777 -23.601  0.00  0.00     0.030 A 
ATOM     25  F   UNL d   1      32.270  15.478 -23.825  0.00  0.00    -0.204 F 
ATOM     26  C   UNL d   1      31.824  17.576 -23.426  0.00  0.00     0.004 A 
ENDBRANCH   5  20
TORSDOF 2
ENDMDL
MODEL 2
REMARK VINA RESULT:      -3.0      2.189      4.621
REMARK  2 active torsions:
REMARK  status: ('A' for Active; 'I' for Inactive)
REMARK    1  A    between atoms: C_3  and  N_1 
REMARK    2  A    between atoms: C_12  and  C_9 
ROOT
ATOM      1  C   UNL d   1      32.957  20.658 -22.609  0.00  0.00     0.187 A 
ATOM      2  N   UNL d   1      32.795  20.340 -21.858  0.00  0.00    -0.129 NA
ATOM      3  N   UNL d   1      32.696  20.845 -21.213  0.00  0.00    -0.147 NA
ATOM      4  C   UNL d   1      33.018  21.471 -22.709  0.00  0.00     0.039 A 
ATOM      5  C   UNL d   1      32.759  21.668 -21.319  0.00  0.00     0.103 A 
ATOM      6  C   UNL d   1      32.919  21.976 -22.064  0.00  0.00     0.022 A 
ATOM      7  C   UNL d   1      33.179  21.784 -23.457  0.00  0.00     0.003 A 
ATOM      8  C   UNL d   1      32.981  22.794 -22.167  0.00  0.00     0.002 A 
ATOM      9  C   UNL d   1      33.142  23.102 -22.912  0.00  0.00     0.000 A 
ATOM     10  C   UNL d   1      33.241  22.597 -23.556  0.00  0.00     0.000 A 
ENDROOT
BRANCH   1  11
ATOM     11  N   UNL d   1      33.056  20.153 -23.254  0.00  0.00    -0.191 N 
ATOM     12  N   UNL d   1      33.143  20.274 -24.076  0.00  0.00    -0.058 NA
ATOM     13  N   UNL d   1      33.223  19.560 -24.457  0.00  0.00    -0.129 NA
ATOM     14  C   UNL d   1      33.188  18.961 -23.884  0.00  0.00     0.122 A 
ATOM     15  C   UNL d   1      33.084  19.330 -23.134  0.00  0.00     0.105 A 
ATOM     16  C   UNL d   1      33.236  18.141 -23.938  0.00  0.00     0.022 A 
ATOM     17  C   UNL d   1      33.032  18.862 -22.459  0.00  0.00     0.021 A 
ATOM     18  C   UNL d   1      33.084  18.016 -22.537  0.00  0.00     0.002 A 
ATOM     19  C   UNL d   1      33.185  17.695 -23.281  0.00  0.00     0.002 A 
ENDBRANCH   1  11
BRANCH   5  20
ATOM     20  C   UNL d   1      32.660  22.173 -20.674  0.00  0.00     0.020 A 
ATOM     21  C   UNL d   1      33.238  22.198 -20.078  0.00  0.00     0.004 A 
ATOM     22  C   UNL d   1      33.139  22.703 -19.433  0.00  0.00     0.030 A 
ATOM     23  C   UNL d   1      32.461  23.183 -19.385  0.00  0.00     0.140 A 
ATOM     24  C   UNL d   1      31.893  23.154 -19.978  0.00  0.00     0.030 A 
ATOM     25  F   UNL d   1      32.362  23.688 -18.740  0.00  0.00    -0.204 F 
ATOM     26  C   UNL d   1      31.992  22.649 -20.623  0.00  0.00     0.004 A 
ENDBRANCH   5  20
TORSDOF 2
ENDMDL
MODEL 3
REMARK VINA RESULT:      -2.2      3.004      4.479
REMARK  2 active torsions:
REMARK  status: ('A' for Active; 'I' for Inactive)
REMARK    1  A    between atoms: C_3  and  N_1 
REMARK    2  A    between atoms: C_12  and  C_9 
ROOT
ATOM      1  C   UNL d   1      31.201  17.367 -24.542  0.00  0.00     0.187 A 
ATOM      2  N   UNL d   1      30.523  17.720 -24.868  0.00  0.00    -0.129 NA
ATOM      3  N   UNL d   1      29.776  17.429 -24.673  0.00  0.00    -0.147 NA
ATOM      4  C   UNL d   1      31.128  16.730 -24.027  0.00  0.00     0.039 A 
ATOM      5  C   UNL d   1      29.707  16.785 -24.152  0.00  0.00     0.103 A 
ATOM      6  C   UNL d   1      30.381  16.439 -23.832  0.00  0.00     0.022 A 
ATOM      7  C   UNL d   1      31.803  16.381 -23.704  0.00  0.00     0.003 A 
ATOM      8  C   UNL d   1      30.309  15.799 -23.314  0.00  0.00     0.002 A 
ATOM      9  C   UNL d   1      30.983  15.454 -22.995  0.00  0.00     0.000 A 
ATOM     10  C   UNL d   1      31.730  15.745 -23.190  0.00  0.00     0.000 A 
ENDROOT
BRANCH   1  11
ATOM     11  N   UNL d   1      31.948  17.658 -24.737  0.00  0.00    -0.191 N 
ATOM     12  N   UNL d   1      32.665  17.300 -24.973  0.00  0.00    -0.058 NA
ATOM     13  N   UNL d   1      33.234  17.868 -25.095  0.00  0.00    -0.129 NA
ATOM     14  C   UNL d   1      32.892  18.607 -24.939  0.00  0.00     0.122 A 
ATOM     15  C   UNL d   1      32.090  18.477 -24.715  0.00  0.00     0.105 A 
ATOM     16  C   UNL d   1      33.194  19.373 -24.968  0.00  0.00     0.022 A 
ATOM     17  C   UNL d   1      31.615  19.122 -24.528  0.00  0.00     0.021 A 
ATOM     18  C   UNL d   1      31.947  19.905 -24.564  0.00  0.00     0.002 A 
ATOM     19  C   UNL d   1      32.728  19.991 -24.785  0.00  0.00     0.002 A 
ENDBRANCH   1  11
BRANCH   5  20
ATOM     20  C   UNL d   1      28.960  16.494 -23.957  0.00  0.00     0.020 A 
ATOM     21  C   UNL d   1      28.508  16.877 -23.373  0.00  0.00     0.004 A 
ATOM     22  C   UNL d   1      27.761  16.586 -23.178  0.00  0.00     0.030 A 
ATOM     23  C   UNL d   1      27.466  15.912 -23.567  0.00  0.00     0.140 A 
ATOM     24  C   UNL d   1      27.917  15.538 -24.143  0.00  0.00     0.030 A 
ATOM     25  F   UNL d   1      26.719  15.622 -23.372  0.00  0.00    -0.204 F 
ATOM     26  C   UNL d   1      28.664  15.829 -24.338  0.00  0.00     0.004 A 
ENDBRANCH   5  20
TORSDOF 2
ENDMDL
