MODEL 1
REMARK VINA RESULT:      -4.6      0.000      0.000
REMARK  3 active torsions:
REMARK  status: ('A' for Active; 'I' for Inactive)
REMARK    1  A    between atoms: C_7  and  C_1 
REMARK    2  A    between atoms: N_9  and  C_7 
REMARK    3  A    between atoms: C_8  and  N_9 
ROOT
ATOM      1  C   UNL d   1      56.818  -0.383  32.425  0.00  0.00     0.146 A 
ATOM      2  C   UNL d   1      57.026   0.263  32.901  0.00  0.00     0.304 A 
ATOM      3  C   UNL d   1      56.086  -0.785  32.592  0.00  0.00     0.304 A 
ATOM      4  O   UNL d   1      55.615  -0.539  33.195  0.00  0.00    -0.277 OA
ATOM      5  O   UNL d   1      56.524   0.498  33.516  0.00  0.00    -0.277 OA
ATOM      6  C   UNL d   1      55.840   0.126  33.677  0.00  0.00     0.203 A 
ATOM      7  O   UNL d   1      55.869  -1.441  32.113  0.00  0.00    -0.259 OA
ATOM      8  O   UNL d   1      57.772   0.681  32.739  0.00  0.00    -0.259 OA
ATOM      9  C   UNL d   1      55.689   0.629  34.287  0.00  0.00     0.062 C 
ATOM     10  C   UNL d   1      55.153   0.032  34.111  0.00  0.00     0.062 C 
ENDROOT
BRANCH   1  11
ATOM     11  C   UNL d   1      57.303  -0.634  31.807  0.00  0.00     0.129 C 
BRANCH  11  12
ATOM     12  N   UNL d   1      57.106  -0.441  31.043  0.00  0.00    -0.057 NA
BRANCH  12  13
ATOM     13  C   UNL d   1      57.655  -0.582  30.431  0.00  0.00     0.750 A 
ATOM     14  N   UNL d   1      57.901  -1.369  30.253  0.00  0.00    -0.058 NA
ATOM     15  C   UNL d   1      58.450  -1.479  29.636  0.00  0.00     0.120 A 
ATOM     16  C   UNL d   1      58.750  -0.862  29.210  0.00  0.00     0.043 A 
ATOM     17  C   UNL d   1      58.503  -0.096  29.392  0.00  0.00     0.120 A 
ATOM     18  N   UNL d   1      57.968   0.041  29.989  0.00  0.00    -0.058 NA
ENDBRANCH  12  13
ENDBRANCH  11  12
ENDBRANCH   1  11
TORSDOF 3
ENDMDL
MODEL 2
REMARK VINA RESULT:      -4.4      1.856      4.054
REMARK  3 active torsions:
REMARK  status: ('A' for Active; 'I' for Inactive)
REMARK    1  A    between atoms: C_7  and  C_1 
REMARK    2  A    between atoms: N_9  and  C_7 
REMARK    3  A    between atoms: C_8  and  N_9 
ROOT
ATOM      1  C   UNL d   1      58.330   0.470  30.596  0.00  0.00     0.146 A 
ATOM      2  C   UNL d   1      59.093   0.583  30.897  0.00  0.00     0.304 A 
ATOM      3  C   UNL d   1      58.236   0.414  29.751  0.00  0.00     0.304 A 
ATOM      4  O   UNL d   1      58.874   0.470  29.266  0.00  0.00    -0.277 OA
ATOM      5  O   UNL d   1      59.735   0.638  30.378  0.00  0.00    -0.277 OA
ATOM      6  C   UNL d   1      59.654   0.586  29.589  0.00  0.00     0.203 A 
ATOM      7  O   UNL d   1      57.464   0.299  29.438  0.00  0.00    -0.259 OA
ATOM      8  O   UNL d   1      59.200   0.642  31.760  0.00  0.00    -0.259 OA
ATOM      9  C   UNL d   1      60.447   0.681  29.483  0.00  0.00     0.062 C 
ATOM     10  C   UNL d   1      59.959   0.585  28.830  0.00  0.00     0.062 C 
ENDROOT
BRANCH   1  11
ATOM     11  C   UNL d   1      57.675   0.413  31.094  0.00  0.00     0.129 C 
BRANCH  11  12
ATOM     12  N   UNL d   1      57.324  -0.310  31.211  0.00  0.00    -0.057 NA
BRANCH  12  13
ATOM     13  C   UNL d   1      56.767  -0.402  31.825  0.00  0.00     0.750 A 
ATOM     14  N   UNL d   1      56.571  -1.171  32.109  0.00  0.00    -0.058 NA
ATOM     15  C   UNL d   1      56.012  -1.232  32.723  0.00  0.00     0.120 A 
ATOM     16  C   UNL d   1      55.657  -0.584  33.050  0.00  0.00     0.043 A 
ATOM     17  C   UNL d   1      55.857   0.164  32.764  0.00  0.00     0.120 A 
ATOM     18  N   UNL d   1      56.399   0.253  32.166  0.00  0.00    -0.058 NA
ENDBRANCH  12  13
ENDBRANCH  11  12
ENDBRANCH   1  11
TORSDOF 3
ENDMDL
MODEL 3
REMARK VINA RESULT:      -4.3      1.854      4.187
REMARK  3 active torsions:
REMARK  status: ('A' for Active; 'I' for Inactive)
REMARK    1  A    between atoms: C_7  and  C_1 
REMARK    2  A    between atoms: N_9  and  C_7 
REMARK    3  A    between atoms: C_8  and  N_9 
ROOT
ATOM      1  C   UNL d   1      58.263   0.594  30.782  0.00  0.00     0.146 A 
ATOM      2  C   UNL d   1      58.168   0.565  29.959  0.00  0.00     0.304 A 
ATOM      3  C   UNL d   1      59.054   0.648  31.093  0.00  0.00     0.304 A 
ATOM      4  O   UNL d   1      59.686   0.670  30.599  0.00  0.00    -0.277 OA
ATOM      5  O   UNL d   1      58.835   0.588  29.469  0.00  0.00    -0.277 OA
ATOM      6  C   UNL d   1      59.576   0.639  29.754  0.00  0.00     0.203 A 
ATOM      7  O   UNL d   1      59.157   0.679  31.928  0.00  0.00    -0.259 OA
ATOM      8  O   UNL d   1      57.364   0.509  29.631  0.00  0.00    -0.259 OA
ATOM      9  C   UNL d   1      59.882   0.634  29.009  0.00  0.00     0.062 C 
ATOM     10  C   UNL d   1      60.386   0.682  29.656  0.00  0.00     0.062 C 
ENDROOT
BRANCH   1  11
ATOM     11  C   UNL d   1      57.613   0.572  31.290  0.00  0.00     0.129 C 
BRANCH  11  12
ATOM     12  N   UNL d   1      57.165  -0.103  31.337  0.00  0.00    -0.057 NA
BRANCH  12  13
ATOM     13  C   UNL d   1      56.636  -0.201  31.973  0.00  0.00     0.750 A 
ATOM     14  N   UNL d   1      56.204   0.459  32.273  0.00  0.00    -0.058 NA
ATOM     15  C   UNL d   1      55.683   0.331  32.909  0.00  0.00     0.120 A 
ATOM     16  C   UNL d   1      55.580  -0.397  33.243  0.00  0.00     0.043 A 
ATOM     17  C   UNL d   1      56.006  -1.036  32.943  0.00  0.00     0.120 A 
ATOM     18  N   UNL d   1      56.522  -0.940  32.322  0.00  0.00    -0.058 NA
ENDBRANCH  12  13
ENDBRANCH  11  12
ENDBRANCH   1  11
TORSDOF 3
ENDMDL
MODEL 4
REMARK VINA RESULT:      -4.2      0.905      1.205
REMARK  3 active torsions:
REMARK  status: ('A' for Active; 'I' for Inactive)
REMARK    1  A    between atoms: C_7  and  C_1 
REMARK    2  A    between atoms: N_9  and  C_7 
REMARK    3  A    between atoms: C_8  and  N_9 
ROOT
ATOM      1  C   UNL d   1      57.265  -0.482  31.794  0.00  0.00     0.146 A 
ATOM      2  C   UNL d   1      57.219   0.033  32.442  0.00  0.00     0.304 A 
ATOM      3  C   UNL d   1      56.695  -1.112  31.742  0.00  0.00     0.304 A 
ATOM      4  O   UNL d   1      56.131  -1.199  32.307  0.00  0.00    -0.277 OA
ATOM      5  O   UNL d   1      56.629  -0.076  33.011  0.00  0.00    -0.277 OA
ATOM      6  C   UNL d   1      56.093  -0.663  32.968  0.00  0.00     0.203 A 
ATOM      7  O   UNL d   1      56.736  -1.639  31.087  0.00  0.00    -0.259 OA
ATOM      8  O   UNL d   1      57.797   0.681  32.505  0.00  0.00    -0.259 OA
ATOM      9  C   UNL d   1      55.747  -0.422  33.654  0.00  0.00     0.062 C 
ATOM     10  C   UNL d   1      55.448  -1.075  33.255  0.00  0.00     0.062 C 
ENDROOT
BRANCH   1  11
ATOM     11  C   UNL d   1      57.845  -0.393  31.214  0.00  0.00     0.129 C 
BRANCH  11  12
ATOM     12  N   UNL d   1      57.704   0.098  30.582  0.00  0.00    -0.057 NA
BRANCH  12  13
ATOM     13  C   UNL d   1      58.264   0.142  29.966  0.00  0.00     0.750 A 
ATOM     14  N   UNL d   1      58.013   0.282  29.173  0.00  0.00    -0.058 NA
ATOM     15  C   UNL d   1      58.594   0.322  28.578  0.00  0.00     0.120 A 
ATOM     16  C   UNL d   1      59.380   0.231  28.736  0.00  0.00     0.043 A 
ATOM     17  C   UNL d   1      59.616   0.094  29.515  0.00  0.00     0.120 A 
ATOM     18  N   UNL d   1      59.070   0.051  30.116  0.00  0.00    -0.058 NA
ENDBRANCH  12  13
ENDBRANCH  11  12
ENDBRANCH   1  11
TORSDOF 3
ENDMDL
MODEL 5
REMARK VINA RESULT:      -3.1      1.504      4.128
REMARK  3 active torsions:
REMARK  status: ('A' for Active; 'I' for Inactive)
REMARK    1  A    between atoms: C_7  and  C_1 
REMARK    2  A    between atoms: N_9  and  C_7 
REMARK    3  A    between atoms: C_8  and  N_9 
ROOT
ATOM      1  C   UNL d   1      56.986  -0.638  31.978  0.00  0.00     0.146 A 
ATOM      2  C   UNL d   1      56.896  -1.359  31.580  0.00  0.00     0.304 A 
ATOM      3  C   UNL d   1      57.508  -0.055  31.640  0.00  0.00     0.304 A 
ATOM      4  O   UNL d   1      57.898  -0.207  30.955  0.00  0.00    -0.277 OA
ATOM      5  O   UNL d   1      57.309  -1.492  30.875  0.00  0.00    -0.277 OA
ATOM      6  C   UNL d   1      57.797  -0.952  30.555  0.00  0.00     0.203 A 
ATOM      7  O   UNL d   1      57.604   0.679  32.039  0.00  0.00    -0.259 OA
ATOM      8  O   UNL d   1      56.365  -1.961  31.917  0.00  0.00    -0.259 OA
ATOM      9  C   UNL d   1      57.968  -1.444  29.941  0.00  0.00     0.062 C 
ATOM     10  C   UNL d   1      58.317  -0.702  29.976  0.00  0.00     0.062 C 
ENDROOT
BRANCH   1  11
ATOM     11  C   UNL d   1      56.585  -0.482  32.682  0.00  0.00     0.129 C 
BRANCH  11  12
ATOM     12  N   UNL d   1      55.850  -0.137  32.655  0.00  0.00    -0.057 NA
BRANCH  12  13
ATOM     13  C   UNL d   1      55.499   0.136  33.360  0.00  0.00     0.750 A 
ATOM     14  N   UNL d   1      55.944   0.153  34.077  0.00  0.00    -0.058 NA
ATOM     15  C   UNL d   1      55.568   0.432  34.766  0.00  0.00     0.120 A 
ATOM     16  C   UNL d   1      54.800   0.682  34.767  0.00  0.00     0.043 A 
ATOM     17  C   UNL d   1      54.374   0.661  34.061  0.00  0.00     0.120 A 
ATOM     18  N   UNL d   1      54.716   0.394  33.373  0.00  0.00    -0.058 NA
ENDBRANCH  12  13
ENDBRANCH  11  12
ENDBRANCH   1  11
TORSDOF 3
ENDMDL
MODEL 6
REMARK VINA RESULT:      -2.8      9.472     10.124
REMARK  3 active torsions:
REMARK  status: ('A' for Active; 'I' for Inactive)
REMARK    1  A    between atoms: C_7  and  C_1 
REMARK    2  A    between atoms: N_9  and  C_7 
REMARK    3  A    between atoms: C_8  and  N_9 
ROOT
ATOM      1  C   UNL d   1      58.796  -9.812  32.540  0.00  0.00     0.146 A 
ATOM      2  C   UNL d   1      57.968  -9.812  32.571  0.00  0.00     0.304 A 
ATOM      3  C   UNL d   1      59.169  -9.814  31.775  0.00  0.00     0.304 A 
ATOM      4  O   UNL d   1      58.725  -9.815  31.106  0.00  0.00    -0.277 OA
ATOM      5  O   UNL d   1      57.532  -9.814  31.868  0.00  0.00    -0.277 OA
ATOM      6  C   UNL d   1      57.874  -9.815  31.151  0.00  0.00     0.203 A 
ATOM      7  O   UNL d   1      60.009  -9.814  31.735  0.00  0.00    -0.259 OA
ATOM      8  O   UNL d   1      57.577  -9.811  33.349  0.00  0.00    -0.259 OA
ATOM      9  C   UNL d   1      57.155  -9.816  30.787  0.00  0.00     0.062 C 
ATOM     10  C   UNL d   1      57.839  -9.816  30.333  0.00  0.00     0.062 C 
ENDROOT
BRANCH   1  11
ATOM     11  C   UNL d   1      59.252  -9.811  33.228  0.00  0.00     0.129 C 
BRANCH  11  12
ATOM     12  N   UNL d   1      59.487  -9.104  33.550  0.00  0.00    -0.057 NA
BRANCH  12  13
ATOM     13  C   UNL d   1      59.862  -9.097  34.295  0.00  0.00     0.750 A 
ATOM     14  N   UNL d   1      59.983  -8.368  34.703  0.00  0.00    -0.058 NA
ATOM     15  C   UNL d   1      60.360  -8.392  35.445  0.00  0.00     0.120 A 
ATOM     16  C   UNL d   1      60.609  -9.082  35.780  0.00  0.00     0.043 A 
ATOM     17  C   UNL d   1      60.486  -9.789  35.373  0.00  0.00     0.120 A 
ATOM     18  N   UNL d   1      60.121  -9.796  34.647  0.00  0.00    -0.058 NA
ENDBRANCH  12  13
ENDBRANCH  11  12
ENDBRANCH   1  11
TORSDOF 3
ENDMDL
MODEL 7
REMARK VINA RESULT:      -2.6      3.121      5.143
REMARK  3 active torsions:
REMARK  status: ('A' for Active; 'I' for Inactive)
REMARK    1  A    between atoms: C_7  and  C_1 
REMARK    2  A    between atoms: N_9  and  C_7 
REMARK    3  A    between atoms: C_8  and  N_9 
ROOT
ATOM      1  C   UNL d   1      59.369  -2.255  28.906  0.00  0.00     0.146 A 
ATOM      2  C   UNL d   1      60.189  -2.173  28.822  0.00  0.00     0.304 A 
ATOM      3  C   UNL d   1      59.034  -3.034  28.833  0.00  0.00     0.304 A 
ATOM      4  O   UNL d   1      59.504  -3.668  28.685  0.00  0.00    -0.277 OA
ATOM      5  O   UNL d   1      60.654  -2.840  28.669  0.00  0.00    -0.277 OA
ATOM      6  C   UNL d   1      60.347  -3.571  28.599  0.00  0.00     0.203 A 
ATOM      7  O   UNL d   1      58.202  -3.125  28.918  0.00  0.00    -0.259 OA
ATOM      8  O   UNL d   1      60.542  -1.380  28.895  0.00  0.00    -0.259 OA
ATOM      9  C   UNL d   1      61.076  -3.885  28.468  0.00  0.00     0.062 C 
ATOM     10  C   UNL d   1      60.418  -4.376  28.474  0.00  0.00     0.062 C 
ENDROOT
BRANCH   1  11
ATOM     11  C   UNL d   1      58.885  -1.604  29.058  0.00  0.00     0.129 C 
BRANCH  11  12
ATOM     12  N   UNL d   1      58.731  -1.392  29.827  0.00  0.00    -0.057 NA
BRANCH  12  13
ATOM     13  C   UNL d   1      58.293  -0.699  29.981  0.00  0.00     0.750 A 
ATOM     14  N   UNL d   1      57.915  -0.593  30.728  0.00  0.00    -0.058 NA
ATOM     15  C   UNL d   1      57.485   0.109  30.853  0.00  0.00     0.120 A 
ATOM     16  C   UNL d   1      57.419   0.682  30.288  0.00  0.00     0.043 A 
ATOM     17  C   UNL d   1      57.793   0.568  29.561  0.00  0.00     0.120 A 
ATOM     18  N   UNL d   1      58.220  -0.107  29.411  0.00  0.00    -0.058 NA
ENDBRANCH  12  13
ENDBRANCH  11  12
ENDBRANCH   1  11
TORSDOF 3
ENDMDL
