MODEL 1
REMARK VINA RESULT:      26.1      0.000      0.000
REMARK  3 active torsions:
REMARK  status: ('A' for Active; 'I' for Inactive)
REMARK    1  A    between atoms: C_2  and  C_1 
REMARK    2  A    between atoms: C_5  and  C_2 
REMARK    3  A    between atoms: C_4  and  C_3 
ROOT
ATOM      1  C   UNL d   1     -58.270 -98.904 -44.235  0.00  0.00     0.045 A 
ATOM      2  C   UNL d   1     -59.054 -98.898 -44.493  0.00  0.00     0.068 A 
ATOM      3  C   UNL d   1     -58.093 -98.838 -43.434  0.00  0.00     0.003 A 
ATOM      4  C   UNL d   1     -59.666 -98.824 -43.941  0.00  0.00     0.006 A 
ATOM      5  C   UNL d   1     -58.699 -98.764 -42.884  0.00  0.00     0.000 A 
ATOM      6  C   UNL d   1     -59.495 -98.757 -43.140  0.00  0.00     0.000 A 
ENDROOT
BRANCH   1   7
ATOM      7  C   UNL d   1     -57.653 -98.979 -44.787  0.00  0.00     0.196 C 
ATOM      8  O   UNL d   1     -57.778 -98.755 -45.569  0.00  0.00    -0.287 OA
BRANCH   7   9
ATOM      9  C   UNL d   1     -56.919 -99.275 -44.553  0.00  0.00     0.039 A 
ATOM     10  C   UNL d   1     -56.848-100.064 -44.301  0.00  0.00     0.005 A 
ATOM     11  C   UNL d   1     -56.109-100.356 -44.067  0.00  0.00     0.030 A 
ATOM     12  C   UNL d   1     -55.449 -99.868 -44.083  0.00  0.00     0.140 A 
ATOM     13  C   UNL d   1     -55.519 -99.088 -44.332  0.00  0.00     0.030 A 
ATOM     14  F   UNL d   1     -54.713-100.173 -43.845  0.00  0.00    -0.204 F 
ATOM     15  C   UNL d   1     -56.250 -98.787 -44.567  0.00  0.00     0.005 A 
ENDBRANCH   7   9
ENDBRANCH   1   7
BRANCH   2  16
ATOM     16  C   UNL d   1     -59.218 -98.966 -45.296  0.00  0.00     0.211 C 
ATOM     17  O   UNL d   1     -58.641 -98.766 -45.855  0.00  0.00    -0.644 OA
ATOM     18  O   UNL d   1     -59.958 -99.233 -45.532  0.00  0.00    -0.644 OA
ENDBRANCH   2  16
TORSDOF 3
ENDMDL
