MODEL 1
REMARK VINA RESULT:     135.3      0.000      0.000
REMARK  3 active torsions:
REMARK  status: ('A' for Active; 'I' for Inactive)
REMARK    1  A    between atoms: N_9  and  C_3 
REMARK    2  A    between atoms: C_12  and  C_5 
REMARK    3  A    between atoms: C_17  and  N_10 
ROOT
ATOM      1  N   UNL d   1      60.555  47.407  50.351  0.00  0.00    -0.196 N 
ATOM      2  C   UNL d   1      61.335  47.150  50.272  0.00  0.00     0.167 A 
ATOM      3  C   UNL d   1      60.398  48.185  50.570  0.00  0.00     0.152 A 
ATOM      4  N   UNL d   1      60.057  46.777  50.179  0.00  0.00    -0.163 NA
ATOM      5  C   UNL d   1      61.322  46.360  50.051  0.00  0.00     0.055 A 
ATOM      6  C   UNL d   1      60.538  46.127  49.993  0.00  0.00     0.104 A 
ATOM      7  N   UNL d   1      61.958  47.670  50.412  0.00  0.00    -0.227 NA
ATOM      8  C   UNL d   1      61.022  48.713  50.712  0.00  0.00     0.057 A 
ATOM      9  C   UNL d   1      61.802  48.456  50.633  0.00  0.00     0.086 A 
ATOM     10  C   UNL d   1      60.269  45.375  49.785  0.00  0.00     0.023 C 
ATOM     11  C   UNL d   1      62.430  48.979  50.774  0.00  0.00     0.021 C 
ENDROOT
BRANCH   3  12
ATOM     12  N   UNL d   1      59.610  48.444  50.650  0.00  0.00    -0.286 N 
ATOM     13  C   UNL d   1      58.992  47.890  50.663  0.00  0.00     0.101 A 
ATOM     14  C   UNL d   1      58.212  48.147  50.742  0.00  0.00     0.100 A 
ATOM     15  N   UNL d   1      58.051  48.959  50.808  0.00  0.00    -0.301 N 
ATOM     16  C   UNL d   1      58.665  49.505  50.794  0.00  0.00     0.100 A 
ATOM     17  C   UNL d   1      59.445  49.248  50.715  0.00  0.00     0.101 A 
BRANCH  15  18
ATOM     18  C   UNL d   1      57.267  49.217  50.887  0.00  0.00     0.064 A 
ATOM     19  C   UNL d   1      56.771  49.240  50.229  0.00  0.00     0.018 A 
ATOM     20  C   UNL d   1      56.033  49.518  50.478  0.00  0.00     0.002 A 
ATOM     21  C   UNL d   1      56.078  49.665  51.284  0.00  0.00     0.002 A 
ATOM     22  C   UNL d   1      56.829  49.483  51.539  0.00  0.00     0.018 A 
ENDBRANCH  15  18
ENDBRANCH   3  12
BRANCH   5  23
ATOM     23  C   UNL d   1      61.921  45.819  49.895  0.00  0.00     0.004 A 
ATOM     24  C   UNL d   1      62.421  45.931  49.238  0.00  0.00     0.000 A 
ATOM     25  C   UNL d   1      63.020  45.390  49.082  0.00  0.00     0.000 A 
ATOM     26  C   UNL d   1      63.128  44.735  49.573  0.00  0.00     0.000 A 
ATOM     27  C   UNL d   1      62.635  44.620  50.225  0.00  0.00     0.000 A 
ATOM     28  C   UNL d   1      62.029  45.164  50.386  0.00  0.00     0.000 A 
ENDBRANCH   5  23
TORSDOF 3
ENDMDL
