MODEL 1
REMARK VINA RESULT:      -9.2      0.000      0.000
REMARK  2 active torsions:
REMARK  status: ('A' for Active; 'I' for Inactive)
REMARK    1  A    between atoms: C_6  and  C_1 
REMARK    2  A    between atoms: C_7  and  C_4 
ROOT
ATOM      1  C   UNL d   1      54.515  33.339  54.690  0.00  0.00     0.169 A 
ATOM      2  C   UNL d   1      54.002  32.809  55.059  0.00  0.00     0.048 A 
ATOM      3  N   UNL d   1      54.477  32.562  53.502  0.00  0.00    -0.148 NA
ATOM      4  C   UNL d   1      53.964  32.029  53.867  0.00  0.00     0.105 A 
ATOM      5  N   UNL d   1      54.758  33.224  53.911  0.00  0.00    -0.142 NA
ENDROOT
BRANCH   4   6
ATOM      6  C   UNL d   1      53.582  31.332  53.642  0.00  0.00     0.019 A 
ATOM      7  C   UNL d   1      52.927  31.369  53.145  0.00  0.00     0.002 A 
ATOM      8  C   UNL d   1      52.546  30.681  52.919  0.00  0.00     0.000 A 
ATOM      9  C   UNL d   1      52.655  32.103  52.875  0.00  0.00     0.000 C 
ATOM     10  C   UNL d   1      52.817  29.946  53.189  0.00  0.00     0.000 A 
ATOM     11  C   UNL d   1      53.476  29.911  53.689  0.00  0.00     0.000 A 
ATOM     12  C   UNL d   1      52.432  29.253  52.962  0.00  0.00     0.000 C 
ATOM     13  C   UNL d   1      53.858  30.600  53.915  0.00  0.00     0.002 A 
ENDBRANCH   4   6
BRANCH   1  14
ATOM     14  C   UNL d   1      54.791  33.998  55.107  0.00  0.00     0.231 C 
ATOM     15  O   UNL d   1      54.320  34.672  55.169  0.00  0.00    -0.643 OA
ATOM     16  O   UNL d   1      55.534  33.981  55.461  0.00  0.00    -0.643 OA
ENDBRANCH   1  14
TORSDOF 2
ENDMDL
MODEL 2
REMARK VINA RESULT:      -8.7      1.540      2.023
REMARK  2 active torsions:
REMARK  status: ('A' for Active; 'I' for Inactive)
REMARK    1  A    between atoms: C_6  and  C_1 
REMARK    2  A    between atoms: C_7  and  C_4 
ROOT
ATOM      1  C   UNL d   1      52.968  34.824  54.067  0.00  0.00     0.169 A 
ATOM      2  C   UNL d   1      53.039  34.182  54.581  0.00  0.00     0.048 A 
ATOM      3  N   UNL d   1      52.930  33.940  52.956  0.00  0.00    -0.148 NA
ATOM      4  C   UNL d   1      53.002  33.296  53.466  0.00  0.00     0.105 A 
ATOM      5  N   UNL d   1      52.912  34.712  53.253  0.00  0.00    -0.142 NA
ENDROOT
BRANCH   4   6
ATOM      6  C   UNL d   1      53.037  32.476  53.375  0.00  0.00     0.019 A 
ATOM      7  C   UNL d   1      53.736  32.077  53.551  0.00  0.00     0.002 A 
ATOM      8  C   UNL d   1      53.776  31.264  53.463  0.00  0.00     0.000 A 
ATOM      9  C   UNL d   1      54.396  32.500  53.817  0.00  0.00     0.000 C 
ATOM     10  C   UNL d   1      53.116  30.840  53.197  0.00  0.00     0.000 A 
ATOM     11  C   UNL d   1      52.415  31.243  53.021  0.00  0.00     0.000 A 
ATOM     12  C   UNL d   1      53.157  30.022  53.109  0.00  0.00     0.000 C 
ATOM     13  C   UNL d   1      52.374  32.056  53.109  0.00  0.00     0.002 A 
ENDBRANCH   4   6
BRANCH   1  14
ATOM     14  C   UNL d   1      52.951  35.591  54.374  0.00  0.00     0.231 C 
ATOM     15  O   UNL d   1      53.639  36.046  54.381  0.00  0.00    -0.643 OA
ATOM     16  O   UNL d   1      52.248  35.902  54.671  0.00  0.00    -0.643 OA
ENDBRANCH   1  14
TORSDOF 2
ENDMDL
MODEL 3
REMARK VINA RESULT:      -8.6      2.543      3.911
REMARK  2 active torsions:
REMARK  status: ('A' for Active; 'I' for Inactive)
REMARK    1  A    between atoms: C_6  and  C_1 
REMARK    2  A    between atoms: C_7  and  C_4 
ROOT
ATOM      1  C   UNL d   1      52.912  30.441  53.384  0.00  0.00     0.169 A 
ATOM      2  C   UNL d   1      52.978  30.901  54.066  0.00  0.00     0.048 A 
ATOM      3  N   UNL d   1      52.856  31.614  52.587  0.00  0.00    -0.148 NA
ATOM      4  C   UNL d   1      52.921  32.079  53.265  0.00  0.00     0.105 A 
ATOM      5  N   UNL d   1      52.851  30.789  52.640  0.00  0.00    -0.142 NA
ENDROOT
BRANCH   4   6
ATOM      6  C   UNL d   1      52.945  32.889  53.423  0.00  0.00     0.019 A 
ATOM      7  C   UNL d   1      53.665  33.249  53.596  0.00  0.00     0.002 A 
ATOM      8  C   UNL d   1      53.694  34.052  53.753  0.00  0.00     0.000 A 
ATOM      9  C   UNL d   1      54.359  32.798  53.611  0.00  0.00     0.000 C 
ATOM     10  C   UNL d   1      53.000  34.505  53.738  0.00  0.00     0.000 A 
ATOM     11  C   UNL d   1      52.277  34.141  53.564  0.00  0.00     0.000 A 
ATOM     12  C   UNL d   1      53.029  35.313  53.897  0.00  0.00     0.000 C 
ATOM     13  C   UNL d   1      52.248  33.338  53.407  0.00  0.00     0.002 A 
ENDBRANCH   4   6
BRANCH   1  14
ATOM     14  C   UNL d   1      52.908  29.616  53.448  0.00  0.00     0.231 C 
ATOM     15  O   UNL d   1      53.345  29.248  54.044  0.00  0.00    -0.643 OA
ATOM     16  O   UNL d   1      52.469  29.163  52.919  0.00  0.00    -0.643 OA
ENDBRANCH   1  14
TORSDOF 2
ENDMDL
MODEL 4
REMARK VINA RESULT:      -8.6      2.824      4.045
REMARK  2 active torsions:
REMARK  status: ('A' for Active; 'I' for Inactive)
REMARK    1  A    between atoms: C_6  and  C_1 
REMARK    2  A    between atoms: C_7  and  C_4 
ROOT
ATOM      1  C   UNL d   1      51.109  34.066  52.741  0.00  0.00     0.169 A 
ATOM      2  C   UNL d   1      51.799  34.516  52.711  0.00  0.00     0.048 A 
ATOM      3  N   UNL d   1      51.685  33.231  53.734  0.00  0.00    -0.148 NA
ATOM      4  C   UNL d   1      52.378  33.679  53.708  0.00  0.00     0.105 A 
ATOM      5  N   UNL d   1      51.043  33.422  53.249  0.00  0.00    -0.142 NA
ENDROOT
BRANCH   4   6
ATOM      6  C   UNL d   1      53.107  33.657  54.096  0.00  0.00     0.019 A 
ATOM      7  C   UNL d   1      53.660  33.084  53.889  0.00  0.00     0.002 A 
ATOM      8  C   UNL d   1      54.385  33.057  54.269  0.00  0.00     0.000 A 
ATOM      9  C   UNL d   1      53.483  32.534  53.295  0.00  0.00     0.000 C 
ATOM     10  C   UNL d   1      54.563  33.606  54.864  0.00  0.00     0.000 A 
ATOM     11  C   UNL d   1      54.005  34.182  55.070  0.00  0.00     0.000 A 
ATOM     12  C   UNL d   1      55.292  33.580  55.247  0.00  0.00     0.000 C 
ATOM     13  C   UNL d   1      53.281  34.208  54.690  0.00  0.00     0.002 A 
ENDBRANCH   4   6
BRANCH   1  14
ATOM     14  C   UNL d   1      50.472  34.264  52.252  0.00  0.00     0.231 C 
ATOM     15  O   UNL d   1      50.551  34.214  51.433  0.00  0.00    -0.643 OA
ATOM     16  O   UNL d   1      49.759  34.511  52.583  0.00  0.00    -0.643 OA
ENDBRANCH   1  14
TORSDOF 2
ENDMDL
MODEL 5
REMARK VINA RESULT:      -8.4      2.289      2.996
REMARK  2 active torsions:
REMARK  status: ('A' for Active; 'I' for Inactive)
REMARK    1  A    between atoms: C_6  and  C_1 
REMARK    2  A    between atoms: C_7  and  C_4 
ROOT
ATOM      1  C   UNL d   1      54.071  33.520  54.732  0.00  0.00     0.169 A 
ATOM      2  C   UNL d   1      53.466  34.065  54.867  0.00  0.00     0.048 A 
ATOM      3  N   UNL d   1      53.379  33.021  53.597  0.00  0.00    -0.148 NA
ATOM      4  C   UNL d   1      52.772  33.563  53.728  0.00  0.00     0.105 A 
ATOM      5  N   UNL d   1      54.036  32.994  54.099  0.00  0.00    -0.142 NA
ENDROOT
BRANCH   4   6
ATOM      6  C   UNL d   1      52.056  33.746  53.358  0.00  0.00     0.019 A 
ATOM      7  C   UNL d   1      52.026  34.363  52.813  0.00  0.00     0.002 A 
ATOM      8  C   UNL d   1      51.319  34.548  52.444  0.00  0.00     0.000 A 
ATOM      9  C   UNL d   1      52.710  34.795  52.641  0.00  0.00     0.000 C 
ATOM     10  C   UNL d   1      50.633  34.116  52.616  0.00  0.00     0.000 A 
ATOM     11  C   UNL d   1      50.666  33.496  53.163  0.00  0.00     0.000 A 
ATOM     12  C   UNL d   1      49.922  34.303  52.243  0.00  0.00     0.000 C 
ATOM     13  C   UNL d   1      51.373  33.311  53.533  0.00  0.00     0.002 A 
ENDBRANCH   4   6
BRANCH   1  14
ATOM     14  C   UNL d   1      54.723  33.502  55.239  0.00  0.00     0.231 C 
ATOM     15  O   UNL d   1      54.744  32.962  55.863  0.00  0.00    -0.643 OA
ATOM     16  O   UNL d   1      55.352  34.021  55.123  0.00  0.00    -0.643 OA
ENDBRANCH   1  14
TORSDOF 2
ENDMDL
