MODEL 1
REMARK VINA RESULT:      -2.2      0.000      0.000
REMARK  7 active torsions:
REMARK  status: ('A' for Active; 'I' for Inactive)
REMARK    1  A    between atoms: C_3  and  C_1 
REMARK    2  A    between atoms: C_9  and  N_2 
REMARK    3  A    between atoms: C_6  and  C_3 
REMARK    4  A    between atoms: C_8  and  C_3 
REMARK       I    between atoms: N_11  and  C_6 
REMARK    5  A    between atoms: C_26  and  C_7 
REMARK    6  A    between atoms: C_21  and  N_11 
REMARK    7  A    between atoms: C_12  and  C_21 
ROOT
ATOM      1  C   UNL d   1      32.102  17.681 -24.135  0.00  0.00     0.103 A 
ATOM      2  N   UNL d   1      31.341  17.389 -24.244  0.00  0.00    -0.269 N 
ATOM      3  S   UNL d   1      32.633  17.060 -24.252  0.00  0.00    -0.064 SA
ATOM      4  C   UNL d   1      31.393  16.586 -24.430  0.00  0.00     0.271 A 
ATOM      5  C   UNL d   1      32.195  16.385 -24.434  0.00  0.00     0.087 A 
ATOM      6  O   UNL d   1      30.762  16.081 -24.582  0.00  0.00    -0.266 OA
ENDROOT
BRANCH   1   7
ATOM      7  C   UNL d   1      32.304  18.460 -23.941  0.00  0.00     0.101 C 
BRANCH   7   8
ATOM      8  C   UNL d   1      32.646  18.632 -23.208  0.00  0.00     0.283 C 
ATOM      9  N   UNL d   1      32.752  19.410 -22.974  0.00  0.00    -0.204 NA
ATOM     10  O   UNL d   1      32.880  18.013 -22.710  0.00  0.00    -0.265 OA
BRANCH   9  11
ATOM     11  C   UNL d   1      33.094  19.581 -22.241  0.00  0.00     0.127 C 
BRANCH  11  12
ATOM     12  C   UNL d   1      32.915  20.282 -21.848  0.00  0.00     0.119 A 
ATOM     13  O   UNL d   1      32.547  20.358 -21.116  0.00  0.00    -0.304 OA
ATOM     14  C   UNL d   1      32.482  21.162 -20.940  0.00  0.00     0.123 A 
ATOM     15  C   UNL d   1      32.811  21.584 -21.564  0.00  0.00     0.029 A 
ATOM     16  C   UNL d   1      33.079  21.046 -22.126  0.00  0.00     0.028 A 
ENDBRANCH  11  12
ENDBRANCH   9  11
ENDBRANCH   7   8
BRANCH   7  17
ATOM     17  C   UNL d   1      32.163  19.072 -24.485  0.00  0.00     0.129 C 
ATOM     18  N   UNL d   1      32.796  19.520 -24.763  0.00  0.00    -0.146 N 
ENDBRANCH   7  17
ENDBRANCH   1   7
BRANCH   2  19
ATOM     19  C   UNL d   1      30.516  17.359 -24.296  0.00  0.00     0.068 A 
ATOM     20  C   UNL d   1      30.062  17.330 -23.618  0.00  0.00     0.020 A 
ATOM     21  C   UNL d   1      29.244  17.300 -23.670  0.00  0.00     0.031 A 
ATOM     22  C   UNL d   1      28.879  17.301 -24.414  0.00  0.00     0.140 A 
ATOM     23  C   UNL d   1      29.341  17.331 -25.097  0.00  0.00     0.031 A 
ATOM     24  F   UNL d   1      28.059  17.272 -24.475  0.00  0.00    -0.204 F 
ATOM     25  C   UNL d   1      30.158  17.361 -25.040  0.00  0.00     0.020 A 
ENDBRANCH   2  19
BRANCH   5  26
ATOM     26  C   UNL d   1      32.498  15.633 -24.594  0.00  0.00     0.011 C 
ATOM     27  C   UNL d   1      33.139  15.546 -25.096  0.00  0.00     0.001 C 
ENDBRANCH   5  26
TORSDOF 7
ENDMDL
