MODEL 1
REMARK VINA RESULT:      -1.9      0.000      0.000
REMARK  2 active torsions:
REMARK  status: ('A' for Active; 'I' for Inactive)
REMARK    1  A    between atoms: C_9  and  N_1 
REMARK    2  A    between atoms: C_8  and  N_2 
ROOT
ATOM      1  N   UNL d   1      59.597  -1.269  29.147  0.00  0.00    -0.208 N 
ATOM      2  N   UNL d   1      58.821  -1.274  29.434  0.00  0.00    -0.208 N 
ATOM      3  C   UNL d   1      58.512  -2.034  29.349  0.00  0.00     0.284 A 
ATOM      4  C   UNL d   1      59.771  -2.033  28.882  0.00  0.00     0.284 A 
ATOM      5  C   UNL d   1      59.101  -2.505  29.007  0.00  0.00     0.125 A 
ATOM      6  O   UNL d   1      57.761  -2.280  29.564  0.00  0.00    -0.265 OA
ATOM      7  O   UNL d   1      60.490  -2.283  28.549  0.00  0.00    -0.265 OA
ENDROOT
BRANCH   1   8
ATOM      8  C   UNL d   1      60.104  -0.623  29.128  0.00  0.00     0.085 A 
ATOM      9  C   UNL d   1      60.621  -0.481  29.763  0.00  0.00     0.019 A 
ATOM     10  C   UNL d   1      61.131   0.166  29.747  0.00  0.00     0.002 A 
ATOM     11  C   UNL d   1      61.128   0.681  29.089  0.00  0.00     0.000 A 
ATOM     12  C   UNL d   1      60.610   0.536  28.456  0.00  0.00     0.002 A 
ATOM     13  C   UNL d   1      60.100  -0.117  28.480  0.00  0.00     0.019 A 
ENDBRANCH   1   8
BRANCH   2  14
ATOM     14  C   UNL d   1      58.425  -0.624  29.751  0.00  0.00     0.085 A 
ATOM     15  C   UNL d   1      58.098  -0.052  29.255  0.00  0.00     0.019 A 
ATOM     16  C   UNL d   1      57.705   0.594  29.571  0.00  0.00     0.002 A 
ATOM     17  C   UNL d   1      57.635   0.674  30.398  0.00  0.00     0.000 A 
ATOM     18  C   UNL d   1      57.963   0.102  30.894  0.00  0.00     0.002 A 
ATOM     19  C   UNL d   1      58.356  -0.544  30.569  0.00  0.00     0.019 A 
ENDBRANCH   2  14
TORSDOF 2
ENDMDL
MODEL 2
REMARK VINA RESULT:      -0.6      0.076      2.503
REMARK  2 active torsions:
REMARK  status: ('A' for Active; 'I' for Inactive)
REMARK    1  A    between atoms: C_9  and  N_1 
REMARK    2  A    between atoms: C_8  and  N_2 
ROOT
ATOM      1  N   UNL d   1      58.831  -1.298  29.495  0.00  0.00    -0.208 N 
ATOM      2  N   UNL d   1      59.605  -1.313  29.203  0.00  0.00    -0.208 N 
ATOM      3  C   UNL d   1      59.783  -2.081  28.960  0.00  0.00     0.284 A 
ATOM      4  C   UNL d   1      58.525  -2.063  29.432  0.00  0.00     0.284 A 
ATOM      5  C   UNL d   1      59.113  -2.546  29.102  0.00  0.00     0.125 A 
ATOM      6  O   UNL d   1      60.491  -2.337  28.638  0.00  0.00    -0.265 OA
ATOM      7  O   UNL d   1      57.763  -2.306  29.658  0.00  0.00    -0.265 OA
ENDROOT
BRANCH   1   8
ATOM      8  C   UNL d   1      58.436  -0.642  29.793  0.00  0.00     0.085 A 
ATOM      9  C   UNL d   1      58.423  -0.500  30.612  0.00  0.00     0.019 A 
ATOM     10  C   UNL d   1      58.028   0.156  30.914  0.00  0.00     0.002 A 
ATOM     11  C   UNL d   1      57.638   0.682  30.395  0.00  0.00     0.000 A 
ATOM     12  C   UNL d   1      57.653   0.538  29.576  0.00  0.00     0.002 A 
ATOM     13  C   UNL d   1      58.053  -0.126  29.280  0.00  0.00     0.019 A 
ENDBRANCH   1   8
BRANCH   2  14
ATOM     14  C   UNL d   1      60.113  -0.665  29.165  0.00  0.00     0.085 A 
ATOM     15  C   UNL d   1      60.124  -0.183  28.495  0.00  0.00     0.019 A 
ATOM     16  C   UNL d   1      60.628   0.462  28.457  0.00  0.00     0.002 A 
ATOM     17  C   UNL d   1      61.134   0.633  29.097  0.00  0.00     0.000 A 
ATOM     18  C   UNL d   1      61.123   0.151  29.767  0.00  0.00     0.002 A 
ATOM     19  C   UNL d   1      60.613  -0.494  29.798  0.00  0.00     0.019 A 
ENDBRANCH   2  14
TORSDOF 2
ENDMDL
MODEL 3
REMARK VINA RESULT:      -0.6      3.097      4.954
REMARK  2 active torsions:
REMARK  status: ('A' for Active; 'I' for Inactive)
REMARK    1  A    between atoms: C_9  and  N_1 
REMARK    2  A    between atoms: C_8  and  N_2 
ROOT
ATOM      1  N   UNL d   1      57.306   0.259  33.188  0.00  0.00    -0.208 N 
ATOM      2  N   UNL d   1      57.817   0.293  32.538  0.00  0.00    -0.208 N 
ATOM      3  C   UNL d   1      58.556   0.554  32.795  0.00  0.00     0.284 A 
ATOM      4  C   UNL d   1      57.732   0.500  33.855  0.00  0.00     0.284 A 
ATOM      5  C   UNL d   1      58.504   0.682  33.611  0.00  0.00     0.125 A 
ATOM      6  O   UNL d   1      59.221   0.665  32.330  0.00  0.00    -0.265 OA
ATOM      7  O   UNL d   1      57.439   0.551  34.631  0.00  0.00    -0.265 OA
ENDROOT
BRANCH   1   8
ATOM      8  C   UNL d   1      56.518   0.027  33.176  0.00  0.00     0.085 A 
ATOM      9  C   UNL d   1      55.917   0.598  33.115  0.00  0.00     0.019 A 
ATOM     10  C   UNL d   1      55.126   0.369  33.102  0.00  0.00     0.002 A 
ATOM     11  C   UNL d   1      54.927  -0.441  33.151  0.00  0.00     0.000 A 
ATOM     12  C   UNL d   1      55.530  -1.010  33.212  0.00  0.00     0.002 A 
ATOM     13  C   UNL d   1      56.324  -0.771  33.224  0.00  0.00     0.019 A 
ENDBRANCH   1   8
BRANCH   2  14
ATOM     14  C   UNL d   1      57.616   0.098  31.763  0.00  0.00     0.085 A 
ATOM     15  C   UNL d   1      57.340   0.679  31.246  0.00  0.00     0.019 A 
ATOM     16  C   UNL d   1      57.140   0.484  30.474  0.00  0.00     0.002 A 
ATOM     17  C   UNL d   1      57.216  -0.303  30.212  0.00  0.00     0.000 A 
ATOM     18  C   UNL d   1      57.492  -0.883  30.729  0.00  0.00     0.002 A 
ATOM     19  C   UNL d   1      57.690  -0.680  31.502  0.00  0.00     0.019 A 
ENDBRANCH   2  14
TORSDOF 2
ENDMDL
MODEL 4
REMARK VINA RESULT:      -0.3      0.996      2.454
REMARK  2 active torsions:
REMARK  status: ('A' for Active; 'I' for Inactive)
REMARK    1  A    between atoms: C_9  and  N_1 
REMARK    2  A    between atoms: C_8  and  N_2 
ROOT
ATOM      1  N   UNL d   1      59.031  -0.526  29.719  0.00  0.00    -0.208 N 
ATOM      2  N   UNL d   1      58.883  -1.340  29.703  0.00  0.00    -0.208 N 
ATOM      3  C   UNL d   1      58.124  -1.477  29.995  0.00  0.00     0.284 A 
ATOM      4  C   UNL d   1      58.358  -0.155  30.025  0.00  0.00     0.284 A 
ATOM      5  C   UNL d   1      57.798  -0.742  30.194  0.00  0.00     0.125 A 
ATOM      6  O   UNL d   1      57.758  -2.205  30.073  0.00  0.00    -0.265 OA
ATOM      7  O   UNL d   1      58.260   0.662  30.141  0.00  0.00    -0.265 OA
ENDROOT
BRANCH   1   8
ATOM      8  C   UNL d   1      59.722  -0.152  29.477  0.00  0.00     0.085 A 
ATOM      9  C   UNL d   1      59.787   0.140  28.701  0.00  0.00     0.019 A 
ATOM     10  C   UNL d   1      60.478   0.515  28.455  0.00  0.00     0.002 A 
ATOM     11  C   UNL d   1      61.116   0.602  28.988  0.00  0.00     0.000 A 
ATOM     12  C   UNL d   1      61.047   0.309  29.763  0.00  0.00     0.002 A 
ATOM     13  C   UNL d   1      60.348  -0.067  30.003  0.00  0.00     0.019 A 
ENDBRANCH   1   8
BRANCH   2  14
ATOM     14  C   UNL d   1      59.409  -1.915  29.437  0.00  0.00     0.085 A 
ATOM     15  C   UNL d   1      59.278  -2.301  28.720  0.00  0.00     0.019 A 
ATOM     16  C   UNL d   1      59.802  -2.874  28.455  0.00  0.00     0.002 A 
ATOM     17  C   UNL d   1      60.472  -3.066  28.913  0.00  0.00     0.000 A 
ATOM     18  C   UNL d   1      60.603  -2.680  29.630  0.00  0.00     0.002 A 
ATOM     19  C   UNL d   1      60.072  -2.107  29.888  0.00  0.00     0.019 A 
ENDBRANCH   2  14
TORSDOF 2
ENDMDL
MODEL 5
REMARK VINA RESULT:      -0.3      1.076      2.701
REMARK  2 active torsions:
REMARK  status: ('A' for Active; 'I' for Inactive)
REMARK    1  A    between atoms: C_9  and  N_1 
REMARK    2  A    between atoms: C_8  and  N_2 
ROOT
ATOM      1  N   UNL d   1      59.845  -0.511  29.378  0.00  0.00    -0.208 N 
ATOM      2  N   UNL d   1      59.966  -1.297  29.148  0.00  0.00    -0.208 N 
ATOM      3  C   UNL d   1      60.758  -1.396  28.943  0.00  0.00     0.284 A 
ATOM      4  C   UNL d   1      60.571  -0.119  29.314  0.00  0.00     0.284 A 
ATOM      5  C   UNL d   1      61.133  -0.665  29.045  0.00  0.00     0.125 A 
ATOM      6  O   UNL d   1      61.110  -2.089  28.684  0.00  0.00    -0.265 OA
ATOM      7  O   UNL d   1      60.710   0.682  29.488  0.00  0.00    -0.265 OA
ENDROOT
BRANCH   1   8
ATOM      8  C   UNL d   1      59.136  -0.179  29.624  0.00  0.00     0.085 A 
ATOM      9  C   UNL d   1      58.598   0.118  29.064  0.00  0.00     0.019 A 
ATOM     10  C   UNL d   1      57.885   0.451  29.308  0.00  0.00     0.002 A 
ATOM     11  C   UNL d   1      57.703   0.491  30.122  0.00  0.00     0.000 A 
ATOM     12  C   UNL d   1      58.243   0.194  30.680  0.00  0.00     0.002 A 
ATOM     13  C   UNL d   1      58.958  -0.140  30.426  0.00  0.00     0.019 A 
ENDBRANCH   1   8
BRANCH   2  14
ATOM     14  C   UNL d   1      59.385  -1.882  29.130  0.00  0.00     0.085 A 
ATOM     15  C   UNL d   1      58.891  -1.959  28.473  0.00  0.00     0.019 A 
ATOM     16  C   UNL d   1      58.314  -2.541  28.455  0.00  0.00     0.002 A 
ATOM     17  C   UNL d   1      58.225  -3.058  29.103  0.00  0.00     0.000 A 
ATOM     18  C   UNL d   1      58.719  -2.981  29.760  0.00  0.00     0.002 A 
ATOM     19  C   UNL d   1      59.296  -2.394  29.770  0.00  0.00     0.019 A 
ENDBRANCH   2  14
TORSDOF 2
ENDMDL
MODEL 6
REMARK VINA RESULT:      -0.1      1.854      3.559
REMARK  2 active torsions:
REMARK  status: ('A' for Active; 'I' for Inactive)
REMARK    1  A    between atoms: C_9  and  N_1 
REMARK    2  A    between atoms: C_8  and  N_2 
ROOT
ATOM      1  N   UNL d   1      58.715   0.292  31.329  0.00  0.00    -0.208 N 
ATOM      2  N   UNL d   1      59.112   0.253  30.604  0.00  0.00    -0.208 N 
ATOM      3  C   UNL d   1      59.894   0.490  30.716  0.00  0.00     0.284 A 
ATOM      4  C   UNL d   1      59.255   0.557  31.896  0.00  0.00     0.284 A 
ATOM      5  C   UNL d   1      59.983   0.679  31.518  0.00  0.00     0.125 A 
ATOM      6  O   UNL d   1      60.476   0.532  30.142  0.00  0.00    -0.265 OA
ATOM      7  O   UNL d   1      59.097   0.680  32.703  0.00  0.00    -0.265 OA
ENDROOT
BRANCH   1   8
ATOM      8  C   UNL d   1      57.926   0.103  31.463  0.00  0.00     0.085 A 
ATOM      9  C   UNL d   1      57.336   0.680  31.358  0.00  0.00     0.019 A 
ATOM     10  C   UNL d   1      56.545   0.494  31.492  0.00  0.00     0.002 A 
ATOM     11  C   UNL d   1      56.335  -0.278  31.734  0.00  0.00     0.000 A 
ATOM     12  C   UNL d   1      56.928  -0.852  31.838  0.00  0.00     0.002 A 
ATOM     13  C   UNL d   1      57.721  -0.656  31.701  0.00  0.00     0.019 A 
ENDBRANCH   1   8
BRANCH   2  14
ATOM     14  C   UNL d   1      58.777   0.014  29.890  0.00  0.00     0.085 A 
ATOM     15  C   UNL d   1      58.796  -0.780  29.665  0.00  0.00     0.019 A 
ATOM     16  C   UNL d   1      58.462  -1.017  28.955  0.00  0.00     0.002 A 
ATOM     17  C   UNL d   1      58.103  -0.454  28.456  0.00  0.00     0.000 A 
ATOM     18  C   UNL d   1      58.085   0.340  28.681  0.00  0.00     0.002 A 
ATOM     19  C   UNL d   1      58.421   0.570  29.395  0.00  0.00     0.019 A 
ENDBRANCH   2  14
TORSDOF 2
ENDMDL
MODEL 7
REMARK VINA RESULT:       0.4      1.842      2.731
REMARK  2 active torsions:
REMARK  status: ('A' for Active; 'I' for Inactive)
REMARK    1  A    between atoms: C_9  and  N_1 
REMARK    2  A    between atoms: C_8  and  N_2 
ROOT
ATOM      1  N   UNL d   1      59.267   0.241  30.594  0.00  0.00    -0.208 N 
ATOM      2  N   UNL d   1      58.888   0.292  31.328  0.00  0.00    -0.208 N 
ATOM      3  C   UNL d   1      59.431   0.554  31.890  0.00  0.00     0.284 A 
ATOM      4  C   UNL d   1      60.053   0.474  30.703  0.00  0.00     0.284 A 
ATOM      5  C   UNL d   1      60.154   0.667  31.503  0.00  0.00     0.125 A 
ATOM      6  O   UNL d   1      59.284   0.680  32.686  0.00  0.00    -0.265 OA
ATOM      7  O   UNL d   1      60.639   0.508  30.114  0.00  0.00    -0.265 OA
ENDROOT
BRANCH   1   8
ATOM      8  C   UNL d   1      58.927   0.002  29.886  0.00  0.00     0.085 A 
ATOM      9  C   UNL d   1      58.652   0.570  29.344  0.00  0.00     0.019 A 
ATOM     10  C   UNL d   1      58.310   0.334  28.632  0.00  0.00     0.002 A 
ATOM     11  C   UNL d   1      58.239  -0.479  28.455  0.00  0.00     0.000 A 
ATOM     12  C   UNL d   1      58.515  -1.044  28.999  0.00  0.00     0.002 A 
ATOM     13  C   UNL d   1      58.858  -0.798  29.712  0.00  0.00     0.019 A 
ENDBRANCH   1   8
BRANCH   2  14
ATOM     14  C   UNL d   1      58.096   0.109  31.469  0.00  0.00     0.085 A 
ATOM     15  C   UNL d   1      57.507   0.667  31.320  0.00  0.00     0.019 A 
ATOM     16  C   UNL d   1      56.720   0.486  31.460  0.00  0.00     0.002 A 
ATOM     17  C   UNL d   1      56.513  -0.267  31.754  0.00  0.00     0.000 A 
ATOM     18  C   UNL d   1      57.103  -0.824  31.903  0.00  0.00     0.002 A 
ATOM     19  C   UNL d   1      57.890  -0.634  31.760  0.00  0.00     0.019 A 
ENDBRANCH   2  14
TORSDOF 2
ENDMDL
