MODEL 1
REMARK VINA RESULT:     -10.7      0.000      0.000
REMARK  4 active torsions:
REMARK  status: ('A' for Active; 'I' for Inactive)
REMARK    1  A    between atoms: C_11  and  N_2 
REMARK    2  A    between atoms: C_10  and  C_6 
REMARK    3  A    between atoms: C_16  and  C_9 
REMARK    4  A    between atoms: C_21  and  C_16 
ROOT
ATOM      1  C   UNL d   1      53.747  33.855  54.388  0.00  0.00     0.143 A 
ATOM      2  N   UNL d   1      52.619  34.227  53.744  0.00  0.00    -0.242 N 
ATOM      3  C   UNL d   1      53.180  33.618  53.831  0.00  0.00     0.172 A 
ATOM      4  C   UNL d   1      52.845  34.844  54.253  0.00  0.00     0.355 A 
ATOM      5  N   UNL d   1      53.537  34.612  54.647  0.00  0.00    -0.187 NA
ATOM      6  C   UNL d   1      54.366  33.361  54.583  0.00  0.00     0.163 A 
ATOM      7  N   UNL d   1      53.241  32.873  53.467  0.00  0.00    -0.208 NA
ATOM      8  N   UNL d   1      54.438  32.621  54.231  0.00  0.00    -0.220 NA
ATOM      9  C   UNL d   1      53.876  32.377  53.673  0.00  0.00     0.164 A 
ATOM     10  O   UNL d   1      52.442  35.563  54.345  0.00  0.00    -0.244 OA
ENDROOT
BRANCH   2  11
ATOM     11  C   UNL d   1      51.967  34.219  53.248  0.00  0.00     0.070 A 
ATOM     12  C   UNL d   1      51.221  33.995  53.539  0.00  0.00     0.018 A 
ATOM     13  C   UNL d   1      50.564  33.984  53.050  0.00  0.00     0.002 A 
ATOM     14  C   UNL d   1      50.661  34.201  52.263  0.00  0.00     0.000 A 
ATOM     15  C   UNL d   1      51.393  34.424  51.966  0.00  0.00     0.002 A 
ATOM     16  C   UNL d   1      49.999  34.193  51.759  0.00  0.00     0.000 C 
ATOM     17  C   UNL d   1      52.045  34.432  52.462  0.00  0.00     0.018 A 
ENDBRANCH   2  11
BRANCH   6  18
ATOM     18  C   UNL d   1      54.931  33.598  55.139  0.00  0.00     0.316 C 
ATOM     19  O   UNL d   1      55.592  34.039  54.907  0.00  0.00    -0.262 OA
ATOM     20  N   UNL d   1      54.829  33.388  55.940  0.00  0.00    -0.101 N 
ENDBRANCH   6  18
BRANCH   9  21
ATOM     21  C   UNL d   1      53.946  31.635  53.318  0.00  0.00     0.039 C 
BRANCH  21  22
ATOM     22  C   UNL d   1      53.392  31.040  53.479  0.00  0.00     0.003 C 
ATOM     23  C   UNL d   1      52.823  30.854  52.911  0.00  0.00     0.000 C 
ATOM     24  C   UNL d   1      53.418  30.647  54.197  0.00  0.00     0.000 C 
ENDBRANCH  21  22
ENDBRANCH   9  21
TORSDOF 4
ENDMDL
MODEL 2
REMARK VINA RESULT:      -9.2      0.817      3.325
REMARK  4 active torsions:
REMARK  status: ('A' for Active; 'I' for Inactive)
REMARK    1  A    between atoms: C_11  and  N_2 
REMARK    2  A    between atoms: C_10  and  C_6 
REMARK    3  A    between atoms: C_16  and  C_9 
REMARK    4  A    between atoms: C_21  and  C_16 
ROOT
ATOM      1  C   UNL d   1      53.331  34.326  54.332  0.00  0.00     0.143 A 
ATOM      2  N   UNL d   1      53.651  33.015  54.272  0.00  0.00    -0.242 N 
ATOM      3  C   UNL d   1      53.155  33.606  53.960  0.00  0.00     0.172 A 
ATOM      4  C   UNL d   1      54.137  33.377  54.842  0.00  0.00     0.355 A 
ATOM      5  N   UNL d   1      53.937  34.181  54.875  0.00  0.00    -0.187 NA
ATOM      6  C   UNL d   1      52.925  35.005  54.132  0.00  0.00     0.163 A 
ATOM      7  N   UNL d   1      52.562  33.573  53.379  0.00  0.00    -0.208 NA
ATOM      8  N   UNL d   1      52.336  34.986  53.558  0.00  0.00    -0.220 NA
ATOM      9  C   UNL d   1      52.154  34.270  53.181  0.00  0.00     0.164 A 
ATOM     10  O   UNL d   1      54.717  32.993  55.292  0.00  0.00    -0.244 OA
ENDROOT
BRANCH   2  11
ATOM     11  C   UNL d   1      53.659  32.225  54.058  0.00  0.00     0.070 A 
ATOM     12  C   UNL d   1      53.263  31.660  54.520  0.00  0.00     0.018 A 
ATOM     13  C   UNL d   1      53.265  30.868  54.313  0.00  0.00     0.002 A 
ATOM     14  C   UNL d   1      53.671  30.645  53.633  0.00  0.00     0.000 A 
ATOM     15  C   UNL d   1      54.066  31.194  53.169  0.00  0.00     0.002 A 
ATOM     16  C   UNL d   1      53.679  29.842  53.415  0.00  0.00     0.000 C 
ATOM     17  C   UNL d   1      54.058  31.985  53.385  0.00  0.00     0.018 A 
ENDBRANCH   2  11
BRANCH   6  18
ATOM     18  C   UNL d   1      53.102  35.723  54.503  0.00  0.00     0.316 C 
ATOM     19  O   UNL d   1      53.717  36.202  54.226  0.00  0.00    -0.262 OA
ATOM     20  N   UNL d   1      52.651  35.962  55.164  0.00  0.00    -0.101 N 
ENDBRANCH   6  18
BRANCH   9  21
ATOM     21  C   UNL d   1      51.563  34.248  52.606  0.00  0.00     0.039 C 
BRANCH  21  22
ATOM     22  C   UNL d   1      50.781  34.066  52.815  0.00  0.00     0.003 C 
ATOM     23  C   UNL d   1      50.228  34.675  52.874  0.00  0.00     0.000 C 
ATOM     24  C   UNL d   1      50.572  33.287  52.958  0.00  0.00     0.000 C 
ENDBRANCH  21  22
ENDBRANCH   9  21
TORSDOF 4
ENDMDL
