MODEL 1
REMARK VINA RESULT:      69.8      0.000      0.000
REMARK  5 active torsions:
REMARK  status: ('A' for Active; 'I' for Inactive)
REMARK    1  A    between atoms: C_4  and  N_1 
REMARK    2  A    between atoms: C_8  and  C_3 
REMARK    3  A    between atoms: N_7  and  C_4 
REMARK    4  A    between atoms: C_15  and  N_7 
REMARK    5  A    between atoms: C_17  and  C_15 
ROOT
ATOM      1  N   UNL d   1     -51.256  25.482  33.927  0.00  0.00    -0.281 N 
ATOM      2  C   UNL d   1     -50.612  24.263  33.594  0.00  0.00     0.080 A 
ATOM      3  C   UNL d   1     -51.299  24.683  33.746  0.00  0.00     0.084 A 
ATOM      4  N   UNL d   1     -49.883  24.640  33.623  0.00  0.00    -0.301 N 
ATOM      5  C   UNL d   1     -50.521  25.862  33.956  0.00  0.00     0.101 A 
ATOM      6  C   UNL d   1     -50.483  23.470  33.401  0.00  0.00     0.021 A 
ATOM      7  C   UNL d   1     -49.297  24.086  33.448  0.00  0.00     0.080 A 
ATOM      8  C   UNL d   1     -49.837  25.434  33.802  0.00  0.00     0.100 A 
ATOM      9  C   UNL d   1     -49.664  23.360  33.310  0.00  0.00     0.021 A 
ENDROOT
BRANCH   1  10
ATOM     10  C   UNL d   1     -51.944  25.915  34.082  0.00  0.00     0.184 C 
ATOM     11  S   UNL d   1     -52.266  26.380  33.490  0.00  0.00    -0.040 SA
BRANCH  10  12
ATOM     12  N   UNL d   1     -52.300  25.878  34.819  0.00  0.00    -0.330 N 
ATOM     13  H   UNL d   1     -52.896  25.325  34.963  0.00  0.00     0.168 HD
BRANCH  12  14
ATOM     14  C   UNL d   1     -52.066  26.391  35.415  0.00  0.00     0.074 C 
BRANCH  14  15
ATOM     15  C   UNL d   1     -52.206  26.202  36.200  0.00  0.00     0.017 A 
ATOM     16  C   UNL d   1     -52.737  25.596  36.395  0.00  0.00     0.002 A 
ATOM     17  C   UNL d   1     -52.874  25.411  37.187  0.00  0.00     0.000 A 
ATOM     18  C   UNL d   1     -52.486  25.823  37.791  0.00  0.00     0.000 A 
ATOM     19  C   UNL d   1     -51.955  26.429  37.589  0.00  0.00     0.000 A 
ATOM     20  C   UNL d   1     -51.816  26.617  36.796  0.00  0.00     0.002 A 
ENDBRANCH  14  15
ENDBRANCH  12  14
ENDBRANCH  10  12
ENDBRANCH   1  10
BRANCH   3  21
ATOM     21  C   UNL d   1     -52.032  24.306  33.718  0.00  0.00     0.037 A 
ATOM     22  C   UNL d   1     -52.669  24.667  33.337  0.00  0.00     0.100 A 
ATOM     23  N   UNL d   1     -53.396  24.286  33.313  0.00  0.00    -0.242 NA
ATOM     24  C   UNL d   1     -53.499  23.560  33.659  0.00  0.00     0.099 A 
ATOM     25  C   UNL d   1     -52.864  23.192  34.043  0.00  0.00     0.021 A 
ATOM     26  C   UNL d   1     -52.130  23.569  34.071  0.00  0.00     0.005 A 
ENDBRANCH   3  21
TORSDOF 5
ENDMDL
MODEL 2
REMARK VINA RESULT:      71.2      2.052      3.290
REMARK  5 active torsions:
REMARK  status: ('A' for Active; 'I' for Inactive)
REMARK    1  A    between atoms: C_4  and  N_1 
REMARK    2  A    between atoms: C_8  and  C_3 
REMARK    3  A    between atoms: N_7  and  C_4 
REMARK    4  A    between atoms: C_15  and  N_7 
REMARK    5  A    between atoms: C_17  and  C_15 
ROOT
ATOM      1  N   UNL d   1     -51.900  26.078  33.373  0.00  0.00    -0.281 N 
ATOM      2  C   UNL d   1     -53.162  25.432  33.367  0.00  0.00     0.080 A 
ATOM      3  C   UNL d   1     -52.344  25.389  33.389  0.00  0.00     0.084 A 
ATOM      4  N   UNL d   1     -53.535  26.163  33.329  0.00  0.00    -0.301 N 
ATOM      5  C   UNL d   1     -52.276  26.814  33.335  0.00  0.00     0.101 A 
ATOM      6  C   UNL d   1     -53.745  24.848  33.376  0.00  0.00     0.021 A 
ATOM      7  C   UNL d   1     -54.351  26.037  33.314  0.00  0.00     0.080 A 
ATOM      8  C   UNL d   1     -53.097  26.850  33.313  0.00  0.00     0.100 A 
ATOM      9  C   UNL d   1     -54.485  25.224  33.343  0.00  0.00     0.021 A 
ENDROOT
BRANCH   1  10
ATOM     10  C   UNL d   1     -51.072  26.044  33.394  0.00  0.00     0.184 C 
ATOM     11  S   UNL d   1     -50.702  25.314  33.386  0.00  0.00    -0.040 SA
BRANCH  10  12
ATOM     12  N   UNL d   1     -50.629  26.732  33.424  0.00  0.00    -0.330 N 
ATOM     13  H   UNL d   1     -50.285  27.031  32.735  0.00  0.00     0.168 HD
BRANCH  12  14
ATOM     14  C   UNL d   1     -50.528  27.126  34.137  0.00  0.00     0.074 C 
BRANCH  14  15
ATOM     15  C   UNL d   1     -49.797  27.441  34.331  0.00  0.00     0.017 A 
ATOM     16  C   UNL d   1     -49.119  27.219  33.909  0.00  0.00     0.002 A 
ATOM     17  C   UNL d   1     -48.387  27.540  34.111  0.00  0.00     0.000 A 
ATOM     18  C   UNL d   1     -48.321  28.085  34.731  0.00  0.00     0.000 A 
ATOM     19  C   UNL d   1     -49.003  28.304  35.149  0.00  0.00     0.000 A 
ATOM     20  C   UNL d   1     -49.738  27.983  34.950  0.00  0.00     0.002 A 
ENDBRANCH  14  15
ENDBRANCH  12  14
ENDBRANCH  10  12
ENDBRANCH   1  10
BRANCH   3  21
ATOM     21  C   UNL d   1     -51.967  24.656  33.426  0.00  0.00     0.037 A 
ATOM     22  C   UNL d   1     -51.153  24.616  33.553  0.00  0.00     0.100 A 
ATOM     23  N   UNL d   1     -50.785  23.882  33.589  0.00  0.00    -0.242 NA
ATOM     24  C   UNL d   1     -51.209  23.197  33.503  0.00  0.00     0.099 A 
ATOM     25  C   UNL d   1     -52.026  23.230  33.376  0.00  0.00     0.021 A 
ATOM     26  C   UNL d   1     -52.404  23.964  33.338  0.00  0.00     0.005 A 
ENDBRANCH   3  21
TORSDOF 5
ENDMDL
MODEL 3
REMARK VINA RESULT:      71.3      1.894      3.307
REMARK  5 active torsions:
REMARK  status: ('A' for Active; 'I' for Inactive)
REMARK    1  A    between atoms: C_4  and  N_1 
REMARK    2  A    between atoms: C_8  and  C_3 
REMARK    3  A    between atoms: N_7  and  C_4 
REMARK    4  A    between atoms: C_15  and  N_7 
REMARK    5  A    between atoms: C_17  and  C_15 
ROOT
ATOM      1  N   UNL d   1     -51.161  25.250  33.484  0.00  0.00    -0.281 N 
ATOM      2  C   UNL d   1     -49.782  25.569  33.561  0.00  0.00     0.080 A 
ATOM      3  C   UNL d   1     -50.566  25.803  33.595  0.00  0.00     0.084 A 
ATOM      4  N   UNL d   1     -49.591  24.783  33.416  0.00  0.00    -0.301 N 
ATOM      5  C   UNL d   1     -50.969  24.457  33.339  0.00  0.00     0.101 A 
ATOM      6  C   UNL d   1     -49.077  25.991  33.648  0.00  0.00     0.021 A 
ATOM      7  C   UNL d   1     -48.769  24.712  33.413  0.00  0.00     0.080 A 
ATOM      8  C   UNL d   1     -50.180  24.231  33.306  0.00  0.00     0.100 A 
ATOM      9  C   UNL d   1     -48.447  25.457  33.556  0.00  0.00     0.021 A 
ENDROOT
BRANCH   1  10
ATOM     10  C   UNL d   1     -51.957  25.477  33.517  0.00  0.00     0.184 C 
ATOM     11  S   UNL d   1     -52.143  26.268  33.615  0.00  0.00    -0.040 SA
BRANCH  10  12
ATOM     12  N   UNL d   1     -52.551  24.916  33.451  0.00  0.00    -0.330 N 
ATOM     13  H   UNL d   1     -52.361  24.132  33.277  0.00  0.00     0.168 HD
BRANCH  12  14
ATOM     14  C   UNL d   1     -53.334  25.134  33.560  0.00  0.00     0.074 C 
BRANCH  14  15
ATOM     15  C   UNL d   1     -53.930  24.575  33.488  0.00  0.00     0.017 A 
ATOM     16  C   UNL d   1     -53.751  23.767  33.522  0.00  0.00     0.002 A 
ATOM     17  C   UNL d   1     -54.355  23.210  33.448  0.00  0.00     0.000 A 
ATOM     18  C   UNL d   1     -55.140  23.450  33.341  0.00  0.00     0.000 A 
ATOM     19  C   UNL d   1     -55.313  24.261  33.308  0.00  0.00     0.000 A 
ATOM     20  C   UNL d   1     -54.709  24.822  33.381  0.00  0.00     0.002 A 
ENDBRANCH  14  15
ENDBRANCH  12  14
ENDBRANCH  10  12
ENDBRANCH   1  10
BRANCH   3  21
ATOM     21  C   UNL d   1     -50.759  26.592  33.739  0.00  0.00     0.037 A 
ATOM     22  C   UNL d   1     -50.323  27.031  34.285  0.00  0.00     0.100 A 
ATOM     23  N   UNL d   1     -50.522  27.817  34.423  0.00  0.00    -0.242 NA
ATOM     24  C   UNL d   1     -51.140  28.167  34.033  0.00  0.00     0.099 A 
ATOM     25  C   UNL d   1     -51.582  27.731  33.484  0.00  0.00     0.021 A 
ATOM     26  C   UNL d   1     -51.388  26.941  33.339  0.00  0.00     0.005 A 
ENDBRANCH   3  21
TORSDOF 5
ENDMDL
