MODEL 1
REMARK VINA RESULT:      -8.3      0.000      0.000
REMARK  4 active torsions:
REMARK  status: ('A' for Active; 'I' for Inactive)
REMARK    1  A    between atoms: S_3  and  N_1 
REMARK    2  A    between atoms: C_7  and  C_4 
REMARK    3  A    between atoms: C_11  and  C_5 
REMARK    4  A    between atoms: O_21  and  C_18 
ROOT
ATOM      1  N   UNL d   1     -49.332  13.200  22.354  0.00  0.00    -0.155 N 
ATOM      2  N   UNL d   1     -48.730  12.643  22.363  0.00  0.00    -0.156 NA
ATOM      3  C   UNL d   1     -49.155  13.785  22.907  0.00  0.00     0.102 A 
ATOM      4  C   UNL d   1     -48.162  12.862  22.919  0.00  0.00     0.104 A 
ATOM      5  C   UNL d   1     -48.443  13.587  23.256  0.00  0.00     0.041 A 
ENDROOT
BRANCH   4   6
ATOM      6  C   UNL d   1     -47.489  12.477  23.103  0.00  0.00     0.020 A 
ATOM      7  C   UNL d   1     -46.733  12.816  22.884  0.00  0.00     0.004 A 
ATOM      8  C   UNL d   1     -46.043  12.438  23.064  0.00  0.00     0.024 A 
ATOM      9  C   UNL d   1     -46.032  11.702  23.468  0.00  0.00     0.094 A 
ATOM     10  C   UNL d   1     -46.765  11.373  23.680  0.00  0.00     0.024 A 
ATOM     11  C   UNL d   1     -47.486  11.737  23.510  0.00  0.00     0.004 A 
BRANCH   9  12
ATOM     12  O   UNL d   1     -45.306  11.313  23.652  0.00  0.00    -0.328 OA
ATOM     13  C   UNL d   1     -45.299  10.488  23.698  0.00  0.00     0.181 C 
ENDBRANCH   9  12
ENDBRANCH   4   6
BRANCH   1  14
ATOM     14  S   UNL d   1     -50.015  13.162  21.853  0.00  0.00     0.266 S 
ATOM     15  O   UNL d   1     -49.663  13.662  21.309  0.00  0.00    -0.203 OA
ATOM     16  O   UNL d   1     -50.683  13.117  21.377  0.00  0.00    -0.203 OA
ATOM     17  C   UNL d   1     -50.374  12.639  22.431  0.00  0.00     0.165 C 
ENDBRANCH   1  14
BRANCH   3  18
ATOM     18  C   UNL d   1     -49.624  14.455  23.074  0.00  0.00     0.048 A 
ATOM     19  S   UNL d   1     -49.544  15.190  22.760  0.00  0.00    -0.085 SA
ATOM     20  C   UNL d   1     -50.118  15.690  23.073  0.00  0.00     0.035 A 
ATOM     21  C   UNL d   1     -50.558  15.259  23.586  0.00  0.00     0.007 A 
ATOM     22  C   UNL d   1     -50.260  14.499  23.592  0.00  0.00     0.009 A 
ENDBRANCH   3  18
TORSDOF 4
ENDMDL
MODEL 2
REMARK VINA RESULT:      -7.6      1.316      1.770
REMARK  4 active torsions:
REMARK  status: ('A' for Active; 'I' for Inactive)
REMARK    1  A    between atoms: S_3  and  N_1 
REMARK    2  A    between atoms: C_7  and  C_4 
REMARK    3  A    between atoms: C_11  and  C_5 
REMARK    4  A    between atoms: O_21  and  C_18 
ROOT
ATOM      1  N   UNL d   1     -48.504  13.941  22.892  0.00  0.00    -0.155 N 
ATOM      2  N   UNL d   1     -47.715  13.752  23.006  0.00  0.00    -0.156 NA
ATOM      3  C   UNL d   1     -48.929  13.241  22.802  0.00  0.00     0.102 A 
ATOM      4  C   UNL d   1     -47.623  12.932  22.991  0.00  0.00     0.104 A 
ATOM      5  C   UNL d   1     -48.400  12.621  22.861  0.00  0.00     0.041 A 
ENDROOT
BRANCH   4   6
ATOM      6  C   UNL d   1     -46.948  12.518  23.080  0.00  0.00     0.020 A 
ATOM      7  C   UNL d   1     -46.945  11.813  23.566  0.00  0.00     0.004 A 
ATOM      8  C   UNL d   1     -46.269  11.382  23.666  0.00  0.00     0.024 A 
ATOM      9  C   UNL d   1     -45.545  11.602  23.301  0.00  0.00     0.094 A 
ATOM     10  C   UNL d   1     -45.548  12.286  22.830  0.00  0.00     0.024 A 
ATOM     11  C   UNL d   1     -46.223  12.745  22.710  0.00  0.00     0.004 A 
BRANCH   9  12
ATOM     12  O   UNL d   1     -44.843  11.146  23.411  0.00  0.00    -0.328 OA
ATOM     13  C   UNL d   1     -44.914  10.368  23.679  0.00  0.00     0.181 C 
ENDBRANCH   9  12
ENDBRANCH   4   6
BRANCH   1  14
ATOM     14  S   UNL d   1     -48.812  14.730  22.873  0.00  0.00     0.266 S 
ATOM     15  O   UNL d   1     -49.044  14.676  23.656  0.00  0.00    -0.203 OA
ATOM     16  O   UNL d   1     -49.107  15.497  22.840  0.00  0.00    -0.203 OA
ATOM     17  C   UNL d   1     -48.565  14.775  22.053  0.00  0.00     0.165 C 
ENDBRANCH   1  14
BRANCH   3  18
ATOM     18  C   UNL d   1     -49.752  13.184  22.674  0.00  0.00     0.048 A 
ATOM     19  S   UNL d   1     -50.143  13.304  21.982  0.00  0.00    -0.085 SA
ATOM     20  C   UNL d   1     -50.950  13.192  22.096  0.00  0.00     0.035 A 
ATOM     21  C   UNL d   1     -51.060  13.001  22.866  0.00  0.00     0.007 A 
ATOM     22  C   UNL d   1     -50.329  12.994  23.228  0.00  0.00     0.009 A 
ENDBRANCH   3  18
TORSDOF 4
ENDMDL
MODEL 3
REMARK VINA RESULT:      -6.4      9.228     10.296
REMARK  4 active torsions:
REMARK  status: ('A' for Active; 'I' for Inactive)
REMARK    1  A    between atoms: S_3  and  N_1 
REMARK    2  A    between atoms: C_7  and  C_4 
REMARK    3  A    between atoms: C_11  and  C_5 
REMARK    4  A    between atoms: O_21  and  C_18 
ROOT
ATOM      1  N   UNL d   1     -40.150  14.805  18.253  0.00  0.00    -0.155 N 
ATOM      2  N   UNL d   1     -40.313  15.035  19.023  0.00  0.00    -0.156 NA
ATOM      3  C   UNL d   1     -39.371  14.539  18.220  0.00  0.00     0.102 A 
ATOM      4  C   UNL d   1     -39.644  14.920  19.492  0.00  0.00     0.104 A 
ATOM      5  C   UNL d   1     -39.055  14.606  18.971  0.00  0.00     0.041 A 
ENDROOT
BRANCH   4   6
ATOM      6  C   UNL d   1     -39.565  15.071  20.270  0.00  0.00     0.020 A 
ATOM      7  C   UNL d   1     -39.781  14.471  20.843  0.00  0.00     0.004 A 
ATOM      8  C   UNL d   1     -39.707  14.609  21.634  0.00  0.00     0.024 A 
ATOM      9  C   UNL d   1     -39.418  15.340  21.933  0.00  0.00     0.094 A 
ATOM     10  C   UNL d   1     -39.209  15.922  21.377  0.00  0.00     0.024 A 
ATOM     11  C   UNL d   1     -39.274  15.809  20.563  0.00  0.00     0.004 A 
BRANCH   9  12
ATOM     12  O   UNL d   1     -39.343  15.476  22.762  0.00  0.00    -0.328 OA
ATOM     13  C   UNL d   1     -38.664  15.207  23.148  0.00  0.00     0.181 C 
ENDBRANCH   9  12
ENDBRANCH   4   6
BRANCH   1  14
ATOM     14  S   UNL d   1     -40.703  14.842  17.613  0.00  0.00     0.266 S 
ATOM     15  O   UNL d   1     -40.910  14.058  17.724  0.00  0.00    -0.203 OA
ATOM     16  O   UNL d   1     -41.237  14.893  16.989  0.00  0.00    -0.203 OA
ATOM     17  C   UNL d   1     -40.479  15.663  17.505  0.00  0.00     0.165 C 
ENDBRANCH   1  14
BRANCH   3  18
ATOM     18  C   UNL d   1     -38.982  14.255  17.539  0.00  0.00     0.048 A 
ATOM     19  S   UNL d   1     -38.585  14.691  16.992  0.00  0.00    -0.085 SA
ATOM     20  C   UNL d   1     -38.284  14.196  16.408  0.00  0.00     0.035 A 
ATOM     21  C   UNL d   1     -38.497  13.446  16.595  0.00  0.00     0.007 A 
ATOM     22  C   UNL d   1     -38.926  13.474  17.288  0.00  0.00     0.009 A 
ENDBRANCH   3  18
TORSDOF 4
ENDMDL
MODEL 4
REMARK VINA RESULT:      -5.8      1.821      4.455
REMARK  4 active torsions:
REMARK  status: ('A' for Active; 'I' for Inactive)
REMARK    1  A    between atoms: S_3  and  N_1 
REMARK    2  A    between atoms: C_7  and  C_4 
REMARK    3  A    between atoms: C_11  and  C_5 
REMARK    4  A    between atoms: O_21  and  C_18 
ROOT
ATOM      1  N   UNL d   1     -47.092  12.818  23.059  0.00  0.00    -0.155 N 
ATOM      2  N   UNL d   1     -47.839  13.101  23.247  0.00  0.00    -0.156 NA
ATOM      3  C   UNL d   1     -46.752  13.328  22.509  0.00  0.00     0.102 A 
ATOM      4  C   UNL d   1     -47.986  13.792  22.823  0.00  0.00     0.104 A 
ATOM      5  C   UNL d   1     -47.290  13.925  22.360  0.00  0.00     0.041 A 
ENDROOT
BRANCH   4   6
ATOM      6  C   UNL d   1     -48.643  14.242  22.842  0.00  0.00     0.020 A 
ATOM      7  C   UNL d   1     -49.332  14.006  22.391  0.00  0.00     0.004 A 
ATOM      8  C   UNL d   1     -50.006  14.451  22.400  0.00  0.00     0.024 A 
ATOM      9  C   UNL d   1     -50.063  15.160  22.847  0.00  0.00     0.094 A 
ATOM     10  C   UNL d   1     -49.394  15.390  23.285  0.00  0.00     0.024 A 
ATOM     11  C   UNL d   1     -48.694  14.955  23.294  0.00  0.00     0.004 A 
BRANCH   9  12
ATOM     12  O   UNL d   1     -50.770  15.620  22.851  0.00  0.00    -0.328 OA
ATOM     13  C   UNL d   1     -51.063  15.890  23.575  0.00  0.00     0.181 C 
ENDBRANCH   9  12
ENDBRANCH   4   6
BRANCH   1  14
ATOM     14  S   UNL d   1     -46.747  12.117  23.386  0.00  0.00     0.266 S 
ATOM     15  O   UNL d   1     -46.123  12.549  23.694  0.00  0.00    -0.203 OA
ATOM     16  O   UNL d   1     -46.422  11.429  23.698  0.00  0.00    -0.203 OA
ATOM     17  C   UNL d   1     -47.405  11.675  23.059  0.00  0.00     0.165 C 
ENDBRANCH   1  14
BRANCH   3  18
ATOM     18  C   UNL d   1     -45.994  13.244  22.171  0.00  0.00     0.048 A 
ATOM     19  S   UNL d   1     -45.791  12.776  21.550  0.00  0.00    -0.085 SA
ATOM     20  C   UNL d   1     -44.987  12.855  21.393  0.00  0.00     0.035 A 
ATOM     21  C   UNL d   1     -44.689  13.378  21.922  0.00  0.00     0.007 A 
ATOM     22  C   UNL d   1     -45.301  13.621  22.404  0.00  0.00     0.009 A 
ENDBRANCH   3  18
TORSDOF 4
ENDMDL
MODEL 5
REMARK VINA RESULT:      -5.6      8.618     10.095
REMARK  4 active torsions:
REMARK  status: ('A' for Active; 'I' for Inactive)
REMARK    1  A    between atoms: S_3  and  N_1 
REMARK    2  A    between atoms: C_7  and  C_4 
REMARK    3  A    between atoms: C_11  and  C_5 
REMARK    4  A    between atoms: O_21  and  C_18 
ROOT
ATOM      1  N   UNL d   1     -40.362  14.880  20.127  0.00  0.00    -0.155 N 
ATOM      2  N   UNL d   1     -40.385  14.819  19.310  0.00  0.00    -0.156 NA
ATOM      3  C   UNL d   1     -39.602  14.689  20.382  0.00  0.00     0.102 A 
ATOM      4  C   UNL d   1     -39.643  14.591  19.031  0.00  0.00     0.104 A 
ATOM      5  C   UNL d   1     -39.157  14.512  19.720  0.00  0.00     0.041 A 
ENDROOT
BRANCH   4   6
ATOM      6  C   UNL d   1     -39.426  14.469  18.274  0.00  0.00     0.020 A 
ATOM      7  C   UNL d   1     -39.188  13.685  18.022  0.00  0.00     0.004 A 
ATOM      8  C   UNL d   1     -38.965  13.545  17.259  0.00  0.00     0.024 A 
ATOM      9  C   UNL d   1     -38.956  14.154  16.681  0.00  0.00     0.094 A 
ATOM     10  C   UNL d   1     -39.187  14.914  16.925  0.00  0.00     0.024 A 
ATOM     11  C   UNL d   1     -39.419  15.087  17.697  0.00  0.00     0.004 A 
BRANCH   9  12
ATOM     12  O   UNL d   1     -38.722  14.000  15.885  0.00  0.00    -0.328 OA
ATOM     13  C   UNL d   1     -38.008  13.607  15.751  0.00  0.00     0.181 C 
ENDBRANCH   9  12
ENDBRANCH   4   6
BRANCH   1  14
ATOM     14  S   UNL d   1     -41.021  15.102  20.611  0.00  0.00     0.266 S 
ATOM     15  O   UNL d   1     -41.203  14.317  20.754  0.00  0.00    -0.203 OA
ATOM     16  O   UNL d   1     -41.657  15.333  21.079  0.00  0.00    -0.203 OA
ATOM     17  C   UNL d   1     -40.821  15.922  20.455  0.00  0.00     0.165 C 
ENDBRANCH   1  14
BRANCH   3  18
ATOM     18  C   UNL d   1     -39.342  14.682  21.175  0.00  0.00     0.048 A 
ATOM     19  S   UNL d   1     -39.012  15.292  21.581  0.00  0.00    -0.085 SA
ATOM     20  C   UNL d   1     -38.835  15.052  22.348  0.00  0.00     0.035 A 
ATOM     21  C   UNL d   1     -39.058  14.286  22.417  0.00  0.00     0.007 A 
ATOM     22  C   UNL d   1     -39.371  14.051  21.701  0.00  0.00     0.009 A 
ENDBRANCH   3  18
TORSDOF 4
ENDMDL
MODEL 6
REMARK VINA RESULT:      -5.3      9.642     10.276
REMARK  4 active torsions:
REMARK  status: ('A' for Active; 'I' for Inactive)
REMARK    1  A    between atoms: S_3  and  N_1 
REMARK    2  A    between atoms: C_7  and  C_4 
REMARK    3  A    between atoms: C_11  and  C_5 
REMARK    4  A    between atoms: O_21  and  C_18 
ROOT
ATOM      1  N   UNL d   1     -38.875  14.111  18.405  0.00  0.00    -0.155 N 
ATOM      2  N   UNL d   1     -38.578  13.818  19.110  0.00  0.00    -0.156 NA
ATOM      3  C   UNL d   1     -39.533  14.578  18.572  0.00  0.00     0.102 A 
ATOM      4  C   UNL d   1     -39.039  14.091  19.737  0.00  0.00     0.104 A 
ATOM      5  C   UNL d   1     -39.640  14.571  19.382  0.00  0.00     0.041 A 
ENDROOT
BRANCH   4   6
ATOM      6  C   UNL d   1     -38.943  13.938  20.513  0.00  0.00     0.020 A 
ATOM      7  C   UNL d   1     -39.584  14.099  21.059  0.00  0.00     0.004 A 
ATOM      8  C   UNL d   1     -39.502  13.950  21.848  0.00  0.00     0.024 A 
ATOM      9  C   UNL d   1     -38.793  13.633  22.169  0.00  0.00     0.094 A 
ATOM     10  C   UNL d   1     -38.172  13.477  21.639  0.00  0.00     0.024 A 
ATOM     11  C   UNL d   1     -38.227  13.620  20.828  0.00  0.00     0.004 A 
BRANCH   9  12
ATOM     12  O   UNL d   1     -38.715  13.479  22.995  0.00  0.00    -0.328 OA
ATOM     13  C   UNL d   1     -38.493  14.099  23.494  0.00  0.00     0.181 C 
ENDBRANCH   9  12
ENDBRANCH   4   6
BRANCH   1  14
ATOM     14  S   UNL d   1     -38.547  13.949  17.640  0.00  0.00     0.266 S 
ATOM     15  O   UNL d   1     -38.127  14.652  17.654  0.00  0.00    -0.203 OA
ATOM     16  O   UNL d   1     -38.235  13.780  16.898  0.00  0.00    -0.203 OA
ATOM     17  C   UNL d   1     -38.990  13.215  17.637  0.00  0.00     0.165 C 
ENDBRANCH   1  14
BRANCH   3  18
ATOM     18  C   UNL d   1     -39.999  14.981  18.010  0.00  0.00     0.048 A 
ATOM     19  S   UNL d   1     -39.908  15.740  17.761  0.00  0.00    -0.085 SA
ATOM     20  C   UNL d   1     -40.484  15.921  17.203  0.00  0.00     0.035 A 
ATOM     21  C   UNL d   1     -40.938  15.268  17.105  0.00  0.00     0.007 A 
ATOM     22  C   UNL d   1     -40.646  14.686  17.597  0.00  0.00     0.009 A 
ENDBRANCH   3  18
TORSDOF 4
ENDMDL
