MODEL 1
REMARK VINA RESULT:      -7.0      0.000      0.000
REMARK  4 active torsions:
REMARK  status: ('A' for Active; 'I' for Inactive)
REMARK    1  A    between atoms: S_2  and  C_1 
REMARK    2  A    between atoms: C_8  and  S_2 
REMARK    3  A    between atoms: N_7  and  C_4 
REMARK    4  A    between atoms: C_11  and  N_7 
ROOT
ATOM      1  C   UNL d   1     -47.621  12.809  23.157  0.00  0.00     0.187 A 
ATOM      2  N   UNL d   1     -48.130  13.422  23.086  0.00  0.00    -0.208 NA
ATOM      3  C   UNL d   1     -48.856  13.181  23.396  0.00  0.00     0.196 A 
ATOM      4  C   UNL d   1     -47.933  12.146  23.498  0.00  0.00     0.118 A 
ATOM      5  S   UNL d   1     -48.777  12.381  23.668  0.00  0.00    -0.035 SA
ATOM      6 CL   UNL d   1     -47.671  11.418  23.687  0.00  0.00    -0.073 Cl
ENDROOT
BRANCH   1   7
ATOM      7  S   UNL d   1     -46.815  12.751  22.933  0.00  0.00     0.228 S 
ATOM      8  O   UNL d   1     -46.624  13.220  23.688  0.00  0.00    -0.216 OA
ATOM      9  O   UNL d   1     -47.089  12.328  22.271  0.00  0.00    -0.216 OA
BRANCH   7  10
ATOM     10  C   UNL d   1     -46.085  12.671  22.687  0.00  0.00     0.089 A 
ATOM     11  C   UNL d   1     -45.567  12.093  22.877  0.00  0.00     0.011 A 
ATOM     12  C   UNL d   1     -44.784  12.101  22.547  0.00  0.00     0.001 A 
ATOM     13  C   UNL d   1     -44.461  12.629  22.045  0.00  0.00     0.000 A 
ATOM     14  C   UNL d   1     -44.981  13.304  21.788  0.00  0.00     0.001 A 
ATOM     15  C   UNL d   1     -43.621  12.627  21.699  0.00  0.00     0.000 C 
ATOM     16  C   UNL d   1     -45.764  13.296  22.118  0.00  0.00     0.011 A 
ENDBRANCH   7  10
ENDBRANCH   1   7
BRANCH   3  17
ATOM     17  N   UNL d   1     -49.681  13.579  23.500  0.00  0.00    -0.221 NA
BRANCH  17  18
ATOM     18  C   UNL d   1     -50.173  13.844  22.817  0.00  0.00     0.084 A 
ATOM     19  C   UNL d   1     -50.616  14.477  23.010  0.00  0.00     0.018 A 
ATOM     20  C   UNL d   1     -50.664  14.869  23.698  0.00  0.00     0.002 C 
ATOM     21  C   UNL d   1     -51.063  14.720  22.394  0.00  0.00     0.002 A 
ATOM     22  C   UNL d   1     -51.027  14.287  21.597  0.00  0.00     0.000 A 
ATOM     23  C   UNL d   1     -50.578  13.675  21.459  0.00  0.00     0.002 A 
ATOM     24  C   UNL d   1     -50.120  13.472  22.186  0.00  0.00     0.019 A 
ENDBRANCH  17  18
ENDBRANCH   3  17
TORSDOF 4
ENDMDL
MODEL 2
REMARK VINA RESULT:      -6.4      1.069      4.815
REMARK  4 active torsions:
REMARK  status: ('A' for Active; 'I' for Inactive)
REMARK    1  A    between atoms: S_2  and  C_1 
REMARK    2  A    between atoms: C_8  and  S_2 
REMARK    3  A    between atoms: N_7  and  C_4 
REMARK    4  A    between atoms: C_11  and  N_7 
ROOT
ATOM      1  C   UNL d   1     -47.473  12.470  22.998  0.00  0.00     0.187 A 
ATOM      2  N   UNL d   1     -46.723  12.706  22.855  0.00  0.00    -0.208 NA
ATOM      3  C   UNL d   1     -46.217  12.152  23.199  0.00  0.00     0.196 A 
ATOM      4  C   UNL d   1     -47.540  11.785  23.421  0.00  0.00     0.118 A 
ATOM      5  S   UNL d   1     -46.692  11.552  23.568  0.00  0.00    -0.035 SA
ATOM      6 CL   UNL d   1     -48.136  11.335  23.698  0.00  0.00    -0.073 Cl
ENDROOT
BRANCH   1   7
ATOM      7  S   UNL d   1     -48.201  12.826  22.776  0.00  0.00     0.228 S 
ATOM      8  O   UNL d   1     -48.320  12.115  22.222  0.00  0.00    -0.216 OA
ATOM      9  O   UNL d   1     -48.001  13.432  23.310  0.00  0.00    -0.216 OA
BRANCH   7  10
ATOM     10  C   UNL d   1     -48.861  13.190  22.602  0.00  0.00     0.089 A 
ATOM     11  C   UNL d   1     -49.400  13.489  23.110  0.00  0.00     0.011 A 
ATOM     12  C   UNL d   1     -50.097  13.873  22.811  0.00  0.00     0.001 A 
ATOM     13  C   UNL d   1     -50.313  13.991  22.054  0.00  0.00     0.000 A 
ATOM     14  C   UNL d   1     -49.759  13.683  21.428  0.00  0.00     0.001 A 
ATOM     15  C   UNL d   1     -51.062  14.403  21.746  0.00  0.00     0.000 C 
ATOM     16  C   UNL d   1     -49.063  13.299  21.728  0.00  0.00     0.011 A 
ENDBRANCH   7  10
ENDBRANCH   1   7
BRANCH   3  17
ATOM     17  N   UNL d   1     -45.302  12.059  23.259  0.00  0.00    -0.221 NA
BRANCH  17  18
ATOM     18  C   UNL d   1     -44.751  12.328  22.624  0.00  0.00     0.084 A 
ATOM     19  C   UNL d   1     -44.114  11.853  22.575  0.00  0.00     0.018 A 
ATOM     20  C   UNL d   1     -43.930  11.210  23.003  0.00  0.00     0.002 C 
ATOM     21  C   UNL d   1     -43.613  12.093  22.001  0.00  0.00     0.002 A 
ATOM     22  C   UNL d   1     -43.802  12.825  21.499  0.00  0.00     0.000 A 
ATOM     23  C   UNL d   1     -44.437  13.254  21.585  0.00  0.00     0.002 A 
ATOM     24  C   UNL d   1     -44.934  12.924  22.236  0.00  0.00     0.019 A 
ENDBRANCH  17  18
ENDBRANCH   3  17
TORSDOF 4
ENDMDL
MODEL 3
REMARK VINA RESULT:      -6.3      8.830     10.059
REMARK  4 active torsions:
REMARK  status: ('A' for Active; 'I' for Inactive)
REMARK    1  A    between atoms: S_2  and  C_1 
REMARK    2  A    between atoms: C_8  and  S_2 
REMARK    3  A    between atoms: N_7  and  C_4 
REMARK    4  A    between atoms: C_11  and  N_7 
ROOT
ATOM      1  C   UNL d   1     -39.728  15.203  19.684  0.00  0.00     0.187 A 
ATOM      2  N   UNL d   1     -39.299  15.109  19.016  0.00  0.00    -0.208 NA
ATOM      3  C   UNL d   1     -39.771  15.343  18.381  0.00  0.00     0.196 A 
ATOM      4  C   UNL d   1     -40.475  15.489  19.571  0.00  0.00     0.118 A 
ATOM      5  S   UNL d   1     -40.523  15.591  18.686  0.00  0.00    -0.035 SA
ATOM      6 CL   UNL d   1     -41.098  15.674  20.033  0.00  0.00    -0.073 Cl
ENDROOT
BRANCH   1   7
ATOM      7  S   UNL d   1     -39.521  15.050  20.483  0.00  0.00     0.228 S 
ATOM      8  O   UNL d   1     -40.094  14.346  20.444  0.00  0.00    -0.216 OA
ATOM      9  O   UNL d   1     -39.022  15.714  20.421  0.00  0.00    -0.216 OA
BRANCH   7  10
ATOM     10  C   UNL d   1     -39.300  14.949  21.218  0.00  0.00     0.089 A 
ATOM     11  C   UNL d   1     -39.140  15.513  21.761  0.00  0.00     0.011 A 
ATOM     12  C   UNL d   1     -38.903  15.290  22.546  0.00  0.00     0.001 A 
ATOM     13  C   UNL d   1     -38.809  14.559  22.848  0.00  0.00     0.000 A 
ATOM     14  C   UNL d   1     -38.970  13.877  22.300  0.00  0.00     0.001 A 
ATOM     15  C   UNL d   1     -38.555  14.333  23.691  0.00  0.00     0.000 C 
ATOM     16  C   UNL d   1     -39.207  14.099  21.514  0.00  0.00     0.011 A 
ENDBRANCH   7  10
ENDBRANCH   1   7
BRANCH   3  17
ATOM     17  N   UNL d   1     -39.653  15.387  17.468  0.00  0.00    -0.221 NA
BRANCH  17  18
ATOM     18  C   UNL d   1     -39.173  14.798  17.019  0.00  0.00     0.084 A 
ATOM     19  C   UNL d   1     -38.758  15.148  16.437  0.00  0.00     0.018 A 
ATOM     20  C   UNL d   1     -38.729  15.913  16.228  0.00  0.00     0.002 C 
ATOM     21  C   UNL d   1     -38.322  14.619  16.028  0.00  0.00     0.002 A 
ATOM     22  C   UNL d   1     -38.339  13.738  16.248  0.00  0.00     0.000 A 
ATOM     23  C   UNL d   1     -38.759  13.446  16.825  0.00  0.00     0.002 A 
ATOM     24  C   UNL d   1     -39.209  14.093  17.223  0.00  0.00     0.019 A 
ENDBRANCH  17  18
ENDBRANCH   3  17
TORSDOF 4
ENDMDL
MODEL 4
REMARK VINA RESULT:      -6.0      1.451      2.031
REMARK  4 active torsions:
REMARK  status: ('A' for Active; 'I' for Inactive)
REMARK    1  A    between atoms: S_2  and  C_1 
REMARK    2  A    between atoms: C_8  and  S_2 
REMARK    3  A    between atoms: N_7  and  C_4 
REMARK    4  A    between atoms: C_11  and  N_7 
ROOT
ATOM      1  C   UNL d   1     -46.736  12.670  23.033  0.00  0.00     0.187 A 
ATOM      2  N   UNL d   1     -47.500  12.579  23.251  0.00  0.00    -0.208 NA
ATOM      3  C   UNL d   1     -47.906  13.262  23.030  0.00  0.00     0.196 A 
ATOM      4  C   UNL d   1     -46.568  13.373  22.672  0.00  0.00     0.118 A 
ATOM      5  S   UNL d   1     -47.355  13.791  22.660  0.00  0.00    -0.035 SA
ATOM      6 CL   UNL d   1     -45.921  13.722  22.363  0.00  0.00    -0.073 Cl
ENDROOT
BRANCH   1   7
ATOM      7  S   UNL d   1     -46.084  12.149  23.123  0.00  0.00     0.228 S 
ATOM      8  O   UNL d   1     -45.689  12.809  23.607  0.00  0.00    -0.216 OA
ATOM      9  O   UNL d   1     -46.526  11.610  22.669  0.00  0.00    -0.216 OA
BRANCH   7  10
ATOM     10  C   UNL d   1     -45.507  11.636  23.179  0.00  0.00     0.089 A 
ATOM     11  C   UNL d   1     -44.739  11.744  22.989  0.00  0.00     0.011 A 
ATOM     12  C   UNL d   1     -44.185  11.108  23.090  0.00  0.00     0.001 A 
ATOM     13  C   UNL d   1     -44.317  10.371  23.363  0.00  0.00     0.000 A 
ATOM     14  C   UNL d   1     -45.154  10.177  23.596  0.00  0.00     0.001 A 
ATOM     15  C   UNL d   1     -43.715   9.699  23.467  0.00  0.00     0.000 C 
ATOM     16  C   UNL d   1     -45.708  10.813  23.495  0.00  0.00     0.011 A 
ENDBRANCH   7  10
ENDBRANCH   1   7
BRANCH   3  17
ATOM     17  N   UNL d   1     -48.780  13.547  23.100  0.00  0.00    -0.221 NA
BRANCH  17  18
ATOM     18  C   UNL d   1     -49.450  12.998  23.271  0.00  0.00     0.084 A 
ATOM     19  C   UNL d   1     -50.086  13.395  23.538  0.00  0.00     0.018 A 
ATOM     20  C   UNL d   1     -50.181  14.173  23.660  0.00  0.00     0.002 C 
ATOM     21  C   UNL d   1     -50.695  12.902  23.694  0.00  0.00     0.002 A 
ATOM     22  C   UNL d   1     -50.611  12.008  23.562  0.00  0.00     0.000 A 
ATOM     23  C   UNL d   1     -49.969  11.669  23.300  0.00  0.00     0.002 A 
ATOM     24  C   UNL d   1     -49.348  12.280  23.153  0.00  0.00     0.019 A 
ENDBRANCH  17  18
ENDBRANCH   3  17
TORSDOF 4
ENDMDL
MODEL 5
REMARK VINA RESULT:      -5.8      9.186     10.072
REMARK  4 active torsions:
REMARK  status: ('A' for Active; 'I' for Inactive)
REMARK    1  A    between atoms: S_2  and  C_1 
REMARK    2  A    between atoms: C_8  and  S_2 
REMARK    3  A    between atoms: N_7  and  C_4 
REMARK    4  A    between atoms: C_11  and  N_7 
ROOT
ATOM      1  C   UNL d   1     -39.001  14.423  19.291  0.00  0.00     0.187 A 
ATOM      2  N   UNL d   1     -39.068  14.497  20.084  0.00  0.00    -0.208 NA
ATOM      3  C   UNL d   1     -38.436  14.092  20.427  0.00  0.00     0.196 A 
ATOM      4  C   UNL d   1     -38.364  13.993  19.042  0.00  0.00     0.118 A 
ATOM      5  S   UNL d   1     -37.965  13.758  19.804  0.00  0.00    -0.035 SA
ATOM      6 CL   UNL d   1     -38.060  13.766  18.341  0.00  0.00    -0.073 Cl
ENDROOT
BRANCH   1   7
ATOM      7  S   UNL d   1     -39.490  14.724  18.679  0.00  0.00     0.228 S 
ATOM      8  O   UNL d   1     -38.963  15.464  18.691  0.00  0.00    -0.216 OA
ATOM      9  O   UNL d   1     -39.912  14.010  18.744  0.00  0.00    -0.216 OA
BRANCH   7  10
ATOM     10  C   UNL d   1     -39.967  14.961  18.117  0.00  0.00     0.089 A 
ATOM     11  C   UNL d   1     -39.957  14.746  17.348  0.00  0.00     0.011 A 
ATOM     12  C   UNL d   1     -40.531  15.068  16.811  0.00  0.00     0.001 A 
ATOM     13  C   UNL d   1     -41.119  15.584  16.962  0.00  0.00     0.000 A 
ATOM     14  C   UNL d   1     -41.194  15.869  17.802  0.00  0.00     0.001 A 
ATOM     15  C   UNL d   1     -41.729  15.921  16.378  0.00  0.00     0.000 C 
ATOM     16  C   UNL d   1     -40.619  15.547  18.339  0.00  0.00     0.011 A 
ENDBRANCH   7  10
ENDBRANCH   1   7
BRANCH   3  17
ATOM     17  N   UNL d   1     -38.157  13.939  21.292  0.00  0.00    -0.221 NA
BRANCH  17  18
ATOM     18  C   UNL d   1     -38.406  14.445  21.971  0.00  0.00     0.084 A 
ATOM     19  C   UNL d   1     -38.596  14.002  22.605  0.00  0.00     0.018 A 
ATOM     20  C   UNL d   1     -38.589  13.214  22.691  0.00  0.00     0.002 C 
ATOM     21  C   UNL d   1     -38.822  14.457  23.222  0.00  0.00     0.002 A 
ATOM     22  C   UNL d   1     -38.839  15.361  23.148  0.00  0.00     0.000 A 
ATOM     23  C   UNL d   1     -38.644  15.745  22.508  0.00  0.00     0.002 A 
ATOM     24  C   UNL d   1     -38.408  15.173  21.878  0.00  0.00     0.019 A 
ENDBRANCH  17  18
ENDBRANCH   3  17
TORSDOF 4
ENDMDL
MODEL 6
REMARK VINA RESULT:      -5.5      8.623     11.259
REMARK  4 active torsions:
REMARK  status: ('A' for Active; 'I' for Inactive)
REMARK    1  A    between atoms: S_2  and  C_1 
REMARK    2  A    between atoms: C_8  and  S_2 
REMARK    3  A    between atoms: N_7  and  C_4 
REMARK    4  A    between atoms: C_11  and  N_7 
ROOT
ATOM      1  C   UNL d   1     -38.839  13.899  17.842  0.00  0.00     0.187 A 
ATOM      2  N   UNL d   1     -38.810  14.066  17.061  0.00  0.00    -0.208 NA
ATOM      3  C   UNL d   1     -38.262  13.555  16.716  0.00  0.00     0.196 A 
ATOM      4  C   UNL d   1     -38.348  13.303  18.080  0.00  0.00     0.118 A 
ATOM      5  S   UNL d   1     -37.945  13.055  17.324  0.00  0.00    -0.035 SA
ATOM      6 CL   UNL d   1     -38.174  12.940  18.768  0.00  0.00    -0.073 Cl
ENDROOT
BRANCH   1   7
ATOM      7  S   UNL d   1     -39.299  14.248  18.451  0.00  0.00     0.228 S 
ATOM      8  O   UNL d   1     -38.535  14.656  18.725  0.00  0.00    -0.216 OA
ATOM      9  O   UNL d   1     -39.942  13.831  18.124  0.00  0.00    -0.216 OA
BRANCH   7  10
ATOM     10  C   UNL d   1     -39.763  14.546  18.994  0.00  0.00     0.089 A 
ATOM     11  C   UNL d   1     -40.300  14.158  19.441  0.00  0.00     0.011 A 
ATOM     12  C   UNL d   1     -40.761  14.584  20.014  0.00  0.00     0.001 A 
ATOM     13  C   UNL d   1     -40.743  15.362  20.188  0.00  0.00     0.000 A 
ATOM     14  C   UNL d   1     -40.166  15.860  19.728  0.00  0.00     0.001 A 
ATOM     15  C   UNL d   1     -41.241  15.807  20.803  0.00  0.00     0.000 C 
ATOM     16  C   UNL d   1     -39.705  15.433  19.156  0.00  0.00     0.011 A 
ENDBRANCH   7  10
ENDBRANCH   1   7
BRANCH   3  17
ATOM     17  N   UNL d   1     -37.945  13.426  15.859  0.00  0.00    -0.221 NA
BRANCH  17  18
ATOM     18  C   UNL d   1     -37.943  14.064  15.250  0.00  0.00     0.084 A 
ATOM     19  C   UNL d   1     -37.942  13.759  14.514  0.00  0.00     0.018 A 
ATOM     20  C   UNL d   1     -37.942  13.001  14.283  0.00  0.00     0.002 C 
ATOM     21  C   UNL d   1     -37.940  14.334  13.959  0.00  0.00     0.002 A 
ATOM     22  C   UNL d   1     -37.940  15.209  14.199  0.00  0.00     0.000 A 
ATOM     23  C   UNL d   1     -37.941  15.455  14.930  0.00  0.00     0.002 A 
ATOM     24  C   UNL d   1     -37.943  14.762  15.478  0.00  0.00     0.019 A 
ENDBRANCH  17  18
ENDBRANCH   3  17
TORSDOF 4
ENDMDL
