MODEL 1
REMARK VINA RESULT:      79.2      0.000      0.000
REMARK  4 active torsions:
REMARK  status: ('A' for Active; 'I' for Inactive)
REMARK    1  A    between atoms: N_10  and  C_3 
REMARK    2  A    between atoms: C_12  and  C_5 
REMARK    3  A    between atoms: C_15  and  C_9 
REMARK    4  A    between atoms: C_19  and  N_11 
ROOT
ATOM      1  N   UNL d   1     -50.631  26.414  33.817  0.00  0.00    -0.196 N 
ATOM      2  C   UNL d   1     -51.027  25.696  33.692  0.00  0.00     0.167 A 
ATOM      3  C   UNL d   1     -49.816  26.422  33.818  0.00  0.00     0.152 A 
ATOM      4  N   UNL d   1     -51.878  27.082  33.935  0.00  0.00    -0.163 NA
ATOM      5  C   UNL d   1     -51.833  25.678  33.689  0.00  0.00     0.055 A 
ATOM      6  N   UNL d   1     -50.594  25.014  33.572  0.00  0.00    -0.227 NA
ATOM      7  C   UNL d   1     -49.378  25.713  33.693  0.00  0.00     0.057 A 
ATOM      8  C   UNL d   1     -52.275  26.365  33.810  0.00  0.00     0.104 A 
ATOM      9  C   UNL d   1     -49.784  25.030  33.574  0.00  0.00     0.086 A 
ATOM     10  C   UNL d   1     -53.077  26.345  33.807  0.00  0.00     0.023 C 
ENDROOT
BRANCH   3  11
ATOM     11  N   UNL d   1     -49.406  27.155  33.946  0.00  0.00    -0.286 N 
ATOM     12  C   UNL d   1     -48.983  27.344  34.659  0.00  0.00     0.101 A 
ATOM     13  C   UNL d   1     -48.593  28.088  34.735  0.00  0.00     0.100 A 
ATOM     14  N   UNL d   1     -48.618  28.654  34.100  0.00  0.00    -0.300 N 
ATOM     15  C   UNL d   1     -49.044  28.463  33.383  0.00  0.00     0.100 A 
ATOM     16  C   UNL d   1     -49.435  27.719  33.306  0.00  0.00     0.101 A 
BRANCH  14  17
ATOM     17  C   UNL d   1     -48.226  29.402  34.177  0.00  0.00     0.080 C 
ATOM     18  C   UNL d   1     -47.946  29.657  34.927  0.00  0.00     0.021 C 
ENDBRANCH  14  17
ENDBRANCH   3  11
BRANCH   9  19
ATOM     19  C   UNL d   1     -49.333  24.309  33.447  0.00  0.00     0.018 C 
ATOM     20  C   UNL d   1     -48.470  24.347  33.443  0.00  0.00     0.002 C 
ATOM     21  C   UNL d   1     -49.735  23.562  33.326  0.00  0.00     0.002 C 
ENDBRANCH   9  19
BRANCH   5  22
ATOM     22  C   UNL d   1     -52.233  24.954  33.563  0.00  0.00     0.004 A 
ATOM     23  C   UNL d   1     -53.049  24.939  33.543  0.00  0.00     0.000 A 
ATOM     24  C   UNL d   1     -53.443  24.225  33.419  0.00  0.00     0.000 A 
ATOM     25  C   UNL d   1     -53.013  23.542  33.316  0.00  0.00     0.000 A 
ATOM     26  C   UNL d   1     -52.190  23.562  33.337  0.00  0.00     0.000 A 
ATOM     27  C   UNL d   1     -51.810  24.269  33.460  0.00  0.00     0.000 A 
ENDBRANCH   5  22
TORSDOF 4
ENDMDL
