MODEL 1
REMARK VINA RESULT:      -3.1      0.000      0.000
REMARK  7 active torsions:
REMARK  status: ('A' for Active; 'I' for Inactive)
REMARK    1  A    between atoms: C_2  and  S_1 
REMARK    2  A    between atoms: N_3  and  S_1 
REMARK    3  A    between atoms: C_5  and  C_7 
REMARK       I    between atoms: N_9  and  C_5 
REMARK    4  A    between atoms: C_8  and  N_6 
REMARK    5  A    between atoms: C_21  and  N_9 
REMARK    6  A    between atoms: O_28  and  C_23 
REMARK    7  A    between atoms: C_31  and  O_28 
ROOT
ATOM      1  C   UNL d   1      33.191  21.230 -23.188  0.00  0.00     0.132 A 
ATOM      2  C   UNL d   1      33.163  21.560 -22.439  0.00  0.00     0.020 A 
ATOM      3  C   UNL d   1      33.157  22.381 -22.356  0.00  0.00     0.059 A 
ATOM      4  C   UNL d   1      33.213  21.716 -23.861  0.00  0.00     0.152 A 
ATOM      5  C   UNL d   1      33.179  22.868 -23.029  0.00  0.00     0.007 A 
ATOM      6  C   UNL d   1      33.207  22.532 -23.783  0.00  0.00     0.030 A 
ATOM      7  F   UNL d   1      33.241  21.381 -24.614  0.00  0.00    -0.203 F 
ENDROOT
BRANCH   1   8
ATOM      8  S   UNL d   1      33.197  20.406 -23.265  0.00  0.00     0.274 S 
ATOM      9  O   UNL d   1      33.179  20.476 -24.086  0.00  0.00    -0.200 OA
ATOM     10  O   UNL d   1      33.214  20.334 -22.443  0.00  0.00    -0.200 OA
BRANCH   8  11
ATOM     11  N   UNL d   1      33.203  19.583 -23.336  0.00  0.00    -0.226 N 
ATOM     12  C   UNL d   1      33.216  19.237 -24.080  0.00  0.00     0.111 A 
ATOM     13  C   UNL d   1      33.222  18.414 -24.146  0.00  0.00     0.101 A 
ATOM     14  N   UNL d   1      33.215  17.944 -23.468  0.00  0.00    -0.286 N 
ATOM     15  C   UNL d   1      33.202  18.301 -22.733  0.00  0.00     0.101 A 
ATOM     16  C   UNL d   1      33.196  19.113 -22.658  0.00  0.00     0.111 A 
BRANCH  14  17
ATOM     17  C   UNL d   1      33.221  17.125 -23.541  0.00  0.00     0.148 A 
ATOM     18  N   UNL d   1      33.225  16.776 -24.284  0.00  0.00    -0.227 NA
ATOM     19  C   UNL d   1      33.231  15.954 -24.355  0.00  0.00     0.101 A 
ATOM     20  C   UNL d   1      33.233  15.486 -23.674  0.00  0.00     0.021 A 
ATOM     21  C   UNL d   1      33.228  15.838 -22.925  0.00  0.00     0.005 A 
ATOM     22  C   UNL d   1      33.222  16.655 -22.863  0.00  0.00     0.037 A 
ENDBRANCH  14  17
ENDBRANCH   8  11
ENDBRANCH   1   8
BRANCH   3  23
ATOM     23  C   UNL d   1      33.129  22.730 -21.608  0.00  0.00     0.279 C 
ATOM     24  N   UNL d   1      32.986  22.254 -20.946  0.00  0.00    -0.208 NA
ATOM     25  O   UNL d   1      33.241  23.532 -21.516  0.00  0.00    -0.265 OA
BRANCH  24  26
ATOM     26  C   UNL d   1      32.957  22.595 -20.194  0.00  0.00     0.085 A 
ATOM     27  C   UNL d   1      33.241  22.185 -19.540  0.00  0.00     0.021 A 
ATOM     28  C   UNL d   1      33.211  22.526 -18.792  0.00  0.00     0.026 A 
ATOM     29  C   UNL d   1      32.892  23.293 -18.685  0.00  0.00     0.100 A 
ATOM     30  C   UNL d   1      32.607  23.702 -19.351  0.00  0.00     0.026 A 
ATOM     31  C   UNL d   1      32.636  23.363 -20.098  0.00  0.00     0.021 A 
BRANCH  29  32
ATOM     32  O   UNL d   1      32.864  23.629 -17.941  0.00  0.00    -0.305 OA
BRANCH  32  33
ATOM     33  C   UNL d   1      33.026  23.174 -17.272  0.00  0.00     0.123 C 
ATOM     34  C   UNL d   1      33.049  23.529 -16.525  0.00  0.00     0.029 C 
ENDBRANCH  32  33
ENDBRANCH  29  32
ENDBRANCH  24  26
ENDBRANCH   3  23
TORSDOF 7
ENDMDL
MODEL 2
REMARK VINA RESULT:      -2.3      1.036      1.356
REMARK  7 active torsions:
REMARK  status: ('A' for Active; 'I' for Inactive)
REMARK    1  A    between atoms: C_2  and  S_1 
REMARK    2  A    between atoms: N_3  and  S_1 
REMARK    3  A    between atoms: C_5  and  C_7 
REMARK       I    between atoms: N_9  and  C_5 
REMARK    4  A    between atoms: C_8  and  N_6 
REMARK    5  A    between atoms: C_21  and  N_9 
REMARK    6  A    between atoms: O_28  and  C_23 
REMARK    7  A    between atoms: C_31  and  O_28 
ROOT
ATOM      1  C   UNL d   1      32.905  20.942 -22.332  0.00  0.00     0.132 A 
ATOM      2  C   UNL d   1      32.858  21.130 -21.536  0.00  0.00     0.020 A 
ATOM      3  C   UNL d   1      33.003  21.906 -21.293  0.00  0.00     0.059 A 
ATOM      4  C   UNL d   1      33.097  21.526 -22.892  0.00  0.00     0.152 A 
ATOM      5  C   UNL d   1      33.195  22.490 -21.852  0.00  0.00     0.007 A 
ATOM      6  C   UNL d   1      33.241  22.296 -22.653  0.00  0.00     0.030 A 
ATOM      7  F   UNL d   1      33.143  21.334 -23.692  0.00  0.00    -0.203 F 
ENDROOT
BRANCH   1   8
ATOM      8  S   UNL d   1      32.759  20.163 -22.571  0.00  0.00     0.274 S 
ATOM      9  O   UNL d   1      32.806  19.907 -21.789  0.00  0.00    -0.200 OA
ATOM     10  O   UNL d   1      32.712  20.418 -23.354  0.00  0.00    -0.200 OA
BRANCH   8  11
ATOM     11  N   UNL d   1      32.613  19.388 -22.815  0.00  0.00    -0.226 N 
ATOM     12  C   UNL d   1      33.240  18.898 -23.017  0.00  0.00     0.111 A 
ATOM     13  C   UNL d   1      33.089  18.123 -23.260  0.00  0.00     0.101 A 
ATOM     14  N   UNL d   1      32.313  17.845 -23.300  0.00  0.00    -0.286 N 
ATOM     15  C   UNL d   1      31.699  18.344 -23.097  0.00  0.00     0.101 A 
ATOM     16  C   UNL d   1      31.837  19.110 -22.855  0.00  0.00     0.111 A 
BRANCH  14  17
ATOM     17  C   UNL d   1      32.170  17.073 -23.543  0.00  0.00     0.148 A 
ATOM     18  N   UNL d   1      31.574  16.633 -23.191  0.00  0.00    -0.227 NA
ATOM     19  C   UNL d   1      31.431  15.858 -23.436  0.00  0.00     0.101 A 
ATOM     20  C   UNL d   1      31.893  15.530 -24.038  0.00  0.00     0.021 A 
ATOM     21  C   UNL d   1      32.493  15.974 -24.394  0.00  0.00     0.005 A 
ATOM     22  C   UNL d   1      32.629  16.743 -24.145  0.00  0.00     0.037 A 
ENDBRANCH  14  17
ENDBRANCH   8  11
ENDBRANCH   1   8
BRANCH   3  23
ATOM     23  C   UNL d   1      32.960  22.111 -20.494  0.00  0.00     0.279 C 
ATOM     24  N   UNL d   1      32.627  22.839 -20.281  0.00  0.00    -0.208 NA
ATOM     25  O   UNL d   1      33.240  21.608 -19.917  0.00  0.00    -0.265 OA
BRANCH  24  26
ATOM     26  C   UNL d   1      32.580  23.051 -19.485  0.00  0.00     0.085 A 
ATOM     27  C   UNL d   1      31.924  23.458 -19.201  0.00  0.00     0.021 A 
ATOM     28  C   UNL d   1      31.878  23.669 -18.406  0.00  0.00     0.026 A 
ATOM     29  C   UNL d   1      32.498  23.474 -17.877  0.00  0.00     0.100 A 
ATOM     30  C   UNL d   1      33.158  23.063 -18.172  0.00  0.00     0.026 A 
ATOM     31  C   UNL d   1      33.205  22.852 -18.964  0.00  0.00     0.021 A 
BRANCH  29  32
ATOM     32  O   UNL d   1      32.450  23.685 -17.090  0.00  0.00    -0.305 OA
BRANCH  32  33
ATOM     33  C   UNL d   1      32.884  23.276 -16.521  0.00  0.00     0.123 C 
ATOM     34  C   UNL d   1      33.151  23.668 -15.843  0.00  0.00     0.029 C 
ENDBRANCH  32  33
ENDBRANCH  29  32
ENDBRANCH  24  26
ENDBRANCH   3  23
TORSDOF 7
ENDMDL
