MODEL 1
REMARK VINA RESULT:      -7.7      0.000      0.000
REMARK  5 active torsions:
REMARK  status: ('A' for Active; 'I' for Inactive)
REMARK    1  A    between atoms: N_2  and  S_1 
REMARK    2  A    between atoms: C_3  and  S_1 
REMARK    3  A    between atoms: C_13  and  N_2 
REMARK       I    between atoms: C_6  and  N_7 
REMARK    4  A    between atoms: N_7  and  C_14 
REMARK    5  A    between atoms: C_12  and  C_13 
ROOT
ATOM      1  S   UNL d   1      50.873  34.106  52.654  0.00  0.00     0.285 S 
ATOM      2  O   UNL d   1      50.522  33.748  53.314  0.00  0.00    -0.198 OA
ATOM      3  O   UNL d   1      51.249  34.465  51.992  0.00  0.00    -0.198 OA
ENDROOT
BRANCH   1   4
ATOM      4  N   UNL d   1      50.135  34.287  52.348  0.00  0.00    -0.157 NA
BRANCH   4   5
ATOM      5  C   UNL d   1      49.659  34.856  52.733  0.00  0.00     0.114 C 
BRANCH   5   6
ATOM      6  C   UNL d   1      48.965  35.088  52.373  0.00  0.00     0.039 A 
ATOM      7  C   UNL d   1      48.749  34.797  51.636  0.00  0.00     0.101 A 
ATOM      8  N   UNL d   1      48.031  35.055  51.295  0.00  0.00    -0.242 NA
ATOM      9  C   UNL d   1      47.534  35.597  51.686  0.00  0.00     0.099 A 
ATOM     10  C   UNL d   1      47.765  35.885  52.435  0.00  0.00     0.021 A 
ATOM     11  C   UNL d   1      48.463  35.636  52.771  0.00  0.00     0.005 A 
ENDBRANCH   5   6
ENDBRANCH   4   5
ENDBRANCH   1   4
BRANCH   1  12
ATOM     12  C   UNL d   1      51.642  33.919  52.973  0.00  0.00     0.105 A 
ATOM     13  C   UNL d   1      51.817  33.143  53.210  0.00  0.00     0.015 A 
ATOM     14  C   UNL d   1      52.553  32.959  53.515  0.00  0.00     0.020 A 
ATOM     15  C   UNL d   1      53.124  33.569  53.584  0.00  0.00     0.085 A 
ATOM     16  C   UNL d   1      52.947  34.329  53.350  0.00  0.00     0.020 A 
ATOM     17  C   UNL d   1      52.196  34.507  53.040  0.00  0.00     0.015 A 
BRANCH  15  18
ATOM     18  N   UNL d   1      53.886  33.393  53.897  0.00  0.00    -0.208 NA
ATOM     19  C   UNL d   1      54.054  33.577  54.707  0.00  0.00     0.279 C 
ATOM     20  O   UNL d   1      53.466  33.930  55.184  0.00  0.00    -0.265 OA
ATOM     21  C   UNL d   1      54.782  33.411  55.013  0.00  0.00     0.068 C 
ENDBRANCH  15  18
ENDBRANCH   1  12
TORSDOF 5
ENDMDL
MODEL 2
REMARK VINA RESULT:      -7.2      1.204      5.044
REMARK  5 active torsions:
REMARK  status: ('A' for Active; 'I' for Inactive)
REMARK    1  A    between atoms: N_2  and  S_1 
REMARK    2  A    between atoms: C_3  and  S_1 
REMARK    3  A    between atoms: C_13  and  N_2 
REMARK       I    between atoms: C_6  and  N_7 
REMARK    4  A    between atoms: N_7  and  C_14 
REMARK    5  A    between atoms: C_12  and  C_13 
ROOT
ATOM      1  S   UNL d   1      51.952  34.103  53.004  0.00  0.00     0.285 S 
ATOM      2  O   UNL d   1      52.013  33.340  52.685  0.00  0.00    -0.198 OA
ATOM      3  O   UNL d   1      51.871  34.881  53.318  0.00  0.00    -0.198 OA
ENDROOT
BRANCH   1   4
ATOM      4  N   UNL d   1      52.676  34.016  53.377  0.00  0.00    -0.157 NA
BRANCH   4   5
ATOM      5  C   UNL d   1      52.701  33.758  54.172  0.00  0.00     0.114 C 
BRANCH   5   6
ATOM      6  C   UNL d   1      53.427  33.702  54.538  0.00  0.00     0.039 A 
ATOM      7  C   UNL d   1      53.826  34.369  54.800  0.00  0.00     0.101 A 
ATOM      8  N   UNL d   1      54.569  34.275  55.172  0.00  0.00    -0.242 NA
ATOM      9  C   UNL d   1      54.908  33.523  55.280  0.00  0.00     0.099 A 
ATOM     10  C   UNL d   1      54.492  32.851  55.010  0.00  0.00     0.021 A 
ATOM     11  C   UNL d   1      53.769  32.938  54.648  0.00  0.00     0.005 A 
ENDBRANCH   5   6
ENDBRANCH   4   5
ENDBRANCH   1   4
BRANCH   1  12
ATOM     12  C   UNL d   1      51.197  34.195  52.616  0.00  0.00     0.105 A 
ATOM     13  C   UNL d   1      51.161  34.289  51.793  0.00  0.00     0.015 A 
ATOM     14  C   UNL d   1      50.440  34.377  51.417  0.00  0.00     0.020 A 
ATOM     15  C   UNL d   1      49.741  34.370  51.881  0.00  0.00     0.085 A 
ATOM     16  C   UNL d   1      49.783  34.277  52.689  0.00  0.00     0.020 A 
ATOM     17  C   UNL d   1      50.520  34.188  53.062  0.00  0.00     0.015 A 
BRANCH  15  18
ATOM     18  N   UNL d   1      48.992  34.460  51.507  0.00  0.00    -0.208 NA
ATOM     19  C   UNL d   1      48.485  35.098  51.740  0.00  0.00     0.279 C 
ATOM     20  O   UNL d   1      48.733  35.629  52.336  0.00  0.00    -0.265 OA
ATOM     21  C   UNL d   1      47.767  35.189  51.385  0.00  0.00     0.068 C 
ENDBRANCH  15  18
ENDBRANCH   1  12
TORSDOF 5
ENDMDL
