MODEL 1
REMARK VINA RESULT:       1.2      0.000      0.000
REMARK  4 active torsions:
REMARK  status: ('A' for Active; 'I' for Inactive)
REMARK    1  A    between atoms: N_2  and  C_1 
REMARK    2  A    between atoms: C_9  and  C_3 
REMARK    3  A    between atoms: O_15  and  C_9 
REMARK    4  A    between atoms: C_18  and  O_15 
ROOT
ATOM      1  C   UNL d   1     -41.630-122.866 -49.864  0.00  0.00     0.105 A 
ATOM      2  C   UNL d   1     -42.385-123.092 -49.617  0.00  0.00     0.086 A 
ATOM      3  S   UNL d   1     -41.129-122.974 -49.223  0.00  0.00    -0.069 SA
ATOM      4  C   UNL d   1     -42.340-123.334 -48.835  0.00  0.00     0.013 A 
ATOM      5  C   UNL d   1     -41.566-123.263 -48.589  0.00  0.00     0.031 A 
ATOM      6  C   UNL d   1     -42.963-123.605 -48.367  0.00  0.00     0.001 C 
ATOM      7  C   UNL d   1     -41.273-123.447 -47.840  0.00  0.00     0.007 C 
ENDROOT
BRANCH   1   8
ATOM      8  N   UNL d   1     -41.462-122.589 -50.624  0.00  0.00    -0.236 N 
ATOM      9  C   UNL d   1     -41.385-122.991 -51.337  0.00  0.00     0.268 A 
ATOM     10  C   UNL d   1     -41.213-122.427 -51.921  0.00  0.00     0.066 A 
ATOM     11  O   UNL d   1     -41.465-123.815 -51.456  0.00  0.00    -0.267 OA
ATOM     12  C   UNL d   1     -41.187-121.695 -51.557  0.00  0.00     0.066 A 
ATOM     13  C   UNL d   1     -41.339-121.792 -50.763  0.00  0.00     0.268 A 
ATOM     14  O   UNL d   1     -41.365-121.200 -50.207  0.00  0.00    -0.267 OA
ENDBRANCH   1   8
BRANCH   2  15
ATOM     15  C   UNL d   1     -43.075-123.075 -50.086  0.00  0.00     0.302 C 
ATOM     16  O   UNL d   1     -43.279-123.741 -50.546  0.00  0.00    -0.259 OA
BRANCH  15  17
ATOM     17  O   UNL d   1     -43.541-122.412 -50.089  0.00  0.00    -0.271 OA
BRANCH  17  18
ATOM     18  C   UNL d   1     -44.361-122.484 -50.228  0.00  0.00     0.126 C 
ATOM     19  C   UNL d   1     -44.804-121.821 -50.445  0.00  0.00     0.029 C 
ENDBRANCH  17  18
ENDBRANCH  15  17
ENDBRANCH   2  15
TORSDOF 4
ENDMDL
