MODEL 1
REMARK VINA RESULT:      -3.3      0.000      0.000
REMARK  5 active torsions:
REMARK  status: ('A' for Active; 'I' for Inactive)
REMARK       I    between atoms: C_2  and  N_1 
REMARK    1  A    between atoms: C_3  and  N_1 
REMARK    2  A    between atoms: C_7  and  C_2 
REMARK    3  A    between atoms: N_5  and  C_3 
REMARK    4  A    between atoms: C_8  and  N_5 
REMARK    5  A    between atoms: C_9  and  C_8 
ROOT
ATOM      1  C   UNL d   1      32.112  17.476 -23.662  0.00  0.00     0.179 C 
ATOM      2  S   UNL d   1      32.692  17.100 -24.128  0.00  0.00    -0.040 SA
ENDROOT
BRANCH   1   3
ATOM      3  N   UNL d   1      31.318  17.326 -23.796  0.00  0.00    -0.299 N 
ATOM      4  C   UNL d   1      31.013  16.556 -23.695  0.00  0.00     0.259 C 
ATOM      5  O   UNL d   1      31.521  15.946 -23.459  0.00  0.00    -0.267 OA
ATOM      6  H   UNL d   1      30.822  17.939 -24.030  0.00  0.00     0.171 HD
BRANCH   4   7
ATOM      7  C   UNL d   1      30.213  16.411 -23.831  0.00  0.00     0.056 A 
ATOM      8  C   UNL d   1      29.844  16.748 -24.481  0.00  0.00     0.005 A 
ATOM      9  C   UNL d   1      29.037  16.599 -24.613  0.00  0.00     0.000 A 
ATOM     10  C   UNL d   1      28.610  16.115 -24.094  0.00  0.00     0.000 A 
ATOM     11  C   UNL d   1      28.991  15.777 -23.438  0.00  0.00     0.000 A 
ATOM     12  C   UNL d   1      29.803  15.927 -23.305  0.00  0.00     0.005 A 
ENDBRANCH   4   7
ENDBRANCH   1   3
BRANCH   1  13
ATOM     13  N   UNL d   1      32.343  18.000 -23.064  0.00  0.00    -0.330 N 
ATOM     14  H   UNL d   1      31.912  18.026 -22.364  0.00  0.00     0.168 HD
BRANCH  13  15
ATOM     15  C   UNL d   1      32.990  18.484 -23.170  0.00  0.00     0.074 C 
BRANCH  15  16
ATOM     16  C   UNL d   1      33.071  19.181 -22.703  0.00  0.00     0.017 A 
ATOM     17  C   UNL d   1      33.058  19.916 -23.065  0.00  0.00     0.002 A 
ATOM     18  C   UNL d   1      33.137  20.591 -22.617  0.00  0.00     0.000 A 
ATOM     19  C   UNL d   1      33.228  20.540 -21.802  0.00  0.00     0.000 A 
ATOM     20  C   UNL d   1      33.241  19.789 -21.433  0.00  0.00     0.000 A 
ATOM     21  C   UNL d   1      33.162  19.115 -21.892  0.00  0.00     0.002 A 
ENDBRANCH  15  16
ENDBRANCH  13  15
ENDBRANCH   1  13
TORSDOF 5
ENDMDL
MODEL 2
REMARK VINA RESULT:      -2.8      1.407      2.188
REMARK  5 active torsions:
REMARK  status: ('A' for Active; 'I' for Inactive)
REMARK       I    between atoms: C_2  and  N_1 
REMARK    1  A    between atoms: C_3  and  N_1 
REMARK    2  A    between atoms: C_7  and  C_2 
REMARK    3  A    between atoms: N_5  and  C_3 
REMARK    4  A    between atoms: C_8  and  N_5 
REMARK    5  A    between atoms: C_9  and  C_8 
ROOT
ATOM      1  C   UNL d   1      32.888  19.000 -23.198  0.00  0.00     0.179 C 
ATOM      2  S   UNL d   1      33.224  19.276 -23.909  0.00  0.00    -0.040 SA
ENDROOT
BRANCH   1   3
ATOM      3  N   UNL d   1      32.666  18.215 -23.126  0.00  0.00    -0.299 N 
ATOM      4  C   UNL d   1      32.133  17.879 -23.672  0.00  0.00     0.259 C 
ATOM      5  O   UNL d   1      31.832  18.345 -24.287  0.00  0.00    -0.267 OA
ATOM      6  H   UNL d   1      32.970  17.760 -22.512  0.00  0.00     0.171 HD
BRANCH   4   7
ATOM      7  C   UNL d   1      31.913  17.087 -23.595  0.00  0.00     0.056 A 
ATOM      8  C   UNL d   1      32.481  16.500 -23.654  0.00  0.00     0.005 A 
ATOM      9  C   UNL d   1      32.254  15.704 -23.575  0.00  0.00     0.000 A 
ATOM     10  C   UNL d   1      31.460  15.507 -23.439  0.00  0.00     0.000 A 
ATOM     11  C   UNL d   1      30.890  16.108 -23.380  0.00  0.00     0.000 A 
ATOM     12  C   UNL d   1      31.120  16.909 -23.459  0.00  0.00     0.005 A 
ENDBRANCH   4   7
ENDBRANCH   1   3
BRANCH   1  13
ATOM     13  N   UNL d   1      32.780  19.525 -22.566  0.00  0.00    -0.330 N 
ATOM     14  H   UNL d   1      32.238  19.335 -21.976  0.00  0.00     0.168 HD
BRANCH  13  15
ATOM     15  C   UNL d   1      33.204  20.218 -22.531  0.00  0.00     0.074 C 
BRANCH  15  16
ATOM     16  C   UNL d   1      33.201  20.675 -21.822  0.00  0.00     0.017 A 
ATOM     17  C   UNL d   1      33.241  20.297 -21.095  0.00  0.00     0.002 A 
ATOM     18  C   UNL d   1      33.238  20.734 -20.409  0.00  0.00     0.000 A 
ATOM     19  C   UNL d   1      33.195  21.554 -20.440  0.00  0.00     0.000 A 
ATOM     20  C   UNL d   1      33.154  21.939 -21.182  0.00  0.00     0.000 A 
ATOM     21  C   UNL d   1      33.158  21.491 -21.868  0.00  0.00     0.002 A 
ENDBRANCH  15  16
ENDBRANCH  13  15
ENDBRANCH   1  13
TORSDOF 5
ENDMDL
MODEL 3
REMARK VINA RESULT:      -2.8      1.451      4.907
REMARK  5 active torsions:
REMARK  status: ('A' for Active; 'I' for Inactive)
REMARK       I    between atoms: C_2  and  N_1 
REMARK    1  A    between atoms: C_3  and  N_1 
REMARK    2  A    between atoms: C_7  and  C_2 
REMARK    3  A    between atoms: N_5  and  C_3 
REMARK    4  A    between atoms: C_8  and  N_5 
REMARK    5  A    between atoms: C_9  and  C_8 
ROOT
ATOM      1  C   UNL d   1      32.733  18.833 -23.180  0.00  0.00     0.179 C 
ATOM      2  S   UNL d   1      33.241  18.988 -23.823  0.00  0.00    -0.040 SA
ENDROOT
BRANCH   1   3
ATOM      3  N   UNL d   1      32.773  19.296 -22.506  0.00  0.00    -0.299 N 
ATOM      4  C   UNL d   1      33.028  20.088 -22.555  0.00  0.00     0.259 C 
ATOM      5  O   UNL d   1      33.241  20.402 -23.291  0.00  0.00    -0.267 OA
ATOM      6  H   UNL d   1      32.559  18.974 -21.779  0.00  0.00     0.171 HD
BRANCH   4   7
ATOM      7  C   UNL d   1      33.065  20.549 -21.872  0.00  0.00     0.056 A 
ATOM      8  C   UNL d   1      33.204  20.192 -21.147  0.00  0.00     0.005 A 
ATOM      9  C   UNL d   1      33.241  20.661 -20.463  0.00  0.00     0.000 A 
ATOM     10  C   UNL d   1      33.138  21.482 -20.511  0.00  0.00     0.000 A 
ATOM     11  C   UNL d   1      32.998  21.837 -21.248  0.00  0.00     0.000 A 
ATOM     12  C   UNL d   1      32.961  21.364 -21.938  0.00  0.00     0.005 A 
ENDBRANCH   4   7
ENDBRANCH   1   3
BRANCH   1  13
ATOM     13  N   UNL d   1      32.190  18.210 -23.229  0.00  0.00    -0.330 N 
ATOM     14  H   UNL d   1      31.739  18.019 -22.568  0.00  0.00     0.168 HD
BRANCH  13  15
ATOM     15  C   UNL d   1      32.105  17.792 -23.923  0.00  0.00     0.074 C 
BRANCH  15  16
ATOM     16  C   UNL d   1      31.483  17.229 -23.998  0.00  0.00     0.017 A 
ATOM     17  C   UNL d   1      31.611  16.450 -23.779  0.00  0.00     0.002 A 
ATOM     18  C   UNL d   1      31.013  15.903 -23.850  0.00  0.00     0.000 A 
ATOM     19  C   UNL d   1      30.278  16.129 -24.141  0.00  0.00     0.000 A 
ATOM     20  C   UNL d   1      30.147  16.925 -24.365  0.00  0.00     0.000 A 
ATOM     21  C   UNL d   1      30.756  17.467 -24.290  0.00  0.00     0.002 A 
ENDBRANCH  15  16
ENDBRANCH  13  15
ENDBRANCH   1  13
TORSDOF 5
ENDMDL
MODEL 4
REMARK VINA RESULT:      -2.3      3.190      5.816
REMARK  5 active torsions:
REMARK  status: ('A' for Active; 'I' for Inactive)
REMARK       I    between atoms: C_2  and  N_1 
REMARK    1  A    between atoms: C_3  and  N_1 
REMARK    2  A    between atoms: C_7  and  C_2 
REMARK    3  A    between atoms: N_5  and  C_3 
REMARK    4  A    between atoms: C_8  and  N_5 
REMARK    5  A    between atoms: C_9  and  C_8 
ROOT
ATOM      1  C   UNL d   1      33.115  21.319 -22.272  0.00  0.00     0.179 C 
ATOM      2  S   UNL d   1      33.044  21.784 -22.960  0.00  0.00    -0.040 SA
ENDROOT
BRANCH   1   3
ATOM      3  N   UNL d   1      33.234  21.677 -21.545  0.00  0.00    -0.299 N 
ATOM      4  C   UNL d   1      32.618  22.109 -21.186  0.00  0.00     0.259 C 
ATOM      5  O   UNL d   1      31.888  22.173 -21.570  0.00  0.00    -0.267 OA
ATOM      6  H   UNL d   1      33.963  21.607 -21.171  0.00  0.00     0.171 HD
BRANCH   4   7
ATOM      7  C   UNL d   1      32.743  22.467 -20.453  0.00  0.00     0.056 A 
ATOM      8  C   UNL d   1      33.117  22.049 -19.855  0.00  0.00     0.005 A 
ATOM      9  C   UNL d   1      33.241  22.415 -19.119  0.00  0.00     0.000 A 
ATOM     10  C   UNL d   1      32.988  23.194 -18.991  0.00  0.00     0.000 A 
ATOM     11  C   UNL d   1      32.610  23.611 -19.601  0.00  0.00     0.000 A 
ATOM     12  C   UNL d   1      32.486  23.242 -20.342  0.00  0.00     0.005 A 
ENDBRANCH   4   7
ENDBRANCH   1   3
BRANCH   1  13
ATOM     13  N   UNL d   1      33.065  20.494 -22.329  0.00  0.00    -0.330 N 
ATOM     14  H   UNL d   1      32.914  20.054 -21.651  0.00  0.00     0.168 HD
BRANCH  13  15
ATOM     15  C   UNL d   1      33.165  20.126 -23.048  0.00  0.00     0.074 C 
BRANCH  15  16
ATOM     16  C   UNL d   1      33.111  19.286 -23.098  0.00  0.00     0.017 A 
ATOM     17  C   UNL d   1      33.240  18.830 -22.429  0.00  0.00     0.002 A 
ATOM     18  C   UNL d   1      33.189  18.019 -22.473  0.00  0.00     0.000 A 
ATOM     19  C   UNL d   1      33.009  17.653 -23.186  0.00  0.00     0.000 A 
ATOM     20  C   UNL d   1      32.877  18.119 -23.869  0.00  0.00     0.000 A 
ATOM     21  C   UNL d   1      32.930  18.934 -23.815  0.00  0.00     0.002 A 
ENDBRANCH  15  16
ENDBRANCH  13  15
ENDBRANCH   1  13
TORSDOF 5
ENDMDL
MODEL 5
REMARK VINA RESULT:      -2.0      1.136      4.531
REMARK  5 active torsions:
REMARK  status: ('A' for Active; 'I' for Inactive)
REMARK       I    between atoms: C_2  and  N_1 
REMARK    1  A    between atoms: C_3  and  N_1 
REMARK    2  A    between atoms: C_7  and  C_2 
REMARK    3  A    between atoms: N_5  and  C_3 
REMARK    4  A    between atoms: C_8  and  N_5 
REMARK    5  A    between atoms: C_9  and  C_8 
ROOT
ATOM      1  C   UNL d   1      31.173  16.555 -24.523  0.00  0.00     0.179 C 
ATOM      2  S   UNL d   1      31.594  16.119 -25.095  0.00  0.00    -0.040 SA
ENDROOT
BRANCH   1   3
ATOM      3  N   UNL d   1      31.577  17.009 -23.974  0.00  0.00    -0.299 N 
ATOM      4  C   UNL d   1      32.021  17.670 -24.221  0.00  0.00     0.259 C 
ATOM      5  O   UNL d   1      32.048  17.864 -25.026  0.00  0.00    -0.267 OA
ATOM      6  H   UNL d   1      31.544  16.808 -23.176  0.00  0.00     0.171 HD
BRANCH   4   7
ATOM      7  C   UNL d   1      32.425  18.124 -23.663  0.00  0.00     0.056 A 
ATOM      8  C   UNL d   1      32.476  18.936 -23.759  0.00  0.00     0.005 A 
ATOM      9  C   UNL d   1      32.885  19.388 -23.194  0.00  0.00     0.000 A 
ATOM     10  C   UNL d   1      33.238  19.021 -22.541  0.00  0.00     0.000 A 
ATOM     11  C   UNL d   1      33.183  18.198 -22.450  0.00  0.00     0.000 A 
ATOM     12  C   UNL d   1      32.771  17.743 -23.019  0.00  0.00     0.005 A 
ENDBRANCH   4   7
ENDBRANCH   1   3
BRANCH   1  13
ATOM     13  N   UNL d   1      30.346  16.527 -24.514  0.00  0.00    -0.330 N 
ATOM     14  H   UNL d   1      29.920  17.101 -24.922  0.00  0.00     0.168 HD
BRANCH  13  15
ATOM     15  C   UNL d   1      29.959  15.938 -24.107  0.00  0.00     0.074 C 
BRANCH  15  16
ATOM     16  C   UNL d   1      29.162  16.055 -23.858  0.00  0.00     0.017 A 
ATOM     17  C   UNL d   1      28.613  15.454 -23.955  0.00  0.00     0.002 A 
ATOM     18  C   UNL d   1      27.844  15.564 -23.716  0.00  0.00     0.000 A 
ATOM     19  C   UNL d   1      27.612  16.275 -23.377  0.00  0.00     0.000 A 
ATOM     20  C   UNL d   1      28.173  16.889 -23.277  0.00  0.00     0.000 A 
ATOM     21  C   UNL d   1      28.946  16.769 -23.521  0.00  0.00     0.002 A 
ENDBRANCH  15  16
ENDBRANCH  13  15
ENDBRANCH   1  13
TORSDOF 5
ENDMDL
MODEL 6
REMARK VINA RESULT:      -1.8      4.541      6.338
REMARK  5 active torsions:
REMARK  status: ('A' for Active; 'I' for Inactive)
REMARK       I    between atoms: C_2  and  N_1 
REMARK    1  A    between atoms: C_3  and  N_1 
REMARK    2  A    between atoms: C_7  and  C_2 
REMARK    3  A    between atoms: N_5  and  C_3 
REMARK    4  A    between atoms: C_8  and  N_5 
REMARK    5  A    between atoms: C_9  and  C_8 
ROOT
ATOM      1  C   UNL d   1      32.954  23.044 -20.090  0.00  0.00     0.179 C 
ATOM      2  S   UNL d   1      32.454  23.610 -20.443  0.00  0.00    -0.040 SA
ENDROOT
BRANCH   1   3
ATOM      3  N   UNL d   1      33.159  22.365 -20.500  0.00  0.00    -0.299 N 
ATOM      4  C   UNL d   1      32.589  21.963 -20.956  0.00  0.00     0.259 C 
ATOM      5  O   UNL d   1      31.815  22.256 -20.991  0.00  0.00    -0.267 OA
ATOM      6  H   UNL d   1      33.930  22.083 -20.458  0.00  0.00     0.171 HD
BRANCH   4   7
ATOM      7  C   UNL d   1      32.801  21.279 -21.366  0.00  0.00     0.056 A 
ATOM      8  C   UNL d   1      32.828  20.561 -20.972  0.00  0.00     0.005 A 
ATOM      9  C   UNL d   1      33.043  19.876 -21.391  0.00  0.00     0.000 A 
ATOM     10  C   UNL d   1      33.227  19.918 -22.198  0.00  0.00     0.000 A 
ATOM     11  C   UNL d   1      33.197  20.649 -22.590  0.00  0.00     0.000 A 
ATOM     12  C   UNL d   1      32.981  21.339 -22.168  0.00  0.00     0.005 A 
ENDBRANCH   4   7
ENDBRANCH   1   3
BRANCH   1  13
ATOM     13  N   UNL d   1      33.241  23.173 -19.324  0.00  0.00    -0.330 N 
ATOM     14  H   UNL d   1      34.026  22.992 -19.154  0.00  0.00     0.168 HD
BRANCH  13  15
ATOM     15  C   UNL d   1      32.752  23.476 -18.748  0.00  0.00     0.074 C 
BRANCH  15  16
ATOM     16  C   UNL d   1      32.833  23.212 -17.951  0.00  0.00     0.017 A 
ATOM     17  C   UNL d   1      33.148  22.471 -17.798  0.00  0.00     0.002 A 
ATOM     18  C   UNL d   1      33.228  22.213 -17.031  0.00  0.00     0.000 A 
ATOM     19  C   UNL d   1      32.993  22.692 -16.406  0.00  0.00     0.000 A 
ATOM     20  C   UNL d   1      32.671  23.449 -16.562  0.00  0.00     0.000 A 
ATOM     21  C   UNL d   1      32.595  23.700 -17.338  0.00  0.00     0.002 A 
ENDBRANCH  15  16
ENDBRANCH  13  15
ENDBRANCH   1  13
TORSDOF 5
ENDMDL
MODEL 7
REMARK VINA RESULT:      -0.3      1.450      1.953
REMARK  5 active torsions:
REMARK  status: ('A' for Active; 'I' for Inactive)
REMARK       I    between atoms: C_2  and  N_1 
REMARK    1  A    between atoms: C_3  and  N_1 
REMARK    2  A    between atoms: C_7  and  C_2 
REMARK    3  A    between atoms: N_5  and  C_3 
REMARK    4  A    between atoms: C_8  and  N_5 
REMARK    5  A    between atoms: C_9  and  C_8 
ROOT
ATOM      1  C   UNL d   1      30.616  17.638 -24.559  0.00  0.00     0.179 C 
ATOM      2  S   UNL d   1      30.381  18.255 -25.068  0.00  0.00    -0.040 SA
ENDROOT
BRANCH   1   3
ATOM      3  N   UNL d   1      30.061  17.105 -24.276  0.00  0.00    -0.299 N 
ATOM      4  C   UNL d   1      29.260  17.178 -24.497  0.00  0.00     0.259 C 
ATOM      5  O   UNL d   1      29.032  17.792 -25.003  0.00  0.00    -0.267 OA
ATOM      6  H   UNL d   1      30.299  16.499 -23.774  0.00  0.00     0.171 HD
BRANCH   4   7
ATOM      7  C   UNL d   1      28.706  16.638 -24.210  0.00  0.00     0.056 A 
ATOM      8  C   UNL d   1      28.387  16.744 -23.462  0.00  0.00     0.005 A 
ATOM      9  C   UNL d   1      27.829  16.197 -23.178  0.00  0.00     0.000 A 
ATOM     10  C   UNL d   1      27.598  15.553 -23.645  0.00  0.00     0.000 A 
ATOM     11  C   UNL d   1      27.926  15.453 -24.401  0.00  0.00     0.000 A 
ATOM     12  C   UNL d   1      28.488  16.003 -24.687  0.00  0.00     0.005 A 
ENDBRANCH   4   7
ENDBRANCH   1   3
BRANCH   1  13
ATOM     13  N   UNL d   1      31.412  17.568 -24.341  0.00  0.00    -0.330 N 
ATOM     14  H   UNL d   1      31.710  16.826 -24.146  0.00  0.00     0.168 HD
BRANCH  13  15
ATOM     15  C   UNL d   1      31.892  18.225 -24.321  0.00  0.00     0.074 C 
BRANCH  15  16
ATOM     16  C   UNL d   1      32.349  18.387 -23.632  0.00  0.00     0.017 A 
ATOM     17  C   UNL d   1      32.790  17.789 -23.286  0.00  0.00     0.002 A 
ATOM     18  C   UNL d   1      33.233  17.941 -22.621  0.00  0.00     0.000 A 
ATOM     19  C   UNL d   1      33.241  18.694 -22.292  0.00  0.00     0.000 A 
ATOM     20  C   UNL d   1      32.791  19.306 -22.645  0.00  0.00     0.000 A 
ATOM     21  C   UNL d   1      32.348  19.142 -23.314  0.00  0.00     0.002 A 
ENDBRANCH  15  16
ENDBRANCH  13  15
ENDBRANCH   1  13
TORSDOF 5
ENDMDL
