MODEL 1
REMARK VINA RESULT:     104.5      0.000      0.000
REMARK  8 active torsions:
REMARK  status: ('A' for Active; 'I' for Inactive)
REMARK    1  A    between atoms: C_3  and  N_1 
REMARK    2  A    between atoms: C_8  and  N_2 
REMARK    3  A    between atoms: C_6  and  C_3 
REMARK    4  A    between atoms: C_9  and  C_3 
REMARK       I    between atoms: C_4  and  N_7 
REMARK    5  A    between atoms: C_5  and  C_4 
REMARK       I    between atoms: N_10  and  C_5 
REMARK    6  A    between atoms: N_7  and  C_9 
REMARK    7  A    between atoms: C_22  and  N_10 
REMARK    8  A    between atoms: C_24  and  C_22 
ROOT
ATOM      1  C   UNL d   1     -55.554-100.041 -43.244  0.00  0.00     0.106 C 
ENDROOT
BRANCH   1   2
ATOM      2  N   UNL d   1     -55.415-100.449 -42.532  0.00  0.00    -0.298 N 
ATOM      3  C   UNL d   1     -55.194-100.024 -41.860  0.00  0.00     0.100 A 
ATOM      4  C   UNL d   1     -55.054-100.418 -41.149  0.00  0.00     0.100 A 
ATOM      5  N   UNL d   1     -55.135-101.238 -41.110  0.00  0.00    -0.299 N 
ATOM      6  C   UNL d   1     -55.355-101.659 -41.782  0.00  0.00     0.100 A 
ATOM      7  C   UNL d   1     -55.496-101.269 -42.493  0.00  0.00     0.100 A 
BRANCH   5   8
ATOM      8  C   UNL d   1     -54.996-101.629 -40.403  0.00  0.00     0.092 A 
ATOM      9  C   UNL d   1     -54.933-102.449 -40.386  0.00  0.00     0.156 A 
ATOM     10  F   UNL d   1     -55.010-102.880 -41.086  0.00  0.00    -0.203 F 
ATOM     11  C   UNL d   1     -54.793-102.844 -39.678  0.00  0.00     0.031 A 
ATOM     12  C   UNL d   1     -54.715-102.413 -38.978  0.00  0.00     0.002 A 
ATOM     13  C   UNL d   1     -54.778-101.587 -38.993  0.00  0.00     0.002 A 
ATOM     14  C   UNL d   1     -54.918-101.198 -39.704  0.00  0.00     0.020 A 
ENDBRANCH   5   8
ENDBRANCH   1   2
BRANCH   1  15
ATOM     15  C   UNL d   1     -55.451-100.418 -43.970  0.00  0.00     0.118 A 
ATOM     16  O   UNL d   1     -55.876-101.019 -44.357  0.00  0.00    -0.304 OA
ATOM     17  C   UNL d   1     -55.513-101.173 -45.072  0.00  0.00     0.123 A 
ATOM     18  C   UNL d   1     -54.860-100.674 -45.141  0.00  0.00     0.029 A 
ATOM     19  C   UNL d   1     -54.828-100.210 -44.456  0.00  0.00     0.028 A 
ENDBRANCH   1  15
BRANCH   1  20
ATOM     20  C   UNL d   1     -55.798 -99.245 -43.221  0.00  0.00     0.122 C 
BRANCH  20  21
ATOM     21  N   UNL d   1     -56.514 -99.023 -43.567  0.00  0.00    -0.201 NA
ATOM     22  C   UNL d   1     -57.235 -99.242 -43.224  0.00  0.00     0.337 C 
ATOM     23  O   UNL d   1     -57.232 -99.686 -42.530  0.00  0.00    -0.260 OA
BRANCH  22  24
ATOM     24  C   UNL d   1     -57.939 -99.020 -43.570  0.00  0.00     0.337 C 
ATOM     25  N   UNL d   1     -58.000 -98.980 -44.393  0.00  0.00    -0.202 NA
ATOM     26  O   UNL d   1     -58.591 -98.836 -43.098  0.00  0.00    -0.260 OA
BRANCH  25  27
ATOM     27  C   UNL d   1     -58.713 -98.756 -44.743  0.00  0.00     0.102 C 
BRANCH  27  28
ATOM     28  C   UNL d   1     -59.059 -99.233 -45.314  0.00  0.00     0.019 A 
ATOM     29  C   UNL d   1     -59.057-100.053 -45.226  0.00  0.00     0.002 A 
ATOM     30  C   UNL d   1     -59.401-100.530 -45.794  0.00  0.00     0.000 A 
ATOM     31  C   UNL d   1     -59.757-100.188 -46.466  0.00  0.00     0.000 A 
ATOM     32  C   UNL d   1     -59.759 -99.368 -46.554  0.00  0.00     0.000 A 
ATOM     33  C   UNL d   1     -59.411 -98.891 -45.978  0.00  0.00     0.002 A 
ENDBRANCH  27  28
ENDBRANCH  25  27
ENDBRANCH  22  24
ENDBRANCH  20  21
ENDBRANCH   1  20
TORSDOF 8
ENDMDL
