MODEL 1
REMARK VINA RESULT:      16.8      0.000      0.000
REMARK  3 active torsions:
REMARK  status: ('A' for Active; 'I' for Inactive)
REMARK    1  A    between atoms: C_2  and  S_1 
REMARK    2  A    between atoms: N_3  and  S_1 
REMARK    3  A    between atoms: O_17  and  C_7 
ROOT
ATOM      1  S   UNL d   1      46.096 -17.991  43.551  0.00  0.00     0.273 S 
ATOM      2  O   UNL d   1      45.561 -17.815  42.928  0.00  0.00    -0.200 OA
ATOM      3  O   UNL d   1      46.628 -18.170  44.166  0.00  0.00    -0.200 OA
ENDROOT
BRANCH   1   4
ATOM      4  C   UNL d   1      46.282 -18.733  43.183  0.00  0.00     0.127 A 
ATOM      5  C   UNL d   1      46.368 -18.757  42.371  0.00  0.00     0.026 A 
ATOM      6  C   UNL d   1      46.549 -19.469  41.992  0.00  0.00     0.059 A 
ATOM      7 CL   UNL d   1      46.636 -19.488  41.165  0.00  0.00    -0.082 Cl
ATOM      8  C   UNL d   1      46.644 -20.170  42.438  0.00  0.00     0.013 A 
ATOM      9  C   UNL d   1      46.552 -20.128  43.273  0.00  0.00     0.026 A 
ATOM     10  C   UNL d   1      46.372 -19.411  43.637  0.00  0.00     0.106 A 
BRANCH  10  11
ATOM     11  O   UNL d   1      46.285 -19.392  44.465  0.00  0.00    -0.327 OA
ATOM     12  C   UNL d   1      46.525 -20.040  44.919  0.00  0.00     0.181 C 
ENDBRANCH  10  11
ENDBRANCH   1   4
BRANCH   1  13
ATOM     13  N   UNL d   1      45.923 -17.272  43.917  0.00  0.00    -0.226 N 
ATOM     14  C   UNL d   1      45.387 -17.224  44.535  0.00  0.00     0.111 A 
ATOM     15  C   UNL d   1      45.214 -16.505  44.901  0.00  0.00     0.100 A 
ATOM     16  N   UNL d   1      45.584 -15.815  44.646  0.00  0.00    -0.299 N 
ATOM     17  C   UNL d   1      46.124 -15.858  44.026  0.00  0.00     0.100 A 
ATOM     18  C   UNL d   1      45.438 -15.291  44.936  0.00  0.00     0.100 C 
ATOM     19  C   UNL d   1      46.294 -16.578  43.663  0.00  0.00     0.111 A 
ENDBRANCH   1  13
TORSDOF 3
ENDMDL
