MODEL 1
REMARK VINA RESULT:      -5.8      0.000      0.000
REMARK  5 active torsions:
REMARK  status: ('A' for Active; 'I' for Inactive)
REMARK    1  A    between atoms: C_11  and  N_1 
REMARK    2  A    between atoms: C_5  and  C_3 
REMARK       I    between atoms: N_14  and  C_5 
REMARK    3  A    between atoms: N_7  and  C_18 
REMARK    4  A    between atoms: C_17  and  N_14 
REMARK    5  A    between atoms: C_18  and  C_17 
ROOT
ATOM      1  C   UNL d   1     -41.501-122.374 -52.161  0.00  0.00     0.281 C 
ATOM      2  O   UNL d   1     -41.593-121.597 -51.907  0.00  0.00    -0.265 OA
ATOM      3  N   UNL d   1     -41.400-122.972 -51.610  0.00  0.00    -0.205 NA
ENDROOT
BRANCH   1   4
ATOM      4  C   UNL d   1     -41.511-122.549 -52.972  0.00  0.00     0.080 A 
ATOM      5  C   UNL d   1     -41.827-122.072 -53.567  0.00  0.00     0.088 A 
ATOM      6  N   UNL d   1     -41.715-122.463 -54.285  0.00  0.00    -0.273 N 
ATOM      7  C   UNL d   1     -41.333-123.174 -54.137  0.00  0.00     0.265 A 
ATOM      8  C   UNL d   1     -41.205-123.229 -53.322  0.00  0.00     0.067 A 
ATOM      9  O   UNL d   1     -41.130-123.711 -54.735  0.00  0.00    -0.267 OA
BRANCH   6  10
ATOM     10  C   UNL d   1     -41.947-122.185 -55.027  0.00  0.00     0.067 A 
ATOM     11  C   UNL d   1     -41.476-121.744 -55.544  0.00  0.00     0.018 A 
ATOM     12  C   UNL d   1     -41.925-121.585 -56.217  0.00  0.00     0.002 A 
ATOM     13  C   UNL d   1     -42.667-121.929 -56.110  0.00  0.00     0.002 A 
ATOM     14  C   UNL d   1     -42.685-122.297 -55.382  0.00  0.00     0.018 A 
ENDBRANCH   6  10
ENDBRANCH   1   4
BRANCH   3  15
ATOM     15  C   UNL d   1     -41.391-122.799 -50.808  0.00  0.00     0.121 C 
BRANCH  15  16
ATOM     16  C   UNL d   1     -41.125-123.352 -50.263  0.00  0.00     0.101 C 
BRANCH  16  17
ATOM     17  N   UNL d   1     -41.514-123.420 -49.533  0.00  0.00    -0.301 N 
ATOM     18  C   UNL d   1     -41.142-123.156 -48.848  0.00  0.00     0.080 A 
ATOM     19  C   UNL d   1     -41.534-123.226 -48.123  0.00  0.00     0.018 A 
ATOM     20  C   UNL d   1     -41.173-122.966 -47.436  0.00  0.00     0.002 A 
ATOM     21  C   UNL d   1     -42.287-123.555 -48.086  0.00  0.00     0.003 A 
ATOM     22  C   UNL d   1     -41.555-123.032 -46.716  0.00  0.00     0.000 A 
ATOM     23  C   UNL d   1     -42.313-123.363 -46.676  0.00  0.00     0.000 A 
ATOM     24  C   UNL d   1     -42.681-123.626 -47.364  0.00  0.00     0.000 A 
ATOM     25  C   UNL d   1     -42.653-123.817 -48.779  0.00  0.00     0.019 A 
ATOM     26  C   UNL d   1     -42.266-123.750 -49.509  0.00  0.00     0.080 A 
ENDBRANCH  16  17
ENDBRANCH  15  16
ENDBRANCH   3  15
TORSDOF 5
ENDMDL
MODEL 2
REMARK VINA RESULT:      -5.1      1.220      6.216
REMARK  5 active torsions:
REMARK  status: ('A' for Active; 'I' for Inactive)
REMARK    1  A    between atoms: C_11  and  N_1 
REMARK    2  A    between atoms: C_5  and  C_3 
REMARK       I    between atoms: N_14  and  C_5 
REMARK    3  A    between atoms: N_7  and  C_18 
REMARK    4  A    between atoms: C_17  and  N_14 
REMARK    5  A    between atoms: C_18  and  C_17 
ROOT
ATOM      1  C   UNL d   1     -42.345-122.448 -50.680  0.00  0.00     0.281 C 
ATOM      2  O   UNL d   1     -42.933-121.968 -50.998  0.00  0.00    -0.265 OA
ATOM      3  N   UNL d   1     -41.678-122.622 -51.124  0.00  0.00    -0.205 NA
ENDROOT
BRANCH   1   4
ATOM      4  C   UNL d   1     -42.429-122.753 -49.913  0.00  0.00     0.080 A 
ATOM      5  C   UNL d   1     -41.888-122.667 -49.295  0.00  0.00     0.088 A 
ATOM      6  N   UNL d   1     -42.198-123.058 -48.638  0.00  0.00    -0.273 N 
ATOM      7  C   UNL d   1     -42.922-123.383 -48.845  0.00  0.00     0.265 A 
ATOM      8  C   UNL d   1     -43.067-123.195 -49.637  0.00  0.00     0.067 A 
ATOM      9  O   UNL d   1     -43.391-123.817 -48.318  0.00  0.00    -0.267 OA
BRANCH   6  10
ATOM     10  C   UNL d   1     -41.839-123.113 -47.896  0.00  0.00     0.067 A 
ATOM     11  C   UNL d   1     -41.428-123.770 -47.609  0.00  0.00     0.018 A 
ATOM     12  C   UNL d   1     -41.163-123.588 -46.850  0.00  0.00     0.002 A 
ATOM     13  C   UNL d   1     -41.412-122.821 -46.676  0.00  0.00     0.002 A 
ATOM     14  C   UNL d   1     -41.827-122.526 -47.314  0.00  0.00     0.018 A 
ENDBRANCH   6  10
ENDBRANCH   1   4
BRANCH   3  15
ATOM     15  C   UNL d   1     -41.596-122.320 -51.882  0.00  0.00     0.121 C 
BRANCH  15  16
ATOM     16  C   UNL d   1     -41.123-122.699 -52.435  0.00  0.00     0.101 C 
BRANCH  16  17
ATOM     17  N   UNL d   1     -41.385-122.758 -53.221  0.00  0.00    -0.301 N 
ATOM     18  C   UNL d   1     -41.636-122.082 -53.617  0.00  0.00     0.080 A 
ATOM     19  C   UNL d   1     -41.896-122.147 -54.399  0.00  0.00     0.018 A 
ATOM     20  C   UNL d   1     -42.148-121.481 -54.803  0.00  0.00     0.002 A 
ATOM     21  C   UNL d   1     -41.905-122.877 -54.778  0.00  0.00     0.003 A 
ATOM     22  C   UNL d   1     -42.406-121.537 -55.577  0.00  0.00     0.000 A 
ATOM     23  C   UNL d   1     -42.416-122.271 -55.960  0.00  0.00     0.000 A 
ATOM     24  C   UNL d   1     -42.164-122.945 -55.558  0.00  0.00     0.000 A 
ATOM     25  C   UNL d   1     -41.651-123.551 -54.371  0.00  0.00     0.019 A 
ATOM     26  C   UNL d   1     -41.389-123.493 -53.587  0.00  0.00     0.080 A 
ENDBRANCH  16  17
ENDBRANCH  15  16
ENDBRANCH   3  15
TORSDOF 5
ENDMDL
