MODEL 1
REMARK VINA RESULT:      68.2      0.000      0.000
REMARK  4 active torsions:
REMARK  status: ('A' for Active; 'I' for Inactive)
REMARK    1  A    between atoms: C_4  and  C_1 
REMARK    2  A    between atoms: N_7  and  C_2 
REMARK       I    between atoms: N_8  and  C_4 
REMARK       I    between atoms: C_11  and  N_7 
REMARK    3  A    between atoms: C_13  and  N_8 
REMARK    4  A    between atoms: C_22  and  C_11 
ROOT
ATOM      1  C   UNL d   1     -51.116  26.367  33.472  0.00  0.00     0.175 A 
ATOM      2  C   UNL d   1     -51.359  25.633  33.528  0.00  0.00     0.114 A 
ATOM      3  O   UNL d   1     -50.349  26.356  33.380  0.00  0.00    -0.301 OA
ATOM      4  C   UNL d   1     -50.743  25.169  33.471  0.00  0.00     0.043 A 
ATOM      5  C   UNL d   1     -50.117  25.617  33.379  0.00  0.00     0.102 A 
ATOM      6  C   UNL d   1     -50.669  24.406  33.490  0.00  0.00     0.004 A 
ATOM      7  C   UNL d   1     -49.423  25.299  33.307  0.00  0.00     0.025 A 
ATOM      8  C   UNL d   1     -49.968  24.084  33.417  0.00  0.00     0.000 A 
ATOM      9  C   UNL d   1     -49.348  24.532  33.326  0.00  0.00     0.002 A 
ENDROOT
BRANCH   1  10
ATOM     10  C   UNL d   1     -51.555  26.991  33.502  0.00  0.00     0.303 C 
ATOM     11  N   UNL d   1     -50.870  28.228  33.996  0.00  0.00    -0.206 NA
ATOM     12  O   UNL d   1     -52.296  27.054  33.310  0.00  0.00    -0.263 OA
BRANCH  11  13
ATOM     13  C   UNL d   1     -50.069  28.197  34.212  0.00  0.00     0.087 A 
ATOM     14  C   UNL d   1     -49.669  28.894  34.423  0.00  0.00     0.046 A 
ATOM     15  C   UNL d   1     -48.872  28.863  34.638  0.00  0.00     0.124 A 
ATOM     16  O   UNL d   1     -48.466  29.559  34.851  0.00  0.00    -0.301 OA
ATOM     17  C   UNL d   1     -48.456  28.136  34.648  0.00  0.00     0.123 A 
ATOM     18  C   UNL d   1     -47.668  29.529  35.067  0.00  0.00     0.149 A 
ATOM     19  C   UNL d   1     -47.263  28.806  35.074  0.00  0.00     0.149 A 
ATOM     20  O   UNL d   1     -47.670  28.098  34.859  0.00  0.00    -0.301 OA
ATOM     21  C   UNL d   1     -48.863  27.440  34.434  0.00  0.00     0.028 A 
ATOM     22  C   UNL d   1     -49.675  27.471  34.215  0.00  0.00     0.021 A 
ENDBRANCH  11  13
ENDBRANCH   1  10
BRANCH   2  23
ATOM     23  N   UNL d   1     -52.092  25.410  33.625  0.00  0.00    -0.206 NA
ATOM     24  C   UNL d   1     -52.302  24.613  33.521  0.00  0.00     0.279 C 
ATOM     25  O   UNL d   1     -51.720  24.050  33.310  0.00  0.00    -0.265 OA
BRANCH  24  26
ATOM     26  C   UNL d   1     -53.097  24.375  33.627  0.00  0.00     0.062 C 
ATOM     27  C   UNL d   1     -53.275  23.578  33.746  0.00  0.00     0.005 C 
ENDBRANCH  24  26
ENDBRANCH   2  23
TORSDOF 4
ENDMDL
MODEL 2
REMARK VINA RESULT:      70.4      2.394      2.946
REMARK  4 active torsions:
REMARK  status: ('A' for Active; 'I' for Inactive)
REMARK    1  A    between atoms: C_4  and  C_1 
REMARK    2  A    between atoms: N_7  and  C_2 
REMARK       I    between atoms: N_8  and  C_4 
REMARK       I    between atoms: C_11  and  N_7 
REMARK    3  A    between atoms: C_13  and  N_8 
REMARK    4  A    between atoms: C_22  and  C_11 
ROOT
ATOM      1  C   UNL d   1     -51.850  25.749  33.799  0.00  0.00     0.175 A 
ATOM      2  C   UNL d   1     -51.568  25.080  33.529  0.00  0.00     0.114 A 
ATOM      3  O   UNL d   1     -51.253  26.211  33.958  0.00  0.00    -0.301 OA
ATOM      4  C   UNL d   1     -50.797  25.128  33.520  0.00  0.00     0.043 A 
ATOM      5  C   UNL d   1     -50.600  25.829  33.786  0.00  0.00     0.102 A 
ATOM      6  C   UNL d   1     -50.251  24.632  33.307  0.00  0.00     0.004 A 
ATOM      7  C   UNL d   1     -49.862  26.029  33.838  0.00  0.00     0.025 A 
ATOM      8  C   UNL d   1     -49.505  24.834  33.360  0.00  0.00     0.000 A 
ATOM      9  C   UNL d   1     -49.314  25.531  33.624  0.00  0.00     0.002 A 
ENDROOT
BRANCH   1  10
ATOM     10  C   UNL d   1     -52.588  25.923  33.893  0.00  0.00     0.303 C 
ATOM     11  N   UNL d   1     -52.960  26.401  35.262  0.00  0.00    -0.206 NA
ATOM     12  O   UNL d   1     -53.151  25.880  33.371  0.00  0.00    -0.263 OA
BRANCH  11  13
ATOM     13  C   UNL d   1     -52.378  26.459  35.851  0.00  0.00     0.087 A 
ATOM     14  C   UNL d   1     -52.504  26.111  36.595  0.00  0.00     0.046 A 
ATOM     15  C   UNL d   1     -51.924  26.169  37.181  0.00  0.00     0.124 A 
ATOM     16  O   UNL d   1     -52.045  25.823  37.929  0.00  0.00    -0.301 OA
ATOM     17  C   UNL d   1     -51.205  26.576  37.037  0.00  0.00     0.123 A 
ATOM     18  C   UNL d   1     -51.465  25.881  38.516  0.00  0.00     0.149 A 
ATOM     19  C   UNL d   1     -50.757  26.284  38.367  0.00  0.00     0.149 A 
ATOM     20  O   UNL d   1     -50.630  26.637  37.610  0.00  0.00    -0.301 OA
ATOM     21  C   UNL d   1     -51.085  26.923  36.288  0.00  0.00     0.028 A 
ATOM     22  C   UNL d   1     -51.676  26.864  35.691  0.00  0.00     0.021 A 
ENDBRANCH  11  13
ENDBRANCH   1  10
BRANCH   2  23
ATOM     23  N   UNL d   1     -51.990  24.472  33.307  0.00  0.00    -0.206 NA
ATOM     24  C   UNL d   1     -52.127  23.844  33.834  0.00  0.00     0.279 C 
ATOM     25  O   UNL d   1     -51.808  23.869  34.607  0.00  0.00    -0.265 OA
BRANCH  24  26
ATOM     26  C   UNL d   1     -52.584  23.188  33.589  0.00  0.00     0.062 C 
ATOM     27  C   UNL d   1     -53.404  23.199  33.687  0.00  0.00     0.005 C 
ENDBRANCH  24  26
ENDBRANCH   2  23
TORSDOF 4
ENDMDL
