MODEL 1
REMARK VINA RESULT:       0.7      0.000      0.000
REMARK  9 active torsions:
REMARK  status: ('A' for Active; 'I' for Inactive)
REMARK    1  A    between atoms: N_4  and  C_1 
REMARK       I    between atoms: C_8  and  N_4 
REMARK    2  A    between atoms: C_19  and  N_4 
REMARK    3  A    between atoms: S_6  and  C_11 
REMARK    4  A    between atoms: C_14  and  S_6 
REMARK    5  A    between atoms: C_10  and  C_8 
REMARK    6  A    between atoms: C_11  and  C_10 
REMARK    7  A    between atoms: C_20  and  C_19 
REMARK    8  A    between atoms: C_23  and  C_20 
REMARK    9  A    between atoms: N_21  and  C_23 
ROOT
ATOM      1  N   UNL d   1      32.808  19.726 -22.642  0.00  0.00    -0.253 N 
ATOM      2  C   UNL d   1      32.539  19.892 -21.876  0.00  0.00     0.267 C 
ATOM      3  O   UNL d   1      32.111  19.337 -21.456  0.00  0.00    -0.267 OA
ENDROOT
BRANCH   1   4
ATOM      4  C   UNL d   1      32.636  18.983 -22.980  0.00  0.00     0.182 A 
ATOM      5  N   UNL d   1      31.897  18.739 -23.246  0.00  0.00    -0.222 NA
ATOM      6  C   UNL d   1      31.966  17.965 -23.542  0.00  0.00     0.089 A 
ATOM      7  C   UNL d   1      31.424  17.457 -23.869  0.00  0.00     0.018 A 
ATOM      8  C   UNL d   1      32.754  17.739 -23.453  0.00  0.00     0.050 A 
ATOM      9  C   UNL d   1      31.654  16.705 -24.120  0.00  0.00     0.002 A 
ATOM     10  C   UNL d   1      30.634  17.686 -23.958  0.00  0.00     0.002 C 
ATOM     11  C   UNL d   1      31.114  16.188 -24.451  0.00  0.00     0.000 C 
ATOM     12  C   UNL d   1      32.438  16.481 -24.031  0.00  0.00     0.001 A 
ATOM     13  C   UNL d   1      32.983  17.002 -23.697  0.00  0.00     0.008 A 
ATOM     14  S   UNL d   1      33.173  18.363 -23.106  0.00  0.00    -0.048 SA
ENDBRANCH   1   4
BRANCH   1  15
ATOM     15  C   UNL d   1      33.239  20.286 -23.065  0.00  0.00     0.086 C 
BRANCH  15  16
ATOM     16  C   UNL d   1      32.974  20.533 -23.812  0.00  0.00     0.038 C 
BRANCH  16  17
ATOM     17  C   UNL d   1      33.241  21.248 -24.126  0.00  0.00     0.082 C 
BRANCH  17  18
ATOM     18  N   UNL d   1      32.787  21.647 -24.686  0.00  0.00    -0.300 N 
ATOM     19  C   UNL d   1      33.103  22.293 -25.090  0.00  0.00     0.100 C 
ATOM     20  C   UNL d   1      32.017  21.401 -24.839  0.00  0.00     0.100 C 
ENDBRANCH  17  18
ENDBRANCH  16  17
ENDBRANCH  15  16
ENDBRANCH   1  15
BRANCH   2  21
ATOM     21  C   UNL d   1      32.711  20.631 -21.544  0.00  0.00     0.073 C 
BRANCH  21  22
ATOM     22  C   UNL d   1      32.243  20.909 -20.917  0.00  0.00     0.104 C 
BRANCH  22  23
ATOM     23  S   UNL d   1      32.441  21.611 -20.523  0.00  0.00     0.211 S 
ATOM     24  O   UNL d   1      33.213  21.328 -20.416  0.00  0.00    -0.217 OA
ATOM     25  O   UNL d   1      31.660  21.894 -20.634  0.00  0.00    -0.217 OA
BRANCH  23  26
ATOM     26  C   UNL d   1      32.639  22.311 -20.132  0.00  0.00     0.088 A 
ATOM     27  C   UNL d   1      32.932  22.945 -20.560  0.00  0.00     0.011 A 
ATOM     28  C   UNL d   1      33.132  23.651 -20.165  0.00  0.00     0.001 A 
ATOM     29  C   UNL d   1      33.032  23.701 -19.353  0.00  0.00     0.000 A 
ATOM     30  C   UNL d   1      32.740  23.071 -18.924  0.00  0.00     0.001 A 
ATOM     31  C   UNL d   1      32.543  22.372 -19.315  0.00  0.00     0.011 A 
ENDBRANCH  23  26
ENDBRANCH  22  23
ENDBRANCH  21  22
ENDBRANCH   2  21
TORSDOF 9
ENDMDL
MODEL 2
REMARK VINA RESULT:       0.9      1.105      5.342
REMARK  9 active torsions:
REMARK  status: ('A' for Active; 'I' for Inactive)
REMARK    1  A    between atoms: N_4  and  C_1 
REMARK       I    between atoms: C_8  and  N_4 
REMARK    2  A    between atoms: C_19  and  N_4 
REMARK    3  A    between atoms: S_6  and  C_11 
REMARK    4  A    between atoms: C_14  and  S_6 
REMARK    5  A    between atoms: C_10  and  C_8 
REMARK    6  A    between atoms: C_11  and  C_10 
REMARK    7  A    between atoms: C_20  and  C_19 
REMARK    8  A    between atoms: C_23  and  C_20 
REMARK    9  A    between atoms: N_21  and  C_23 
ROOT
ATOM      1  N   UNL d   1      32.901  21.052 -22.347  0.00  0.00    -0.253 N 
ATOM      2  C   UNL d   1      32.675  20.261 -22.248  0.00  0.00     0.267 C 
ATOM      3  O   UNL d   1      32.369  20.003 -21.537  0.00  0.00    -0.267 OA
ENDROOT
BRANCH   1   4
ATOM      4  C   UNL d   1      32.812  21.582 -21.710  0.00  0.00     0.182 A 
ATOM      5  N   UNL d   1      33.016  21.428 -20.928  0.00  0.00    -0.222 NA
ATOM      6  C   UNL d   1      32.838  22.101 -20.473  0.00  0.00     0.089 A 
ATOM      7  C   UNL d   1      32.922  22.259 -19.681  0.00  0.00     0.018 A 
ATOM      8  C   UNL d   1      32.523  22.666 -20.983  0.00  0.00     0.050 A 
ATOM      9  C   UNL d   1      32.694  22.991 -19.374  0.00  0.00     0.002 A 
ATOM     10  C   UNL d   1      33.238  21.690 -19.170  0.00  0.00     0.002 C 
ATOM     11  C   UNL d   1      32.775  23.157 -18.578  0.00  0.00     0.000 C 
ATOM     12  C   UNL d   1      32.381  23.553 -19.883  0.00  0.00     0.001 A 
ATOM     13  C   UNL d   1      32.298  23.384 -20.686  0.00  0.00     0.008 A 
ATOM     14  S   UNL d   1      32.505  22.352 -21.749  0.00  0.00    -0.048 SA
ENDBRANCH   1   4
BRANCH   1  15
ATOM     15  C   UNL d   1      33.210  21.313 -23.065  0.00  0.00     0.086 C 
BRANCH  15  16
ATOM     16  C   UNL d   1      32.892  21.987 -23.431  0.00  0.00     0.038 C 
BRANCH  16  17
ATOM     17  C   UNL d   1      33.240  22.283 -24.118  0.00  0.00     0.082 C 
BRANCH  17  18
ATOM     18  N   UNL d   1      32.792  22.725 -24.650  0.00  0.00    -0.300 N 
ATOM     19  C   UNL d   1      32.085  22.422 -24.948  0.00  0.00     0.100 C 
ATOM     20  C   UNL d   1      33.052  23.471 -24.883  0.00  0.00     0.100 C 
ENDBRANCH  17  18
ENDBRANCH  16  17
ENDBRANCH  15  16
ENDBRANCH   1  15
BRANCH   2  21
ATOM     21  C   UNL d   1      32.765  19.737 -22.883  0.00  0.00     0.073 C 
BRANCH  21  22
ATOM     22  C   UNL d   1      32.878  18.930 -22.726  0.00  0.00     0.104 C 
BRANCH  22  23
ATOM     23  S   UNL d   1      32.705  18.361 -23.303  0.00  0.00     0.211 S 
ATOM     24  O   UNL d   1      33.240  18.728 -23.819  0.00  0.00    -0.217 OA
ATOM     25  O   UNL d   1      32.164  17.993 -22.779  0.00  0.00    -0.217 OA
BRANCH  23  26
ATOM     26  C   UNL d   1      32.532  17.794 -23.879  0.00  0.00     0.088 A 
ATOM     27  C   UNL d   1      31.824  17.384 -23.842  0.00  0.00     0.011 A 
ATOM     28  C   UNL d   1      31.650  16.812 -24.423  0.00  0.00     0.001 A 
ATOM     29  C   UNL d   1      32.190  16.668 -25.022  0.00  0.00     0.000 A 
ATOM     30  C   UNL d   1      32.897  17.075 -25.061  0.00  0.00     0.001 A 
ATOM     31  C   UNL d   1      33.069  17.641 -24.486  0.00  0.00     0.011 A 
ENDBRANCH  23  26
ENDBRANCH  22  23
ENDBRANCH  21  22
ENDBRANCH   2  21
TORSDOF 9
ENDMDL
