MODEL 1
REMARK VINA RESULT:       3.2      0.000      0.000
REMARK  7 active torsions:
REMARK  status: ('A' for Active; 'I' for Inactive)
REMARK    1  A    between atoms: C_7  and  C_1 
REMARK    2  A    between atoms: C_8  and  C_3 
REMARK    3  A    between atoms: O_17  and  C_7 
REMARK    4  A    between atoms: N_11  and  C_10 
REMARK    5  A    between atoms: C_19  and  N_11 
REMARK    6  A    between atoms: C_20  and  N_11 
REMARK    7  A    between atoms: C_21  and  O_17 
ROOT
ATOM      1  C   UNL d   1     -42.842-122.910 -49.343  0.00  0.00     0.099 A 
ATOM      2  C   UNL d   1     -43.052-122.904 -48.559  0.00  0.00     0.093 A 
ATOM      3  C   UNL d   1     -42.056-123.083 -49.572  0.00  0.00     0.093 A 
ATOM      4  C   UNL d   1     -41.696-123.241 -48.215  0.00  0.00     0.369 A 
ATOM      5  N   UNL d   1     -42.482-123.069 -47.986  0.00  0.00    -0.191 NA
ATOM      6  N   UNL d   1     -41.491-123.246 -49.014  0.00  0.00    -0.191 NA
ATOM      7  O   UNL d   1     -41.123-123.408 -47.628  0.00  0.00    -0.242 OA
ATOM      8  C   UNL d   1     -43.828-122.734 -48.333  0.00  0.00     0.021 C 
ENDROOT
BRANCH   3   9
ATOM      9  C   UNL d   1     -41.851-123.087 -50.372  0.00  0.00     0.018 A 
ATOM     10  C   UNL d   1     -41.567-122.401 -50.729  0.00  0.00     0.003 A 
ATOM     11  C   UNL d   1     -41.362-122.406 -51.528  0.00  0.00     0.018 A 
ATOM     12  C   UNL d   1     -41.437-123.090 -51.980  0.00  0.00     0.064 A 
ATOM     13  C   UNL d   1     -41.722-123.776 -51.623  0.00  0.00     0.018 A 
ATOM     14  C   UNL d   1     -41.926-123.771 -50.824  0.00  0.00     0.003 A 
BRANCH  12  15
ATOM     15  N   UNL d   1     -41.225-123.084 -52.798  0.00  0.00    -0.304 N 
BRANCH  15  16
ATOM     16  C   UNL d   1     -41.123-123.787 -53.205  0.00  0.00     0.080 C 
ATOM     17  C   UNL d   1     -41.147-123.799 -54.026  0.00  0.00     0.021 C 
ENDBRANCH  15  16
BRANCH  15  18
ATOM     18  C   UNL d   1     -41.124-122.367 -53.173  0.00  0.00     0.080 C 
ATOM     19  C   UNL d   1     -41.372-122.282 -53.944  0.00  0.00     0.021 C 
ENDBRANCH  15  18
ENDBRANCH  12  15
ENDBRANCH   3   9
BRANCH   1  20
ATOM     20  C   UNL d   1     -43.431-122.740 -49.927  0.00  0.00     0.303 C 
ATOM     21  O   UNL d   1     -43.786-123.360 -50.339  0.00  0.00    -0.259 OA
BRANCH  20  22
ATOM     22  O   UNL d   1     -43.648-121.963 -50.084  0.00  0.00    -0.271 OA
BRANCH  22  23
ATOM     23  C   UNL d   1     -44.362-121.803 -50.464  0.00  0.00     0.126 C 
ATOM     24  C   UNL d   1     -44.706-121.054 -50.401  0.00  0.00     0.029 C 
ENDBRANCH  22  23
ENDBRANCH  20  22
ENDBRANCH   1  20
TORSDOF 7
ENDMDL
MODEL 2
REMARK VINA RESULT:       5.3      1.310      3.902
REMARK  7 active torsions:
REMARK  status: ('A' for Active; 'I' for Inactive)
REMARK    1  A    between atoms: C_7  and  C_1 
REMARK    2  A    between atoms: C_8  and  C_3 
REMARK    3  A    between atoms: O_17  and  C_7 
REMARK    4  A    between atoms: N_11  and  C_10 
REMARK    5  A    between atoms: C_19  and  N_11 
REMARK    6  A    between atoms: C_20  and  N_11 
REMARK    7  A    between atoms: C_21  and  O_17 
ROOT
ATOM      1  C   UNL d   1     -42.130-122.226 -51.399  0.00  0.00     0.099 A 
ATOM      2  C   UNL d   1     -42.123-122.037 -52.188  0.00  0.00     0.093 A 
ATOM      3  C   UNL d   1     -41.801-122.948 -51.131  0.00  0.00     0.093 A 
ATOM      4  C   UNL d   1     -41.460-123.285 -52.460  0.00  0.00     0.369 A 
ATOM      5  N   UNL d   1     -41.789-122.563 -52.728  0.00  0.00    -0.191 NA
ATOM      6  N   UNL d   1     -41.471-123.470 -51.657  0.00  0.00    -0.191 NA
ATOM      7  O   UNL d   1     -41.123-123.815 -53.014  0.00  0.00    -0.242 OA
ATOM      8  C   UNL d   1     -42.448-121.324 -52.452  0.00  0.00     0.021 C 
ENDROOT
BRANCH   3   9
ATOM      9  C   UNL d   1     -41.812-123.132 -50.327  0.00  0.00     0.018 A 
ATOM     10  C   UNL d   1     -42.424-123.588 -50.016  0.00  0.00     0.003 A 
ATOM     11  C   UNL d   1     -42.435-123.772 -49.213  0.00  0.00     0.018 A 
ATOM     12  C   UNL d   1     -41.840-123.508 -48.709  0.00  0.00     0.064 A 
ATOM     13  C   UNL d   1     -41.228-123.052 -49.020  0.00  0.00     0.018 A 
ATOM     14  C   UNL d   1     -41.217-122.868 -49.823  0.00  0.00     0.003 A 
BRANCH  12  15
ATOM     15  N   UNL d   1     -41.860-123.702 -47.887  0.00  0.00    -0.304 N 
BRANCH  15  16
ATOM     16  C   UNL d   1     -42.576-123.817 -47.506  0.00  0.00     0.080 C 
ATOM     17  C   UNL d   1     -42.947-123.193 -47.122  0.00  0.00     0.021 C 
ENDBRANCH  15  16
BRANCH  15  18
ATOM     18  C   UNL d   1     -41.157-123.773 -47.482  0.00  0.00     0.080 C 
ATOM     19  C   UNL d   1     -41.127-123.566 -46.695  0.00  0.00     0.021 C 
ENDBRANCH  15  18
ENDBRANCH  12  15
ENDBRANCH   3   9
BRANCH   1  20
ATOM     20  C   UNL d   1     -42.474-121.683 -50.849  0.00  0.00     0.303 C 
ATOM     21  O   UNL d   1     -42.003-121.100 -50.503  0.00  0.00    -0.259 OA
BRANCH  20  22
ATOM     22  O   UNL d   1     -43.272-121.733 -50.659  0.00  0.00    -0.271 OA
BRANCH  22  23
ATOM     23  C   UNL d   1     -43.624-121.148 -50.196  0.00  0.00     0.126 C 
ATOM     24  C   UNL d   1     -44.347-121.294 -49.823  0.00  0.00     0.029 C 
ENDBRANCH  22  23
ENDBRANCH  20  22
ENDBRANCH   1  20
TORSDOF 7
ENDMDL
