MODEL 1
REMARK VINA RESULT:      25.3      0.000      0.000
REMARK  3 active torsions:
REMARK  status: ('A' for Active; 'I' for Inactive)
REMARK    1  A    between atoms: C_2  and  C_1 
REMARK    2  A    between atoms: C_4  and  C_1 
REMARK       I    between atoms: N_3  and  C_2 
REMARK    3  A    between atoms: C_6  and  N_5 
ROOT
ATOM      1  C   UNL d   1      46.212 -18.500  44.227  0.00  0.00     0.253 C 
ATOM      2  N   UNL d   1      46.014 -17.700  44.244  0.00  0.00    -0.272 N 
ATOM      3  N   UNL d   1      45.667 -16.113  44.360  0.00  0.00    -0.299 N 
ATOM      4  O   UNL d   1      46.646 -18.830  44.841  0.00  0.00    -0.271 OA
ATOM      5  C   UNL d   1      46.265 -17.260  44.890  0.00  0.00     0.102 A 
ATOM      6  C   UNL d   1      45.591 -17.343  43.661  0.00  0.00     0.102 A 
ATOM      7  C   UNL d   1      46.098 -16.473  44.955  0.00  0.00     0.100 A 
ATOM      8  C   UNL d   1      45.411 -16.543  43.712  0.00  0.00     0.100 A 
ENDROOT
BRANCH   1   9
ATOM      9  C   UNL d   1      45.977 -18.975  43.595  0.00  0.00     0.137 A 
ATOM     10  C   UNL d   1      45.746 -19.444  42.969  0.00  0.00     0.018 A 
ATOM     11  C   UNL d   1      45.261 -20.106  43.103  0.00  0.00     0.119 A 
ATOM     12  O   UNL d   1      45.016 -20.290  43.857  0.00  0.00    -0.304 OA
ATOM     13  C   UNL d   1      45.248 -19.817  44.490  0.00  0.00     0.119 A 
ATOM     14  C   UNL d   1      45.730 -19.158  44.361  0.00  0.00     0.018 A 
BRANCH   9  15
ATOM     15  C   UNL d   1      46.227 -18.788  42.828  0.00  0.00     0.023 A 
ATOM     16  S   UNL d   1      46.330 -19.317  42.197  0.00  0.00    -0.090 SA
ATOM     17  C   UNL d   1      46.585 -18.899  41.535  0.00  0.00     0.035 A 
ATOM     18  C   UNL d   1      46.646 -18.107  41.736  0.00  0.00     0.007 A 
ATOM     19  C   UNL d   1      46.425 -18.035  42.538  0.00  0.00     0.004 A 
ENDBRANCH   9  15
ENDBRANCH   1   9
BRANCH   3  20
ATOM     20  C   UNL d   1      45.489 -15.326  44.408  0.00  0.00     0.092 A 
ATOM     21  C   UNL d   1      44.740 -15.086  44.645  0.00  0.00     0.156 A 
ATOM     22  F   UNL d   1      44.174 -15.635  44.833  0.00  0.00    -0.203 F 
ATOM     23  C   UNL d   1      44.562 -14.294  44.692  0.00  0.00     0.031 A 
ATOM     24  C   UNL d   1      45.132 -13.730  44.503  0.00  0.00     0.002 A 
ATOM     25  C   UNL d   1      45.884 -13.973  44.265  0.00  0.00     0.002 A 
ATOM     26  C   UNL d   1      46.063 -14.777  44.217  0.00  0.00     0.020 A 
ENDBRANCH   3  20
TORSDOF 3
ENDMDL
MODEL 2
REMARK VINA RESULT:      26.0      2.524      5.055
REMARK  3 active torsions:
REMARK  status: ('A' for Active; 'I' for Inactive)
REMARK    1  A    between atoms: C_2  and  C_1 
REMARK    2  A    between atoms: C_4  and  C_1 
REMARK       I    between atoms: N_3  and  C_2 
REMARK    3  A    between atoms: C_6  and  N_5 
ROOT
ATOM      1  C   UNL d   1      44.916 -13.861  44.364  0.00  0.00     0.253 C 
ATOM      2  N   UNL d   1      45.185 -14.610  44.149  0.00  0.00    -0.272 N 
ATOM      3  N   UNL d   1      45.655 -16.126  43.785  0.00  0.00    -0.299 N 
ATOM      4  O   UNL d   1      44.319 -13.782  44.923  0.00  0.00    -0.271 OA
ATOM      5  C   UNL d   1      44.836 -15.257  44.513  0.00  0.00     0.102 A 
ATOM      6  C   UNL d   1      45.766 -14.725  43.606  0.00  0.00     0.102 A 
ATOM      7  C   UNL d   1      45.063 -16.013  44.338  0.00  0.00     0.100 A 
ATOM      8  C   UNL d   1      46.009 -15.486  43.416  0.00  0.00     0.100 A 
ENDROOT
BRANCH   1   9
ATOM      9  C   UNL d   1      45.242 -13.185  44.021  0.00  0.00     0.137 A 
ATOM     10  C   UNL d   1      45.563 -12.518  43.681  0.00  0.00     0.018 A 
ATOM     11  C   UNL d   1      46.271 -12.199  43.979  0.00  0.00     0.119 A 
ATOM     12  O   UNL d   1      46.646 -12.550  44.609  0.00  0.00    -0.304 OA
ATOM     13  C   UNL d   1      46.323 -13.225  44.954  0.00  0.00     0.119 A 
ATOM     14  C   UNL d   1      45.620 -13.545  44.661  0.00  0.00     0.018 A 
BRANCH   9  15
ATOM     15  C   UNL d   1      44.860 -12.828  43.379  0.00  0.00     0.023 A 
ATOM     16  S   UNL d   1      44.064 -12.599  43.341  0.00  0.00    -0.090 SA
ATOM     17  C   UNL d   1      43.916 -12.266  42.603  0.00  0.00     0.035 A 
ATOM     18  C   UNL d   1      44.610 -12.280  42.167  0.00  0.00     0.007 A 
ATOM     19  C   UNL d   1      45.198 -12.628  42.646  0.00  0.00     0.004 A 
ENDBRANCH   9  15
ENDBRANCH   1   9
BRANCH   3  20
ATOM     20  C   UNL d   1      45.896 -16.875  43.596  0.00  0.00     0.092 A 
ATOM     21  C   UNL d   1      46.173 -17.378  44.184  0.00  0.00     0.156 A 
ATOM     22  F   UNL d   1      46.207 -17.130  44.954  0.00  0.00    -0.203 F 
ATOM     23  C   UNL d   1      46.415 -18.130  43.993  0.00  0.00     0.031 A 
ATOM     24  C   UNL d   1      46.383 -18.390  43.211  0.00  0.00     0.002 A 
ATOM     25  C   UNL d   1      46.104 -17.882  42.623  0.00  0.00     0.002 A 
ATOM     26  C   UNL d   1      45.859 -17.119  42.818  0.00  0.00     0.020 A 
ENDBRANCH   3  20
TORSDOF 3
ENDMDL
MODEL 3
REMARK VINA RESULT:      28.3      2.300      4.595
REMARK  3 active torsions:
REMARK  status: ('A' for Active; 'I' for Inactive)
REMARK    1  A    between atoms: C_2  and  C_1 
REMARK    2  A    between atoms: C_4  and  C_1 
REMARK       I    between atoms: N_3  and  C_2 
REMARK    3  A    between atoms: C_6  and  N_5 
ROOT
ATOM      1  C   UNL d   1      45.778 -14.457  44.503  0.00  0.00     0.253 C 
ATOM      2  N   UNL d   1      45.848 -15.263  44.353  0.00  0.00    -0.272 N 
ATOM      3  N   UNL d   1      46.067 -16.858  44.107  0.00  0.00    -0.299 N 
ATOM      4  O   UNL d   1      46.344 -14.070  44.955  0.00  0.00    -0.271 OA
ATOM      5  C   UNL d   1      46.497 -15.653  44.670  0.00  0.00     0.102 A 
ATOM      6  C   UNL d   1      45.314 -15.675  43.916  0.00  0.00     0.102 A 
ATOM      7  C   UNL d   1      46.613 -16.444  44.552  0.00  0.00     0.100 A 
ATOM      8  C   UNL d   1      45.416 -16.479  43.786  0.00  0.00     0.100 A 
ENDROOT
BRANCH   1   9
ATOM      9  C   UNL d   1      45.138 -14.030  44.202  0.00  0.00     0.137 A 
ATOM     10  C   UNL d   1      44.508 -13.608  43.903  0.00  0.00     0.018 A 
ATOM     11  C   UNL d   1      43.732 -13.802  44.132  0.00  0.00     0.119 A 
ATOM     12  O   UNL d   1      43.598 -14.412  44.652  0.00  0.00    -0.304 OA
ATOM     13  C   UNL d   1      44.234 -14.840  44.955  0.00  0.00     0.119 A 
ATOM     14  C   UNL d   1      45.007 -14.650  44.730  0.00  0.00     0.018 A 
BRANCH   9  15
ATOM     15  C   UNL d   1      45.275 -13.409  43.672  0.00  0.00     0.023 A 
ATOM     16  S   UNL d   1      45.376 -12.608  43.863  0.00  0.00    -0.090 SA
ATOM     17  C   UNL d   1      45.498 -12.180  43.169  0.00  0.00     0.035 A 
ATOM     18  C   UNL d   1      45.477 -12.701  42.536  0.00  0.00     0.007 A 
ATOM     19  C   UNL d   1      45.339 -13.464  42.845  0.00  0.00     0.004 A 
ENDBRANCH   9  15
ENDBRANCH   1   9
BRANCH   3  20
ATOM     20  C   UNL d   1      46.166 -17.651  43.978  0.00  0.00     0.092 A 
ATOM     21  C   UNL d   1      46.250 -17.937  43.213  0.00  0.00     0.156 A 
ATOM     22  F   UNL d   1      46.235 -17.429  42.581  0.00  0.00    -0.203 F 
ATOM     23  C   UNL d   1      46.350 -18.733  43.085  0.00  0.00     0.031 A 
ATOM     24  C   UNL d   1      46.367 -19.256  43.722  0.00  0.00     0.002 A 
ATOM     25  C   UNL d   1      46.282 -18.966  44.490  0.00  0.00     0.002 A 
ATOM     26  C   UNL d   1      46.181 -18.158  44.618  0.00  0.00     0.020 A 
ENDBRANCH   3  20
TORSDOF 3
ENDMDL
