MODEL 1
REMARK VINA RESULT:      -8.0      0.000      0.000
REMARK  2 active torsions:
REMARK  status: ('A' for Active; 'I' for Inactive)
REMARK    1  A    between atoms: C_6  and  N_2 
REMARK    2  A    between atoms: C_8  and  C_6 
ROOT
ATOM      1  C   UNL d   1      53.368  32.235  53.493  0.00  0.00     0.151 A 
ATOM      2  N   UNL d   1      53.659  32.976  53.701  0.00  0.00    -0.286 N 
ATOM      3  S   UNL d   1      52.646  32.350  53.131  0.00  0.00    -0.057 SA
ATOM      4  C   UNL d   1      53.121  33.534  53.468  0.00  0.00     0.071 A 
ATOM      5  C   UNL d   1      52.494  33.146  53.116  0.00  0.00     0.048 A 
ATOM      6  S   UNL d   1      53.721  31.507  53.617  0.00  0.00    -0.052 SA
ATOM      7  C   UNL d   1      53.113  34.356  53.529  0.00  0.00     0.018 A 
ATOM      8  C   UNL d   1      51.852  33.577  52.820  0.00  0.00     0.008 A 
ATOM      9  C   UNL d   1      52.474  34.793  53.235  0.00  0.00     0.002 A 
ATOM     10  C   UNL d   1      51.847  34.406  52.883  0.00  0.00     0.001 A 
ENDROOT
BRANCH   2  11
ATOM     11  C   UNL d   1      54.391  33.110  54.087  0.00  0.00     0.152 C 
BRANCH  11  12
ATOM     12  C   UNL d   1      54.426  33.210  54.906  0.00  0.00     0.230 C 
ATOM     13  O   UNL d   1      54.764  33.896  55.228  0.00  0.00    -0.643 OA
ATOM     14  O   UNL d   1      54.128  32.631  55.401  0.00  0.00    -0.643 OA
ENDBRANCH  11  12
ENDBRANCH   2  11
TORSDOF 2
ENDMDL
MODEL 2
REMARK VINA RESULT:      -8.0      1.001      2.092
REMARK  2 active torsions:
REMARK  status: ('A' for Active; 'I' for Inactive)
REMARK    1  A    between atoms: C_6  and  N_2 
REMARK    2  A    between atoms: C_8  and  C_6 
ROOT
ATOM      1  C   UNL d   1      53.156  33.300  53.515  0.00  0.00     0.151 A 
ATOM      2  N   UNL d   1      53.742  32.784  53.772  0.00  0.00    -0.286 N 
ATOM      3  S   UNL d   1      52.581  32.853  53.147  0.00  0.00    -0.057 SA
ATOM      4  C   UNL d   1      53.526  32.032  53.563  0.00  0.00     0.071 A 
ATOM      5  C   UNL d   1      52.808  32.075  53.176  0.00  0.00     0.048 A 
ATOM      6  S   UNL d   1      53.134  34.115  53.601  0.00  0.00    -0.052 SA
ATOM      7  C   UNL d   1      53.890  31.301  53.673  0.00  0.00     0.018 A 
ATOM      8  C   UNL d   1      52.445  31.387  52.895  0.00  0.00     0.008 A 
ATOM      9  C   UNL d   1      53.532  30.607  53.394  0.00  0.00     0.002 A 
ATOM     10  C   UNL d   1      52.814  30.650  53.007  0.00  0.00     0.001 A 
ENDROOT
BRANCH   2  11
ATOM     11  C   UNL d   1      54.437  33.015  54.179  0.00  0.00     0.152 C 
BRANCH  11  12
ATOM     12  C   UNL d   1      54.404  33.266  54.965  0.00  0.00     0.230 C 
ATOM     13  O   UNL d   1      54.551  34.061  55.155  0.00  0.00    -0.643 OA
ATOM     14  O   UNL d   1      54.227  32.731  55.558  0.00  0.00    -0.643 OA
ENDBRANCH  11  12
ENDBRANCH   2  11
TORSDOF 2
ENDMDL
MODEL 3
REMARK VINA RESULT:      -7.7      1.797      2.732
REMARK  2 active torsions:
REMARK  status: ('A' for Active; 'I' for Inactive)
REMARK    1  A    between atoms: C_6  and  N_2 
REMARK    2  A    between atoms: C_8  and  C_6 
ROOT
ATOM      1  C   UNL d   1      52.446  33.857  53.591  0.00  0.00     0.151 A 
ATOM      2  N   UNL d   1      52.708  33.113  53.822  0.00  0.00    -0.286 N 
ATOM      3  S   UNL d   1      52.943  34.407  53.933  0.00  0.00    -0.057 SA
ATOM      4  C   UNL d   1      53.356  33.209  54.298  0.00  0.00     0.071 A 
ATOM      5  C   UNL d   1      53.501  34.010  54.366  0.00  0.00     0.048 A 
ATOM      6  S   UNL d   1      51.808  34.036  53.109  0.00  0.00    -0.052 SA
ATOM      7  C   UNL d   1      53.843  32.669  54.686  0.00  0.00     0.018 A 
ATOM      8  C   UNL d   1      54.135  34.280  54.824  0.00  0.00     0.008 A 
ATOM      9  C   UNL d   1      54.480  32.932  55.146  0.00  0.00     0.002 A 
ATOM     10  C   UNL d   1      54.625  33.734  55.214  0.00  0.00     0.001 A 
ENDROOT
BRANCH   2  11
ATOM     11  C   UNL d   1      52.352  32.389  53.593  0.00  0.00     0.152 C 
BRANCH  11  12
ATOM     12  C   UNL d   1      52.641  31.959  52.951  0.00  0.00     0.230 C 
ATOM     13  O   UNL d   1      52.918  31.184  53.059  0.00  0.00    -0.643 OA
ATOM     14  O   UNL d   1      52.656  32.297  52.206  0.00  0.00    -0.643 OA
ENDBRANCH  11  12
ENDBRANCH   2  11
TORSDOF 2
ENDMDL
MODEL 4
REMARK VINA RESULT:      -7.6      1.847      2.805
REMARK  2 active torsions:
REMARK  status: ('A' for Active; 'I' for Inactive)
REMARK    1  A    between atoms: C_6  and  N_2 
REMARK    2  A    between atoms: C_8  and  C_6 
ROOT
ATOM      1  C   UNL d   1      53.300  33.647  54.325  0.00  0.00     0.151 A 
ATOM      2  N   UNL d   1      52.714  33.400  53.804  0.00  0.00    -0.286 N 
ATOM      3  S   UNL d   1      53.824  33.028  54.413  0.00  0.00    -0.057 SA
ATOM      4  C   UNL d   1      52.880  32.641  53.577  0.00  0.00     0.071 A 
ATOM      5  C   UNL d   1      53.567  32.410  53.955  0.00  0.00     0.048 A 
ATOM      6  S   UNL d   1      53.364  34.373  54.698  0.00  0.00    -0.052 SA
ATOM      7  C   UNL d   1      52.494  32.117  53.071  0.00  0.00     0.018 A 
ATOM      8  C   UNL d   1      53.876  31.653  53.830  0.00  0.00     0.008 A 
ATOM      9  C   UNL d   1      52.798  31.357  52.941  0.00  0.00     0.002 A 
ATOM     10  C   UNL d   1      53.486  31.127  53.319  0.00  0.00     0.001 A 
ENDROOT
BRANCH   2  11
ATOM     11  C   UNL d   1      52.063  33.869  53.560  0.00  0.00     0.152 C 
BRANCH  11  12
ATOM     12  C   UNL d   1      52.108  34.335  52.880  0.00  0.00     0.230 C 
ATOM     13  O   UNL d   1      51.579  34.211  52.254  0.00  0.00    -0.643 OA
ATOM     14  O   UNL d   1      52.676  34.922  52.824  0.00  0.00    -0.643 OA
ENDBRANCH  11  12
ENDBRANCH   2  11
TORSDOF 2
ENDMDL
