MODEL 1
REMARK VINA RESULT:      15.5      0.000      0.000
REMARK  2 active torsions:
REMARK  status: ('A' for Active; 'I' for Inactive)
REMARK    1  A    between atoms: C_6  and  C_3 
REMARK    2  A    between atoms: C_9  and  C_6 
ROOT
ATOM      1  C   UNL d   1      59.490  49.708  50.072  0.00  0.00     0.011 C 
ENDROOT
BRANCH   1   2
ATOM      2  C   UNL d   1      59.993  49.660  50.740  0.00  0.00     0.092 A 
ATOM      3  C   UNL d   1      60.785  49.566  50.761  0.00  0.00     0.288 A 
ATOM      4  N   UNL d   1      61.024  49.551  51.524  0.00  0.00    -0.163 NA
ATOM      5  O   UNL d   1      61.286  49.494  50.063  0.00  0.00    -0.265 OA
ATOM      6  C   UNL d   1      60.325  49.642  51.983  0.00  0.00     0.313 A 
ATOM      7  S   UNL d   1      59.713  49.705  51.464  0.00  0.00    -0.021 SA
ATOM      8  O   UNL d   1      60.299  49.660  52.826  0.00  0.00    -0.258 OA
ENDBRANCH   1   2
BRANCH   1   9
ATOM      9  C   UNL d   1      58.665  49.688  50.113  0.00  0.00     0.001 A 
ATOM     10  C   UNL d   1      58.243  49.651  50.821  0.00  0.00     0.001 A 
ATOM     11  C   UNL d   1      57.440  49.633  50.819  0.00  0.00     0.007 A 
ATOM     12  C   UNL d   1      57.009  49.651  50.090  0.00  0.00     0.035 A 
ATOM     13  C   UNL d   1      57.431  49.687  49.382  0.00  0.00     0.007 A 
ATOM     14 BR   UNL d   1      56.183  49.633  50.069  0.00  0.00    -0.049 Br
ATOM     15  C   UNL d   1      58.271  49.706  49.389  0.00  0.00     0.001 A 
ENDBRANCH   1   9
TORSDOF 2
ENDMDL
MODEL 2
REMARK VINA RESULT:      16.1      2.634      3.378
REMARK  2 active torsions:
REMARK  status: ('A' for Active; 'I' for Inactive)
REMARK    1  A    between atoms: C_6  and  C_3 
REMARK    2  A    between atoms: C_9  and  C_6 
ROOT
ATOM      1  C   UNL d   1      58.088  49.559  49.940  0.00  0.00     0.011 C 
ENDROOT
BRANCH   1   2
ATOM      2  C   UNL d   1      57.322  49.599  50.276  0.00  0.00     0.092 A 
ATOM      3  C   UNL d   1      56.616  49.616  49.905  0.00  0.00     0.288 A 
ATOM      4  N   UNL d   1      56.035  49.656  50.453  0.00  0.00    -0.163 NA
ATOM      5  O   UNL d   1      56.515  49.594  49.049  0.00  0.00    -0.265 OA
ATOM      6  C   UNL d   1      56.427  49.662  51.198  0.00  0.00     0.313 A 
ATOM      7  S   UNL d   1      57.216  49.627  51.046  0.00  0.00    -0.021 SA
ATOM      8  O   UNL d   1      56.040  49.700  51.948  0.00  0.00    -0.258 OA
ENDBRANCH   1   2
BRANCH   1   9
ATOM      9  C   UNL d   1      58.787  49.596  50.379  0.00  0.00     0.001 A 
ATOM     10  C   UNL d   1      58.808  49.673  51.200  0.00  0.00     0.001 A 
ATOM     11  C   UNL d   1      59.509  49.706  51.591  0.00  0.00     0.007 A 
ATOM     12  C   UNL d   1      60.242  49.662  51.168  0.00  0.00     0.035 A 
ATOM     13  C   UNL d   1      60.221  49.586  50.347  0.00  0.00     0.007 A 
ATOM     14 BR   UNL d   1      60.972  49.695  51.555  0.00  0.00    -0.049 Br
ATOM     15  C   UNL d   1      59.485  49.552  49.943  0.00  0.00     0.001 A 
ENDBRANCH   1   9
TORSDOF 2
ENDMDL
MODEL 3
REMARK VINA RESULT:      16.8      0.610      1.536
REMARK  2 active torsions:
REMARK  status: ('A' for Active; 'I' for Inactive)
REMARK    1  A    between atoms: C_6  and  C_3 
REMARK    2  A    between atoms: C_9  and  C_6 
ROOT
ATOM      1  C   UNL d   1      58.889  49.490  51.278  0.00  0.00     0.011 C 
ENDROOT
BRANCH   1   2
ATOM      2  C   UNL d   1      59.678  49.570  51.010  0.00  0.00     0.092 A 
ATOM      3  C   UNL d   1      60.345  49.649  51.441  0.00  0.00     0.288 A 
ATOM      4  N   UNL d   1      60.970  49.707  50.945  0.00  0.00    -0.163 NA
ATOM      5  O   UNL d   1      60.369  49.665  52.303  0.00  0.00    -0.265 OA
ATOM      6  C   UNL d   1      60.648  49.660  50.170  0.00  0.00     0.313 A 
ATOM      7  S   UNL d   1      59.852  49.577  50.252  0.00  0.00    -0.021 SA
ATOM      8  O   UNL d   1      61.098  49.697  49.456  0.00  0.00    -0.258 OA
ENDBRANCH   1   2
BRANCH   1   9
ATOM      9  C   UNL d   1      58.228  49.534  50.785  0.00  0.00     0.001 A 
ATOM     10  C   UNL d   1      58.271  49.671  49.973  0.00  0.00     0.001 A 
ATOM     11  C   UNL d   1      57.603  49.707  49.527  0.00  0.00     0.007 A 
ATOM     12  C   UNL d   1      56.840  49.605  49.882  0.00  0.00     0.035 A 
ATOM     13  C   UNL d   1      56.797  49.469  50.694  0.00  0.00     0.007 A 
ATOM     14 BR   UNL d   1      56.144  49.639  49.439  0.00  0.00    -0.049 Br
ATOM     15  C   UNL d   1      57.499  49.432  51.157  0.00  0.00     0.001 A 
ENDBRANCH   1   9
TORSDOF 2
ENDMDL
