MODEL 1
REMARK VINA RESULT:      -3.4      0.000      0.000
REMARK  3 active torsions:
REMARK  status: ('A' for Active; 'I' for Inactive)
REMARK       I    between atoms: N_2  and  C_1 
REMARK    1  A    between atoms: O_3  and  C_1 
REMARK    2  A    between atoms: C_9  and  O_3 
REMARK    3  A    between atoms: C_5  and  C_6 
ROOT
ATOM      1  C   UNL d   1      32.543  22.233 -21.118  0.00  0.00    -0.023 A 
ATOM      2  C   UNL d   1      32.274  21.538 -20.764  0.00  0.00    -0.002 A 
ATOM      3  C   UNL d   1      33.027  22.194 -21.785  0.00  0.00    -0.002 A 
ATOM      4  C   UNL d   1      32.969  20.775 -21.740  0.00  0.00     0.105 A 
ATOM      5  C   UNL d   1      33.241  21.463 -22.097  0.00  0.00     0.025 A 
ATOM      6  C   UNL d   1      32.488  20.807 -21.076  0.00  0.00     0.025 A 
ENDROOT
BRANCH   4   7
ATOM      7  O   UNL d   1      33.184  20.042 -22.053  0.00  0.00    -0.259 OA
BRANCH   7   8
ATOM      8  C   UNL d   1      32.993  19.836 -22.825  0.00  0.00     0.377 C 
ATOM      9  N   UNL d   1      33.009  19.048 -23.075  0.00  0.00    -0.252 N 
ATOM     10  C   UNL d   1      33.223  18.458 -22.531  0.00  0.00     0.085 A 
ATOM     11  C   UNL d   1      32.817  18.855 -23.846  0.00  0.00     0.085 A 
ATOM     12  C   UNL d   1      33.241  17.673 -22.773  0.00  0.00     0.019 A 
ATOM     13  C   UNL d   1      33.048  17.469 -23.551  0.00  0.00     0.003 A 
ATOM     14  C   UNL d   1      32.835  18.066 -24.093  0.00  0.00     0.019 A 
ATOM     15  O   UNL d   1      32.778  20.450 -23.365  0.00  0.00    -0.237 OA
ENDBRANCH   7   8
ENDBRANCH   4   7
BRANCH   1  16
ATOM     16  C   UNL d   1      32.329  22.967 -20.804  0.00  0.00     0.019 C 
ATOM     17  C   UNL d   1      32.629  23.206 -20.070  0.00  0.00     0.004 C 
ATOM     18  C   UNL d   1      31.817  23.461 -21.222  0.00  0.00     0.004 C 
ATOM     19  C   UNL d   1      32.839  22.635 -20.240  0.00  0.00     0.004 C 
ENDBRANCH   1  16
TORSDOF 3
ENDMDL
MODEL 2
REMARK VINA RESULT:      -3.0      0.450      1.058
REMARK  3 active torsions:
REMARK  status: ('A' for Active; 'I' for Inactive)
REMARK       I    between atoms: N_2  and  C_1 
REMARK    1  A    between atoms: O_3  and  C_1 
REMARK    2  A    between atoms: C_9  and  O_3 
REMARK    3  A    between atoms: C_5  and  C_6 
ROOT
ATOM      1  C   UNL d   1      32.545  22.401 -21.194  0.00  0.00    -0.023 A 
ATOM      2  C   UNL d   1      32.294  21.642 -20.988  0.00  0.00    -0.002 A 
ATOM      3  C   UNL d   1      32.999  22.514 -21.873  0.00  0.00    -0.002 A 
ATOM      4  C   UNL d   1      32.948  21.118 -22.135  0.00  0.00     0.105 A 
ATOM      5  C   UNL d   1      33.201  21.871 -22.345  0.00  0.00     0.025 A 
ATOM      6  C   UNL d   1      32.496  20.999 -21.460  0.00  0.00     0.025 A 
ENDROOT
BRANCH   4   7
ATOM      7  O   UNL d   1      33.151  20.473 -22.609  0.00  0.00    -0.259 OA
BRANCH   7   8
ATOM      8  C   UNL d   1      33.176  19.711 -22.304  0.00  0.00     0.377 C 
ATOM      9  N   UNL d   1      33.196  19.050 -22.800  0.00  0.00    -0.252 N 
ATOM     10  C   UNL d   1      33.191  19.166 -23.622  0.00  0.00     0.085 A 
ATOM     11  C   UNL d   1      33.221  18.297 -22.484  0.00  0.00     0.085 A 
ATOM     12  C   UNL d   1      33.211  18.514 -24.122  0.00  0.00     0.019 A 
ATOM     13  C   UNL d   1      33.236  17.748 -23.811  0.00  0.00     0.003 A 
ATOM     14  C   UNL d   1      33.241  17.638 -22.984  0.00  0.00     0.019 A 
ATOM     15  O   UNL d   1      33.180  19.614 -21.464  0.00  0.00    -0.237 OA
ENDBRANCH   7   8
ENDBRANCH   4   7
BRANCH   1  16
ATOM     16  C   UNL d   1      32.342  23.047 -20.719  0.00  0.00     0.019 C 
ATOM     17  C   UNL d   1      31.799  23.608 -20.995  0.00  0.00     0.004 C 
ATOM     18  C   UNL d   1      32.680  23.133 -19.972  0.00  0.00     0.004 C 
ATOM     19  C   UNL d   1      31.901  23.146 -21.415  0.00  0.00     0.004 C 
ENDBRANCH   1  16
TORSDOF 3
ENDMDL
MODEL 3
REMARK VINA RESULT:      -2.5      0.992      1.522
REMARK  3 active torsions:
REMARK  status: ('A' for Active; 'I' for Inactive)
REMARK       I    between atoms: N_2  and  C_1 
REMARK    1  A    between atoms: O_3  and  C_1 
REMARK    2  A    between atoms: C_9  and  O_3 
REMARK    3  A    between atoms: C_5  and  C_6 
ROOT
ATOM      1  C   UNL d   1      32.998  21.103 -21.853  0.00  0.00    -0.023 A 
ATOM      2  C   UNL d   1      32.904  20.428 -21.389  0.00  0.00    -0.002 A 
ATOM      3  C   UNL d   1      33.166  21.030 -22.657  0.00  0.00    -0.002 A 
ATOM      4  C   UNL d   1      33.146  19.616 -22.529  0.00  0.00     0.105 A 
ATOM      5  C   UNL d   1      33.241  20.284 -22.996  0.00  0.00     0.025 A 
ATOM      6  C   UNL d   1      32.978  19.682 -21.728  0.00  0.00     0.025 A 
ENDROOT
BRANCH   4   7
ATOM      7  O   UNL d   1      33.221  18.867 -22.869  0.00  0.00    -0.259 OA
BRANCH   7   8
ATOM      8  C   UNL d   1      32.578  18.490 -23.215  0.00  0.00     0.377 C 
ATOM      9  N   UNL d   1      32.574  17.671 -23.334  0.00  0.00    -0.252 N 
ATOM     10  C   UNL d   1      33.236  17.228 -23.098  0.00  0.00     0.085 A 
ATOM     11  C   UNL d   1      31.929  17.307 -23.679  0.00  0.00     0.085 A 
ATOM     12  C   UNL d   1      33.239  16.415 -23.213  0.00  0.00     0.019 A 
ATOM     13  C   UNL d   1      32.590  16.038 -23.561  0.00  0.00     0.003 A 
ATOM     14  C   UNL d   1      31.929  16.489 -23.796  0.00  0.00     0.019 A 
ATOM     15  O   UNL d   1      31.915  18.958 -23.449  0.00  0.00    -0.237 OA
ENDBRANCH   7   8
ENDBRANCH   4   7
BRANCH   1  16
ATOM     16  C   UNL d   1      32.923  21.853 -21.512  0.00  0.00     0.019 C 
ATOM     17  C   UNL d   1      32.529  21.941 -20.789  0.00  0.00     0.004 C 
ATOM     18  C   UNL d   1      33.240  22.513 -21.892  0.00  0.00     0.004 C 
ATOM     19  C   UNL d   1      32.544  21.340 -20.982  0.00  0.00     0.004 C 
ENDBRANCH   1  16
TORSDOF 3
ENDMDL
MODEL 4
REMARK VINA RESULT:      -2.2      3.203      4.921
REMARK  3 active torsions:
REMARK  status: ('A' for Active; 'I' for Inactive)
REMARK       I    between atoms: N_2  and  C_1 
REMARK    1  A    between atoms: O_3  and  C_1 
REMARK    2  A    between atoms: C_9  and  O_3 
REMARK    3  A    between atoms: C_5  and  C_6 
ROOT
ATOM      1  C   UNL d   1      32.480  18.387 -23.857  0.00  0.00    -0.023 A 
ATOM      2  C   UNL d   1      32.805  17.644 -23.711  0.00  0.00    -0.002 A 
ATOM      3  C   UNL d   1      31.700  18.451 -24.118  0.00  0.00    -0.002 A 
ATOM      4  C   UNL d   1      31.577  17.036 -24.086  0.00  0.00     0.105 A 
ATOM      5  C   UNL d   1      31.247  17.773 -24.234  0.00  0.00     0.025 A 
ATOM      6  C   UNL d   1      32.353  16.966 -23.826  0.00  0.00     0.025 A 
ENDROOT
BRANCH   4   7
ATOM      7  O   UNL d   1      31.123  16.356 -24.202  0.00  0.00    -0.259 OA
BRANCH   7   8
ATOM      8  C   UNL d   1      30.559  16.122 -23.653  0.00  0.00     0.377 C 
ATOM      9  N   UNL d   1      29.797  15.902 -23.889  0.00  0.00    -0.252 N 
ATOM     10  C   UNL d   1      29.606  15.920 -24.696  0.00  0.00     0.085 A 
ATOM     11  C   UNL d   1      29.244  15.672 -23.334  0.00  0.00     0.085 A 
ATOM     12  C   UNL d   1      28.851  15.703 -24.938  0.00  0.00     0.019 A 
ATOM     13  C   UNL d   1      28.284  15.468 -24.383  0.00  0.00     0.003 A 
ATOM     14  C   UNL d   1      28.483  15.453 -23.573  0.00  0.00     0.019 A 
ATOM     15  O   UNL d   1      30.772  16.110 -22.836  0.00  0.00    -0.237 OA
ENDBRANCH   7   8
ENDBRANCH   4   7
BRANCH   1  16
ATOM     16  C   UNL d   1      32.934  19.068 -23.741  0.00  0.00     0.019 C 
ATOM     17  C   UNL d   1      33.241  19.476 -24.394  0.00  0.00     0.004 C 
ATOM     18  C   UNL d   1      33.082  19.341 -22.977  0.00  0.00     0.004 C 
ATOM     19  C   UNL d   1      32.906  18.968 -24.564  0.00  0.00     0.004 C 
ENDBRANCH   1  16
TORSDOF 3
ENDMDL
MODEL 5
REMARK VINA RESULT:      -2.1      2.897      4.294
REMARK  3 active torsions:
REMARK  status: ('A' for Active; 'I' for Inactive)
REMARK       I    between atoms: N_2  and  C_1 
REMARK    1  A    between atoms: O_3  and  C_1 
REMARK    2  A    between atoms: C_9  and  O_3 
REMARK    3  A    between atoms: C_5  and  C_6 
ROOT
ATOM      1  C   UNL d   1      32.593  23.048 -17.388  0.00  0.00    -0.023 A 
ATOM      2  C   UNL d   1      33.096  22.507 -17.756  0.00  0.00    -0.002 A 
ATOM      3  C   UNL d   1      32.236  23.645 -17.831  0.00  0.00    -0.002 A 
ATOM      4  C   UNL d   1      32.883  23.162 -18.999  0.00  0.00     0.105 A 
ATOM      5  C   UNL d   1      32.382  23.702 -18.639  0.00  0.00     0.025 A 
ATOM      6  C   UNL d   1      33.241  22.564 -18.564  0.00  0.00     0.025 A 
ENDROOT
BRANCH   4   7
ATOM      7  O   UNL d   1      33.029  23.219 -19.810  0.00  0.00    -0.259 OA
BRANCH   7   8
ATOM      8  C   UNL d   1      32.694  22.690 -20.342  0.00  0.00     0.377 C 
ATOM      9  N   UNL d   1      32.750  22.809 -21.158  0.00  0.00    -0.252 N 
ATOM     10  C   UNL d   1      33.153  23.478 -21.439  0.00  0.00     0.085 A 
ATOM     11  C   UNL d   1      32.412  22.276 -21.677  0.00  0.00     0.085 A 
ATOM     12  C   UNL d   1      33.212  23.604 -22.249  0.00  0.00     0.019 A 
ATOM     13  C   UNL d   1      32.873  23.069 -22.782  0.00  0.00     0.003 A 
ATOM     14  C   UNL d   1      32.470  22.399 -22.493  0.00  0.00     0.019 A 
ATOM     15  O   UNL d   1      32.288  22.015 -20.036  0.00  0.00    -0.237 OA
ENDBRANCH   7   8
ENDBRANCH   4   7
BRANCH   1  16
ATOM     16  C   UNL d   1      32.447  22.990 -16.576  0.00  0.00     0.019 C 
ATOM     17  C   UNL d   1      33.007  23.271 -16.035  0.00  0.00     0.004 C 
ATOM     18  C   UNL d   1      31.744  22.654 -16.306  0.00  0.00     0.004 C 
ATOM     19  C   UNL d   1      33.192  23.351 -16.633  0.00  0.00     0.004 C 
ENDBRANCH   1  16
TORSDOF 3
ENDMDL
