MODEL 1
REMARK VINA RESULT:       0.1      0.000      0.000
REMARK  2 active torsions:
REMARK  status: ('A' for Active; 'I' for Inactive)
REMARK       I    between atoms: N_4  and  C_1 
REMARK    1  A    between atoms: C_5  and  C_1 
REMARK       I    between atoms: C_2  and  N_3 
REMARK    2  A    between atoms: C_6  and  C_2 
ROOT
ATOM      1  C   UNL d   1     -41.454-121.818 -50.130  0.00  0.00     0.265 C 
ATOM      2  C   UNL d   1     -41.423-121.795 -53.632  0.00  0.00     0.265 C 
ATOM      3  N   UNL d   1     -41.547-122.092 -52.884  0.00  0.00    -0.270 N 
ATOM      4  N   UNL d   1     -41.515-121.984 -51.028  0.00  0.00    -0.270 N 
ATOM      5  C   UNL d   1     -41.290-121.447 -52.400  0.00  0.00     0.102 A 
ATOM      6  C   UNL d   1     -41.277-121.403 -51.538  0.00  0.00     0.102 A 
ATOM      7  O   UNL d   1     -41.130-121.011 -49.850  0.00  0.00    -0.267 OA
ATOM      8  O   UNL d   1     -41.123-121.055 -53.729  0.00  0.00    -0.267 OA
ATOM      9  C   UNL d   1     -41.914-122.986 -51.958  0.00  0.00     0.038 A 
ATOM     10  C   UNL d   1     -41.775-122.631 -51.226  0.00  0.00     0.085 A 
ATOM     11  C   UNL d   1     -41.836-122.803 -52.618  0.00  0.00     0.085 A 
ENDROOT
BRANCH   2  12
ATOM     12  C   UNL d   1     -41.606-122.259 -54.276  0.00  0.00     0.057 A 
ATOM     13  C   UNL d   1     -42.182-122.014 -54.776  0.00  0.00     0.005 A 
ATOM     14  C   UNL d   1     -42.372-122.470 -55.423  0.00  0.00     0.000 A 
ATOM     15  C   UNL d   1     -42.952-122.236 -55.940  0.00  0.00     0.000 C 
ATOM     16  C   UNL d   1     -41.978-123.168 -55.553  0.00  0.00     0.000 A 
ATOM     17  C   UNL d   1     -41.398-123.408 -55.041  0.00  0.00     0.000 A 
ATOM     18  C   UNL d   1     -41.212-122.953 -54.402  0.00  0.00     0.005 A 
ENDBRANCH   2  12
BRANCH   1  19
ATOM     19  C   UNL d   1     -41.727-122.487 -49.568  0.00  0.00     0.057 A 
ATOM     20  C   UNL d   1     -42.590-122.529 -49.304  0.00  0.00     0.005 A 
ATOM     21  C   UNL d   1     -42.864-123.192 -48.746  0.00  0.00     0.000 A 
ATOM     22  C   UNL d   1     -43.724-123.253 -48.469  0.00  0.00     0.000 C 
ATOM     23  C   UNL d   1     -42.267-123.817 -48.451  0.00  0.00     0.000 A 
ATOM     24  C   UNL d   1     -41.395-123.769 -48.721  0.00  0.00     0.000 A 
ATOM     25  C   UNL d   1     -41.123-123.102 -49.282  0.00  0.00     0.005 A 
ENDBRANCH   1  19
TORSDOF 2
ENDMDL
MODEL 2
REMARK VINA RESULT:       0.1      0.579      5.010
REMARK  2 active torsions:
REMARK  status: ('A' for Active; 'I' for Inactive)
REMARK       I    between atoms: N_4  and  C_1 
REMARK    1  A    between atoms: C_5  and  C_1 
REMARK       I    between atoms: C_2  and  N_3 
REMARK    2  A    between atoms: C_6  and  C_2 
ROOT
ATOM      1  C   UNL d   1     -41.482-121.686 -53.092  0.00  0.00     0.265 C 
ATOM      2  C   UNL d   1     -41.576-122.127 -49.620  0.00  0.00     0.265 C 
ATOM      3  N   UNL d   1     -41.624-122.336 -50.405  0.00  0.00    -0.270 N 
ATOM      4  N   UNL d   1     -41.546-121.978 -52.228  0.00  0.00    -0.270 N 
ATOM      5  C   UNL d   1     -41.460-121.600 -50.788  0.00  0.00     0.102 A 
ATOM      6  C   UNL d   1     -41.425-121.440 -51.636  0.00  0.00     0.102 A 
ATOM      7  O   UNL d   1     -41.286-120.807 -53.249  0.00  0.00    -0.267 OA
ATOM      8  O   UNL d   1     -41.406-121.369 -49.413  0.00  0.00    -0.267 OA
ATOM      9  C   UNL d   1     -41.806-123.146 -51.455  0.00  0.00     0.038 A 
ATOM     10  C   UNL d   1     -41.702-122.679 -52.128  0.00  0.00     0.085 A 
ATOM     11  C   UNL d   1     -41.782-123.043 -50.774  0.00  0.00     0.085 A 
ENDROOT
BRANCH   2  12
ATOM     12  C   UNL d   1     -41.702-122.696 -49.051  0.00  0.00     0.057 A 
ATOM     13  C   UNL d   1     -42.407-122.711 -48.670  0.00  0.00     0.005 A 
ATOM     14  C   UNL d   1     -42.542-123.277 -48.100  0.00  0.00     0.000 A 
ATOM     15  C   UNL d   1     -43.251-123.306 -47.705  0.00  0.00     0.000 C 
ATOM     16  C   UNL d   1     -41.963-123.817 -47.923  0.00  0.00     0.000 A 
ATOM     17  C   UNL d   1     -41.253-123.794 -48.313  0.00  0.00     0.000 A 
ATOM     18  C   UNL d   1     -41.123-123.233 -48.877  0.00  0.00     0.005 A 
ENDBRANCH   2  12
BRANCH   1  19
ATOM     19  C   UNL d   1     -41.622-122.308 -53.749  0.00  0.00     0.057 A 
ATOM     20  C   UNL d   1     -42.205-122.135 -54.416  0.00  0.00     0.005 A 
ATOM     21  C   UNL d   1     -42.345-122.752 -55.070  0.00  0.00     0.000 A 
ATOM     22  C   UNL d   1     -42.925-122.600 -55.748  0.00  0.00     0.000 C 
ATOM     23  C   UNL d   1     -41.896-123.548 -55.051  0.00  0.00     0.000 A 
ATOM     24  C   UNL d   1     -41.307-123.717 -54.373  0.00  0.00     0.000 A 
ATOM     25  C   UNL d   1     -41.169-123.095 -53.719  0.00  0.00     0.005 A 
ENDBRANCH   1  19
TORSDOF 2
ENDMDL
