MODEL 1
REMARK VINA RESULT:      -5.7      0.000      0.000
REMARK  6 active torsions:
REMARK  status: ('A' for Active; 'I' for Inactive)
REMARK    1  A    between atoms: N_2  and  S_1 
REMARK    2  A    between atoms: N_3  and  S_1 
REMARK    3  A    between atoms: C_9  and  N_3 
REMARK    4  A    between atoms: C_4  and  C_7 
REMARK    5  A    between atoms: O_12  and  C_4 
REMARK    6  A    between atoms: C_17  and  O_12 
ROOT
ATOM      1  C   UNL d   1     -42.346-123.108 -50.032  0.00  0.00     0.064 A 
ATOM      2  C   UNL d   1     -41.541-122.465 -51.329  0.00  0.00     0.095 A 
ATOM      3  C   UNL d   1     -41.777-123.565 -50.435  0.00  0.00     0.007 A 
ATOM      4  C   UNL d   1     -42.519-122.325 -50.266  0.00  0.00     0.007 A 
ATOM      5  C   UNL d   1     -42.106-122.003 -50.922  0.00  0.00     0.020 A 
ATOM      6  C   UNL d   1     -41.377-123.244 -51.085  0.00  0.00     0.020 A 
ENDROOT
BRANCH   2   7
ATOM      7  N   UNL d   1     -41.127-122.133 -51.982  0.00  0.00    -0.144 NA
BRANCH   7   8
ATOM      8  S   UNL d   1     -41.383-122.275 -52.752  0.00  0.00     0.351 S 
ATOM      9  O   UNL d   1     -41.637-121.493 -52.736  0.00  0.00    -0.180 OA
ATOM     10  O   UNL d   1     -41.129-123.059 -52.768  0.00  0.00    -0.180 OA
BRANCH   8  11
ATOM     11  N   UNL d   1     -41.662-122.351 -53.523  0.00  0.00    -0.215 N 
ATOM     12  C   UNL d   1     -41.277-122.920 -53.987  0.00  0.00     0.093 C 
ATOM     13  C   UNL d   1     -41.444-123.143 -54.762  0.00  0.00     0.020 C 
ATOM     14  C   UNL d   1     -41.957-122.781 -55.297  0.00  0.00     0.002 C 
ATOM     15  C   UNL d   1     -42.425-122.112 -55.193  0.00  0.00     0.002 C 
ATOM     16  C   UNL d   1     -42.495-121.641 -54.525  0.00  0.00     0.020 C 
ATOM     17  C   UNL d   1     -42.115-121.717 -53.790  0.00  0.00     0.093 C 
ENDBRANCH   8  11
ENDBRANCH   7   8
ENDBRANCH   2   7
BRANCH   1  18
ATOM     18  C   UNL d   1     -42.754-123.444 -49.394  0.00  0.00     0.300 C 
ATOM     19  O   UNL d   1     -43.525-123.717 -49.505  0.00  0.00    -0.259 OA
BRANCH  18  20
ATOM     20  O   UNL d   1     -42.390-123.504 -48.659  0.00  0.00    -0.271 OA
BRANCH  20  21
ATOM     21  C   UNL d   1     -42.814-123.763 -47.999  0.00  0.00     0.126 C 
ATOM     22  C   UNL d   1     -42.465-123.771 -47.254  0.00  0.00     0.029 C 
ENDBRANCH  20  21
ENDBRANCH  18  20
ENDBRANCH   1  18
TORSDOF 6
ENDMDL
MODEL 2
REMARK VINA RESULT:      -3.8      1.397      4.861
REMARK  6 active torsions:
REMARK  status: ('A' for Active; 'I' for Inactive)
REMARK    1  A    between atoms: N_2  and  S_1 
REMARK    2  A    between atoms: N_3  and  S_1 
REMARK    3  A    between atoms: C_9  and  N_3 
REMARK    4  A    between atoms: C_4  and  C_7 
REMARK    5  A    between atoms: O_12  and  C_4 
REMARK    6  A    between atoms: C_17  and  O_12 
ROOT
ATOM      1  C   UNL d   1     -41.610-122.743 -53.263  0.00  0.00     0.064 A 
ATOM      2  C   UNL d   1     -41.445-122.369 -51.658  0.00  0.00     0.095 A 
ATOM      3  C   UNL d   1     -41.923-122.029 -52.970  0.00  0.00     0.007 A 
ATOM      4  C   UNL d   1     -41.207-123.279 -52.764  0.00  0.00     0.007 A 
ATOM      5  C   UNL d   1     -41.124-123.082 -51.952  0.00  0.00     0.020 A 
ATOM      6  C   UNL d   1     -41.843-121.843 -52.167  0.00  0.00     0.020 A 
ENDROOT
BRANCH   2   7
ATOM      7  N   UNL d   1     -41.352-122.176 -50.844  0.00  0.00    -0.144 NA
BRANCH   7   8
ATOM      8  S   UNL d   1     -41.725-122.629 -50.265  0.00  0.00     0.351 S 
ATOM      9  O   UNL d   1     -42.040-121.914 -50.009  0.00  0.00    -0.180 OA
ATOM     10  O   UNL d   1     -41.408-123.345 -50.521  0.00  0.00    -0.180 OA
BRANCH   8  11
ATOM     11  N   UNL d   1     -42.125-123.022 -49.662  0.00  0.00    -0.215 N 
ATOM     12  C   UNL d   1     -42.951-123.042 -49.737  0.00  0.00     0.093 C 
ATOM     13  C   UNL d   1     -43.498-123.412 -49.245  0.00  0.00     0.020 C 
ATOM     14  C   UNL d   1     -43.368-123.754 -48.506  0.00  0.00     0.002 C 
ATOM     15  C   UNL d   1     -42.668-123.811 -48.077  0.00  0.00     0.002 C 
ATOM     16  C   UNL d   1     -41.922-123.538 -48.286  0.00  0.00     0.020 C 
ATOM     17  C   UNL d   1     -41.686-123.139 -48.975  0.00  0.00     0.093 C 
ENDBRANCH   8  11
ENDBRANCH   7   8
ENDBRANCH   2   7
BRANCH   1  18
ATOM     18  C   UNL d   1     -41.711-122.928 -54.065  0.00  0.00     0.300 C 
ATOM     19  O   UNL d   1     -41.589-123.704 -54.319  0.00  0.00    -0.259 OA
BRANCH  18  20
ATOM     20  O   UNL d   1     -41.929-122.342 -54.598  0.00  0.00    -0.271 OA
BRANCH  20  21
ATOM     21  C   UNL d   1     -42.087-122.527 -55.387  0.00  0.00     0.126 C 
ATOM     22  C   UNL d   1     -42.379-121.955 -55.901  0.00  0.00     0.029 C 
ENDBRANCH  20  21
ENDBRANCH  18  20
ENDBRANCH   1  18
TORSDOF 6
ENDMDL
