MODEL 1
REMARK VINA RESULT:      -2.6      0.000      0.000
REMARK  4 active torsions:
REMARK  status: ('A' for Active; 'I' for Inactive)
REMARK    1  A    between atoms: C_8  and  C_1 
REMARK    2  A    between atoms: N_7  and  C_8 
REMARK    3  A    between atoms: C_18  and  N_9 
REMARK    4  A    between atoms: C_21  and  C_18 
ROOT
ATOM      1  C   UNL d   1      33.240  19.217 -23.426  0.00  0.00     0.059 A 
ATOM      2  C   UNL d   1      33.240  20.599 -23.083  0.00  0.00     0.121 A 
ATOM      3  C   UNL d   1      33.240  20.002 -23.664  0.00  0.00     0.214 A 
ATOM      4  C   UNL d   1      33.240  20.400 -22.282  0.00  0.00     0.032 A 
ATOM      5  C   UNL d   1      33.239  19.613 -22.049  0.00  0.00     0.059 A 
ATOM      6  C   UNL d   1      33.240  19.017 -22.622  0.00  0.00     0.016 A 
ATOM      7  N   UNL d   1      33.240  21.391 -23.319  0.00  0.00    -0.241 NA
ATOM      8 CL   UNL d   1      33.239  19.415 -21.252  0.00  0.00    -0.082 Cl
ATOM      9  O   UNL d   1      33.241  20.199 -24.457  0.00  0.00    -0.285 OA
ATOM     10  C   UNL d   1      33.239  21.007 -21.715  0.00  0.00     0.004 A 
ATOM     11  C   UNL d   1      33.240  21.988 -22.746  0.00  0.00     0.099 A 
ATOM     12  C   UNL d   1      33.240  21.787 -21.938  0.00  0.00     0.021 A 
ENDROOT
BRANCH   1  13
ATOM     13  C   UNL d   1      33.240  18.612 -23.997  0.00  0.00     0.084 C 
BRANCH  13  14
ATOM     14  N   UNL d   1      32.629  18.052 -23.996  0.00  0.00    -0.300 N 
ATOM     15  C   UNL d   1      32.735  17.327 -23.606  0.00  0.00     0.100 A 
ATOM     16  C   UNL d   1      32.129  16.773 -23.605  0.00  0.00     0.100 A 
ATOM     17  N   UNL d   1      31.418  16.933 -23.990  0.00  0.00    -0.297 N 
ATOM     18  C   UNL d   1      31.311  17.658 -24.380  0.00  0.00     0.100 A 
ATOM     19  C   UNL d   1      31.914  18.210 -24.381  0.00  0.00     0.100 A 
BRANCH  17  20
ATOM     20  C   UNL d   1      30.813  16.379 -23.989  0.00  0.00     0.126 C 
BRANCH  20  21
ATOM     21  C   UNL d   1      30.027  16.620 -23.998  0.00  0.00     0.253 C 
ATOM     22  O   UNL d   1      29.437  16.124 -23.682  0.00  0.00    -0.281 OA
ENDBRANCH  20  21
ENDBRANCH  17  20
ENDBRANCH  13  14
ENDBRANCH   1  13
TORSDOF 4
ENDMDL
MODEL 2
REMARK VINA RESULT:      -2.6      1.728      4.522
REMARK  4 active torsions:
REMARK  status: ('A' for Active; 'I' for Inactive)
REMARK    1  A    between atoms: C_8  and  C_1 
REMARK    2  A    between atoms: N_7  and  C_8 
REMARK    3  A    between atoms: C_18  and  N_9 
REMARK    4  A    between atoms: C_21  and  C_18 
ROOT
ATOM      1  C   UNL d   1      31.561  17.179 -24.152  0.00  0.00     0.059 A 
ATOM      2  C   UNL d   1      30.192  16.878 -24.399  0.00  0.00     0.121 A 
ATOM      3  C   UNL d   1      30.866  17.344 -24.553  0.00  0.00     0.214 A 
ATOM      4  C   UNL d   1      30.228  16.263 -23.851  0.00  0.00     0.032 A 
ATOM      5  C   UNL d   1      30.927  16.102 -23.452  0.00  0.00     0.059 A 
ATOM      6  C   UNL d   1      31.598  16.561 -23.601  0.00  0.00     0.016 A 
ATOM      7  N   UNL d   1      29.489  17.041 -24.802  0.00  0.00    -0.241 NA
ATOM      8 CL   UNL d   1      30.963  15.490 -22.906  0.00  0.00    -0.082 Cl
ATOM      9  O   UNL d   1      30.830  17.953 -25.096  0.00  0.00    -0.285 OA
ATOM     10  C   UNL d   1      29.548  15.808 -23.709  0.00  0.00     0.004 A 
ATOM     11  C   UNL d   1      28.817  16.582 -24.653  0.00  0.00     0.099 A 
ATOM     12  C   UNL d   1      28.853  15.961 -24.100  0.00  0.00     0.021 A 
ENDROOT
BRANCH   1  13
ATOM     13  C   UNL d   1      32.241  17.637 -24.297  0.00  0.00     0.084 C 
BRANCH  13  14
ATOM     14  N   UNL d   1      32.493  18.183 -23.726  0.00  0.00    -0.300 N 
ATOM     15  C   UNL d   1      32.330  18.990 -23.827  0.00  0.00     0.100 A 
ATOM     16  C   UNL d   1      32.579  19.530 -23.261  0.00  0.00     0.100 A 
ATOM     17  N   UNL d   1      32.991  19.274 -22.594  0.00  0.00    -0.297 N 
ATOM     18  C   UNL d   1      33.155  18.466 -22.493  0.00  0.00     0.100 A 
ATOM     19  C   UNL d   1      32.907  17.928 -23.056  0.00  0.00     0.100 A 
BRANCH  17  20
ATOM     20  C   UNL d   1      33.241  19.813 -22.030  0.00  0.00     0.126 C 
BRANCH  20  21
ATOM     21  C   UNL d   1      32.694  20.211 -21.562  0.00  0.00     0.253 C 
ATOM     22  O   UNL d   1      32.950  20.635 -20.893  0.00  0.00    -0.281 OA
ENDBRANCH  20  21
ENDBRANCH  17  20
ENDBRANCH  13  14
ENDBRANCH   1  13
TORSDOF 4
ENDMDL
MODEL 3
REMARK VINA RESULT:      -1.8      1.413      1.785
REMARK  4 active torsions:
REMARK  status: ('A' for Active; 'I' for Inactive)
REMARK    1  A    between atoms: C_8  and  C_1 
REMARK    2  A    between atoms: N_7  and  C_8 
REMARK    3  A    between atoms: C_18  and  N_9 
REMARK    4  A    between atoms: C_21  and  C_18 
ROOT
ATOM      1  C   UNL d   1      33.147  19.747 -22.374  0.00  0.00     0.059 A 
ATOM      2  C   UNL d   1      32.873  20.941 -21.649  0.00  0.00     0.121 A 
ATOM      3  C   UNL d   1      32.965  20.113 -21.664  0.00  0.00     0.214 A 
ATOM      4  C   UNL d   1      32.964  21.382 -22.340  0.00  0.00     0.032 A 
ATOM      5  C   UNL d   1      33.147  21.011 -23.049  0.00  0.00     0.059 A 
ATOM      6  C   UNL d   1      33.239  20.190 -23.069  0.00  0.00     0.016 A 
ATOM      7  N   UNL d   1      32.689  21.314 -20.934  0.00  0.00    -0.241 NA
ATOM      8 CL   UNL d   1      33.238  21.450 -23.737  0.00  0.00    -0.082 Cl
ATOM      9  O   UNL d   1      32.874  19.676 -20.979  0.00  0.00    -0.285 OA
ATOM     10  C   UNL d   1      32.870  22.206 -22.309  0.00  0.00     0.004 A 
ATOM     11  C   UNL d   1      32.597  22.135 -20.914  0.00  0.00     0.099 A 
ATOM     12  C   UNL d   1      32.690  22.581 -21.612  0.00  0.00     0.021 A 
ENDROOT
BRANCH   1  13
ATOM     13  C   UNL d   1      33.241  18.921 -22.402  0.00  0.00     0.084 C 
BRANCH  13  14
ATOM     14  N   UNL d   1      32.833  18.484 -22.976  0.00  0.00    -0.300 N 
ATOM     15  C   UNL d   1      32.009  18.403 -22.924  0.00  0.00     0.100 A 
ATOM     16  C   UNL d   1      31.605  17.971 -23.493  0.00  0.00     0.100 A 
ATOM     17  N   UNL d   1      32.014  17.617 -24.115  0.00  0.00    -0.297 N 
ATOM     18  C   UNL d   1      32.839  17.698 -24.168  0.00  0.00     0.100 A 
ATOM     19  C   UNL d   1      33.241  18.128 -23.602  0.00  0.00     0.100 A 
BRANCH  17  20
ATOM     20  C   UNL d   1      31.610  17.185 -24.683  0.00  0.00     0.126 C 
BRANCH  20  21
ATOM     21  C   UNL d   1      31.342  16.426 -24.517  0.00  0.00     0.253 C 
ATOM     22  O   UNL d   1      30.870  16.022 -25.072  0.00  0.00    -0.281 OA
ENDBRANCH  20  21
ENDBRANCH  17  20
ENDBRANCH  13  14
ENDBRANCH   1  13
TORSDOF 4
ENDMDL
MODEL 4
REMARK VINA RESULT:      -1.7      2.401      3.757
REMARK  4 active torsions:
REMARK  status: ('A' for Active; 'I' for Inactive)
REMARK    1  A    between atoms: C_8  and  C_1 
REMARK    2  A    between atoms: N_7  and  C_8 
REMARK    3  A    between atoms: C_18  and  N_9 
REMARK    4  A    between atoms: C_21  and  C_18 
ROOT
ATOM      1  C   UNL d   1      31.138  16.284 -24.102  0.00  0.00     0.059 A 
ATOM      2  C   UNL d   1      32.179  17.124 -23.613  0.00  0.00     0.121 A 
ATOM      3  C   UNL d   1      31.793  16.384 -23.620  0.00  0.00     0.214 A 
ATOM      4  C   UNL d   1      31.902  17.741 -24.084  0.00  0.00     0.032 A 
ATOM      5  C   UNL d   1      31.245  17.635 -24.565  0.00  0.00     0.059 A 
ATOM      6  C   UNL d   1      30.859  16.905 -24.575  0.00  0.00     0.016 A 
ATOM      7  N   UNL d   1      32.840  17.229 -23.128  0.00  0.00    -0.241 NA
ATOM      8 CL   UNL d   1      30.969  18.250 -25.034  0.00  0.00    -0.082 Cl
ATOM      9  O   UNL d   1      32.068  15.773 -23.153  0.00  0.00    -0.285 OA
ATOM     10  C   UNL d   1      32.296  18.471 -24.066  0.00  0.00     0.004 A 
ATOM     11  C   UNL d   1      33.226  17.960 -23.117  0.00  0.00     0.099 A 
ATOM     12  C   UNL d   1      32.946  18.584 -23.593  0.00  0.00     0.021 A 
ENDROOT
BRANCH   1  13
ATOM     13  C   UNL d   1      30.745  15.551 -24.117  0.00  0.00     0.084 C 
BRANCH  13  14
ATOM     14  N   UNL d   1      29.925  15.526 -23.996  0.00  0.00    -0.300 N 
ATOM     15  C   UNL d   1      29.623  15.502 -23.224  0.00  0.00     0.100 A 
ATOM     16  C   UNL d   1      28.811  15.477 -23.104  0.00  0.00     0.100 A 
ATOM     17  N   UNL d   1      28.295  15.477 -23.748  0.00  0.00    -0.297 N 
ATOM     18  C   UNL d   1      28.597  15.502 -24.521  0.00  0.00     0.100 A 
ATOM     19  C   UNL d   1      29.405  15.526 -24.640  0.00  0.00     0.100 A 
BRANCH  17  20
ATOM     20  C   UNL d   1      27.485  15.453 -23.628  0.00  0.00     0.126 C 
BRANCH  20  21
ATOM     21  C   UNL d   1      27.106  16.053 -23.213  0.00  0.00     0.253 C 
ATOM     22  O   UNL d   1      26.298  15.982 -23.024  0.00  0.00    -0.281 OA
ENDBRANCH  20  21
ENDBRANCH  17  20
ENDBRANCH  13  14
ENDBRANCH   1  13
TORSDOF 4
ENDMDL
MODEL 5
REMARK VINA RESULT:      -1.3      1.533      4.236
REMARK  4 active torsions:
REMARK  status: ('A' for Active; 'I' for Inactive)
REMARK    1  A    between atoms: C_8  and  C_1 
REMARK    2  A    between atoms: N_7  and  C_8 
REMARK    3  A    between atoms: C_18  and  N_9 
REMARK    4  A    between atoms: C_21  and  C_18 
ROOT
ATOM      1  C   UNL d   1      32.881  18.580 -23.681  0.00  0.00     0.059 A 
ATOM      2  C   UNL d   1      31.933  17.704 -24.282  0.00  0.00     0.121 A 
ATOM      3  C   UNL d   1      32.286  18.457 -24.232  0.00  0.00     0.214 A 
ATOM      4  C   UNL d   1      32.181  17.094 -23.784  0.00  0.00     0.032 A 
ATOM      5  C   UNL d   1      32.777  17.223 -23.234  0.00  0.00     0.059 A 
ATOM      6  C   UNL d   1      33.130  17.967 -23.181  0.00  0.00     0.016 A 
ATOM      7  N   UNL d   1      31.333  17.576 -24.836  0.00  0.00    -0.241 NA
ATOM      8 CL   UNL d   1      33.023  16.616 -22.739  0.00  0.00    -0.082 Cl
ATOM      9  O   UNL d   1      32.041  19.061 -24.725  0.00  0.00    -0.285 OA
ATOM     10  C   UNL d   1      31.819  16.350 -23.847  0.00  0.00     0.004 A 
ATOM     11  C   UNL d   1      30.980  16.830 -24.891  0.00  0.00     0.099 A 
ATOM     12  C   UNL d   1      31.229  16.215 -24.388  0.00  0.00     0.021 A 
ENDROOT
BRANCH   1  13
ATOM     13  C   UNL d   1      33.241  19.327 -23.621  0.00  0.00     0.084 C 
BRANCH  13  14
ATOM     14  N   UNL d   1      33.159  19.763 -22.920  0.00  0.00    -0.300 N 
ATOM     15  C   UNL d   1      32.994  20.575 -22.957  0.00  0.00     0.100 A 
ATOM     16  C   UNL d   1      32.913  21.007 -22.264  0.00  0.00     0.100 A 
ATOM     17  N   UNL d   1      32.995  20.636 -21.531  0.00  0.00    -0.297 N 
ATOM     18  C   UNL d   1      33.160  19.823 -21.494  0.00  0.00     0.100 A 
ATOM     19  C   UNL d   1      33.241  19.394 -22.184  0.00  0.00     0.100 A 
BRANCH  17  20
ATOM     20  C   UNL d   1      32.914  21.067 -20.838  0.00  0.00     0.126 C 
BRANCH  20  21
ATOM     21  C   UNL d   1      32.287  21.589 -20.743  0.00  0.00     0.253 C 
ATOM     22  O   UNL d   1      32.298  22.144 -20.121  0.00  0.00    -0.281 OA
ENDBRANCH  20  21
ENDBRANCH  17  20
ENDBRANCH  13  14
ENDBRANCH   1  13
TORSDOF 4
ENDMDL
MODEL 6
REMARK VINA RESULT:      -1.3      1.778      4.842
REMARK  4 active torsions:
REMARK  status: ('A' for Active; 'I' for Inactive)
REMARK    1  A    between atoms: C_8  and  C_1 
REMARK    2  A    between atoms: N_7  and  C_8 
REMARK    3  A    between atoms: C_18  and  N_9 
REMARK    4  A    between atoms: C_21  and  C_18 
ROOT
ATOM      1  C   UNL d   1      30.507  16.564 -24.423  0.00  0.00     0.059 A 
ATOM      2  C   UNL d   1      29.258  16.236 -23.823  0.00  0.00     0.121 A 
ATOM      3  C   UNL d   1      29.688  16.594 -24.441  0.00  0.00     0.214 A 
ATOM      4  C   UNL d   1      29.654  15.857 -23.206  0.00  0.00     0.032 A 
ATOM      5  C   UNL d   1      30.475  15.829 -23.193  0.00  0.00     0.059 A 
ATOM      6  C   UNL d   1      30.905  16.184 -23.803  0.00  0.00     0.016 A 
ATOM      7  N   UNL d   1      28.432  16.264 -23.837  0.00  0.00    -0.241 NA
ATOM      8 CL   UNL d   1      30.869  15.453 -22.580  0.00  0.00    -0.082 Cl
ATOM      9  O   UNL d   1      29.296  16.969 -25.051  0.00  0.00    -0.285 OA
ATOM     10  C   UNL d   1      29.212  15.505 -22.599  0.00  0.00     0.004 A 
ATOM     11  C   UNL d   1      28.001  15.910 -23.227  0.00  0.00     0.099 A 
ATOM     12  C   UNL d   1      28.401  15.528 -22.604  0.00  0.00     0.021 A 
ENDROOT
BRANCH   1  13
ATOM     13  C   UNL d   1      30.947  16.918 -25.034  0.00  0.00     0.084 C 
BRANCH  13  14
ATOM     14  N   UNL d   1      31.525  17.482 -24.844  0.00  0.00    -0.300 N 
ATOM     15  C   UNL d   1      31.305  18.186 -24.465  0.00  0.00     0.100 A 
ATOM     16  C   UNL d   1      31.878  18.744 -24.277  0.00  0.00     0.100 A 
ATOM     17  N   UNL d   1      32.669  18.607 -24.464  0.00  0.00    -0.297 N 
ATOM     18  C   UNL d   1      32.890  17.902 -24.844  0.00  0.00     0.100 A 
ATOM     19  C   UNL d   1      32.320  17.347 -25.030  0.00  0.00     0.100 A 
BRANCH  17  20
ATOM     20  C   UNL d   1      33.241  19.164 -24.276  0.00  0.00     0.126 C 
BRANCH  20  21
ATOM     21  C   UNL d   1      33.195  19.588 -23.574  0.00  0.00     0.253 C 
ATOM     22  O   UNL d   1      33.210  20.421 -23.590  0.00  0.00    -0.281 OA
ENDBRANCH  20  21
ENDBRANCH  17  20
ENDBRANCH  13  14
ENDBRANCH   1  13
TORSDOF 4
ENDMDL
