MODEL 1
REMARK VINA RESULT:      -2.6      0.000      0.000
REMARK  1 active torsions:
REMARK  status: ('A' for Active; 'I' for Inactive)
REMARK    1  A    between atoms: N_2  and  C_1 
ROOT
ATOM      1  C   UNL d   1      29.331  16.277 -23.837  0.00  0.00     0.148 A 
ATOM      2  C   UNL d   1      29.931  15.838 -23.432  0.00  0.00     0.051 A 
ATOM      3  C   UNL d   1      29.553  16.888 -24.345  0.00  0.00     0.127 A 
ATOM      4  C   UNL d   1      30.723  16.017 -23.541  0.00  0.00     0.121 A 
ATOM      5  C   UNL d   1      30.375  17.061 -24.448  0.00  0.00     0.049 A 
ATOM      6  C   UNL d   1      30.945  16.628 -24.049  0.00  0.00     0.121 A 
ATOM      7  O   UNL d   1      31.429  15.676 -23.213  0.00  0.00    -0.299 OA
ATOM      8  O   UNL d   1      31.793  16.679 -24.048  0.00  0.00    -0.299 OA
ATOM      9  C   UNL d   1      32.060  16.088 -23.531  0.00  0.00     0.304 A 
ATOM     10  N   UNL d   1      28.917  17.314 -24.741  0.00  0.00    -0.146 N 
ENDROOT
BRANCH   1  11
ATOM     11  N   UNL d   1      28.487  16.128 -23.755  0.00  0.00    -0.112 N 
ATOM     12  O   UNL d   1      28.009  16.605 -23.264  0.00  0.00    -0.532 OA
ATOM     13  O   UNL d   1      28.115  15.482 -24.179  0.00  0.00    -0.532 OA
ENDBRANCH   1  11
TORSDOF 1
ENDMDL
MODEL 2
REMARK VINA RESULT:      -2.6      6.421      6.954
REMARK  1 active torsions:
REMARK  status: ('A' for Active; 'I' for Inactive)
REMARK    1  A    between atoms: N_2  and  C_1 
ROOT
ATOM      1  C   UNL d   1      32.460  22.570 -21.080  0.00  0.00     0.148 A 
ATOM      2  C   UNL d   1      32.465  21.792 -20.745  0.00  0.00     0.051 A 
ATOM      3  C   UNL d   1      32.728  22.677 -21.853  0.00  0.00     0.127 A 
ATOM      4  C   UNL d   1      32.734  21.152 -21.182  0.00  0.00     0.121 A 
ATOM      5  C   UNL d   1      33.002  22.006 -22.292  0.00  0.00     0.049 A 
ATOM      6  C   UNL d   1      33.002  21.259 -21.954  0.00  0.00     0.121 A 
ATOM      7  O   UNL d   1      32.800  20.328 -20.990  0.00  0.00    -0.299 OA
ATOM      8  O   UNL d   1      33.241  20.503 -22.259  0.00  0.00    -0.299 OA
ATOM      9  C   UNL d   1      33.107  19.956 -21.651  0.00  0.00     0.304 A 
ATOM     10  N   UNL d   1      32.709  23.480 -22.163  0.00  0.00    -0.146 N 
ENDROOT
BRANCH   1  11
ATOM     11  N   UNL d   1      32.188  23.273 -20.663  0.00  0.00    -0.112 N 
ATOM     12  O   UNL d   1      32.687  23.681 -20.133  0.00  0.00    -0.532 OA
ATOM     13  O   UNL d   1      31.393  23.570 -20.784  0.00  0.00    -0.532 OA
ENDBRANCH   1  11
TORSDOF 1
ENDMDL
MODEL 3
REMARK VINA RESULT:      -2.5      6.769      7.384
REMARK  1 active torsions:
REMARK  status: ('A' for Active; 'I' for Inactive)
REMARK    1  A    between atoms: N_2  and  C_1 
ROOT
ATOM      1  C   UNL d   1      32.468  22.448 -21.422  0.00  0.00     0.148 A 
ATOM      2  C   UNL d   1      32.828  22.131 -22.120  0.00  0.00     0.051 A 
ATOM      3  C   UNL d   1      32.199  23.227 -21.426  0.00  0.00     0.127 A 
ATOM      4  C   UNL d   1      32.908  22.592 -22.793  0.00  0.00     0.121 A 
ATOM      5  C   UNL d   1      32.288  23.691 -22.129  0.00  0.00     0.049 A 
ATOM      6  C   UNL d   1      32.638  23.371 -22.798  0.00  0.00     0.121 A 
ATOM      7  O   UNL d   1      33.239  22.421 -23.556  0.00  0.00    -0.299 OA
ATOM      8  O   UNL d   1      32.796  23.702 -23.564  0.00  0.00    -0.299 OA
ATOM      9  C   UNL d   1      33.162  23.102 -24.004  0.00  0.00     0.304 A 
ATOM     10  N   UNL d   1      31.839  23.517 -20.700  0.00  0.00    -0.146 N 
ENDROOT
BRANCH   1  11
ATOM     11  N   UNL d   1      32.362  22.004 -20.691  0.00  0.00    -0.112 N 
ATOM     12  O   UNL d   1      32.902  22.078 -20.058  0.00  0.00    -0.532 OA
ATOM     13  O   UNL d   1      31.694  21.474 -20.597  0.00  0.00    -0.532 OA
ENDBRANCH   1  11
TORSDOF 1
ENDMDL
MODEL 4
REMARK VINA RESULT:      -2.5      0.697      1.365
REMARK  1 active torsions:
REMARK  status: ('A' for Active; 'I' for Inactive)
REMARK    1  A    between atoms: N_2  and  C_1 
ROOT
ATOM      1  C   UNL d   1      29.256  16.245 -23.743  0.00  0.00     0.148 A 
ATOM      2  C   UNL d   1      29.656  16.643 -24.374  0.00  0.00     0.051 A 
ATOM      3  C   UNL d   1      29.699  15.847 -23.173  0.00  0.00     0.127 A 
ATOM      4  C   UNL d   1      30.474  16.634 -24.420  0.00  0.00     0.121 A 
ATOM      5  C   UNL d   1      30.544  15.846 -23.233  0.00  0.00     0.049 A 
ATOM      6  C   UNL d   1      30.918  16.235 -23.850  0.00  0.00     0.121 A 
ATOM      7  O   UNL d   1      31.011  16.979 -24.980  0.00  0.00    -0.299 OA
ATOM      8  O   UNL d   1      31.740  16.324 -24.044  0.00  0.00    -0.299 OA
ATOM      9  C   UNL d   1      31.766  16.780 -24.736  0.00  0.00     0.304 A 
ATOM     10  N   UNL d   1      29.261  15.453 -22.545  0.00  0.00    -0.146 N 
ENDROOT
BRANCH   1  11
ATOM     11  N   UNL d   1      28.399  16.226 -23.651  0.00  0.00    -0.112 N 
ATOM     12  O   UNL d   1      27.993  16.841 -23.259  0.00  0.00    -0.532 OA
ATOM     13  O   UNL d   1      27.943  15.570 -23.963  0.00  0.00    -0.532 OA
ENDBRANCH   1  11
TORSDOF 1
ENDMDL
MODEL 5
REMARK VINA RESULT:      -2.4      1.293      2.701
REMARK  1 active torsions:
REMARK  status: ('A' for Active; 'I' for Inactive)
REMARK    1  A    between atoms: N_2  and  C_1 
ROOT
ATOM      1  C   UNL d   1      30.889  16.530 -23.937  0.00  0.00     0.148 A 
ATOM      2  C   UNL d   1      30.404  15.971 -23.525  0.00  0.00     0.051 A 
ATOM      3  C   UNL d   1      30.529  17.105 -24.406  0.00  0.00     0.127 A 
ATOM      4  C   UNL d   1      29.588  15.999 -23.591  0.00  0.00     0.121 A 
ATOM      5  C   UNL d   1      29.684  17.122 -24.464  0.00  0.00     0.049 A 
ATOM      6  C   UNL d   1      29.228  16.574 -24.060  0.00  0.00     0.121 A 
ATOM      7  O   UNL d   1      28.978  15.518 -23.247  0.00  0.00    -0.299 OA
ATOM      8  O   UNL d   1      28.387  16.463 -24.018  0.00  0.00    -0.299 OA
ATOM      9  C   UNL d   1      28.265  15.814 -23.516  0.00  0.00     0.304 A 
ATOM     10  N   UNL d   1      31.051  17.658 -24.811  0.00  0.00    -0.146 N 
ENDROOT
BRANCH   1  11
ATOM     11  N   UNL d   1      31.749  16.542 -23.900  0.00  0.00    -0.112 N 
ATOM     12  O   UNL d   1      32.211  16.100 -24.438  0.00  0.00    -0.532 OA
ATOM     13  O   UNL d   1      32.153  17.010 -23.306  0.00  0.00    -0.532 OA
ENDBRANCH   1  11
TORSDOF 1
ENDMDL
