MODEL 1
REMARK VINA RESULT:      -5.4      0.000      0.000
REMARK  1 active torsions:
REMARK  status: ('A' for Active; 'I' for Inactive)
REMARK    1  A    between atoms: C_10  and  C_4 
ROOT
ATOM      1  C   UNL d   1     -41.579-122.507 -52.645  0.00  0.00     0.186 A 
ATOM      2  N   UNL d   1     -41.573-123.070 -52.027  0.00  0.00    -0.193 N 
ATOM      3  N   UNL d   1     -41.434-121.712 -52.476  0.00  0.00    -0.214 NA
ATOM      4  C   UNL d   1     -41.744-122.919 -53.347  0.00  0.00     0.140 A 
ATOM      5  N   UNL d   1     -41.734-123.817 -52.353  0.00  0.00    -0.058 NA
ATOM      6  N   UNL d   1     -41.838-123.713 -53.168  0.00  0.00    -0.127 NA
ATOM      7  C   UNL d   1     -41.284-121.467 -51.702  0.00  0.00     0.142 A 
ATOM      8  C   UNL d   1     -41.280-122.030 -51.093  0.00  0.00     0.046 A 
ATOM      9  C   UNL d   1     -41.424-122.825 -51.256  0.00  0.00     0.088 A 
ATOM     10 CL   UNL d   1     -41.140-120.673 -51.535  0.00  0.00    -0.061 Cl
ATOM     11  C   UNL d   1     -41.130-121.785 -50.322  0.00  0.00     0.004 A 
ATOM     12  C   UNL d   1     -41.417-123.376 -50.640  0.00  0.00     0.019 A 
ATOM     13  C   UNL d   1     -41.123-122.335 -49.711  0.00  0.00     0.000 A 
ATOM     14  C   UNL d   1     -41.267-123.130 -49.870  0.00  0.00     0.002 A 
ENDROOT
BRANCH   4  15
ATOM     15  C   UNL d   1     -41.801-122.579 -54.089  0.00  0.00     0.022 A 
ATOM     16  C   UNL d   1     -42.506-122.217 -54.321  0.00  0.00     0.002 A 
ATOM     17  C   UNL d   1     -42.566-121.873 -55.070  0.00  0.00     0.000 A 
ATOM     18  C   UNL d   1     -41.920-121.892 -55.584  0.00  0.00     0.000 A 
ATOM     19  C   UNL d   1     -41.214-122.256 -55.349  0.00  0.00     0.000 A 
ATOM     20  C   UNL d   1     -41.979-121.550 -56.330  0.00  0.00     0.000 C 
ATOM     21  C   UNL d   1     -41.155-122.598 -54.603  0.00  0.00     0.002 A 
ENDBRANCH   4  15
TORSDOF 1
ENDMDL
MODEL 2
REMARK VINA RESULT:      -3.3      0.881      3.926
REMARK  1 active torsions:
REMARK  status: ('A' for Active; 'I' for Inactive)
REMARK    1  A    between atoms: C_10  and  C_4 
ROOT
ATOM      1  C   UNL d   1     -41.734-122.659 -52.788  0.00  0.00     0.186 A 
ATOM      2  N   UNL d   1     -41.499-123.032 -53.499  0.00  0.00    -0.193 N 
ATOM      3  N   UNL d   1     -42.120-121.930 -52.815  0.00  0.00    -0.214 NA
ATOM      4  C   UNL d   1     -41.501-123.157 -52.164  0.00  0.00     0.140 A 
ATOM      5  N   UNL d   1     -41.127-123.749 -53.306  0.00  0.00    -0.058 NA
ATOM      6  N   UNL d   1     -41.134-123.817 -52.481  0.00  0.00    -0.127 NA
ATOM      7  C   UNL d   1     -42.276-121.565 -53.539  0.00  0.00     0.142 A 
ATOM      8  C   UNL d   1     -42.041-121.938 -54.241  0.00  0.00     0.046 A 
ATOM      9  C   UNL d   1     -41.655-122.666 -54.219  0.00  0.00     0.088 A 
ATOM     10 CL   UNL d   1     -42.662-120.837 -53.564  0.00  0.00    -0.061 Cl
ATOM     11  C   UNL d   1     -42.198-121.573 -54.961  0.00  0.00     0.004 A 
ATOM     12  C   UNL d   1     -41.426-123.028 -54.925  0.00  0.00     0.019 A 
ATOM     13  C   UNL d   1     -41.969-121.935 -55.663  0.00  0.00     0.000 A 
ATOM     14  C   UNL d   1     -41.583-122.663 -55.645  0.00  0.00     0.002 A 
ENDROOT
BRANCH   4  15
ATOM     15  C   UNL d   1     -41.624-123.004 -51.370  0.00  0.00     0.022 A 
ATOM     16  C   UNL d   1     -42.247-123.372 -50.973  0.00  0.00     0.002 A 
ATOM     17  C   UNL d   1     -42.373-123.218 -50.171  0.00  0.00     0.000 A 
ATOM     18  C   UNL d   1     -41.873-122.698 -49.769  0.00  0.00     0.000 A 
ATOM     19  C   UNL d   1     -41.248-122.331 -50.169  0.00  0.00     0.000 A 
ATOM     20  C   UNL d   1     -41.997-122.545 -48.970  0.00  0.00     0.000 C 
ATOM     21  C   UNL d   1     -41.124-122.484 -50.968  0.00  0.00     0.002 A 
ENDBRANCH   4  15
TORSDOF 1
ENDMDL
MODEL 3
REMARK VINA RESULT:      -2.8      1.174      1.445
REMARK  1 active torsions:
REMARK  status: ('A' for Active; 'I' for Inactive)
REMARK    1  A    between atoms: C_10  and  C_4 
ROOT
ATOM      1  C   UNL d   1     -42.035-122.827 -51.708  0.00  0.00     0.186 A 
ATOM      2  N   UNL d   1     -41.736-123.293 -51.080  0.00  0.00    -0.193 N 
ATOM      3  N   UNL d   1     -42.609-122.255 -51.557  0.00  0.00    -0.214 NA
ATOM      4  C   UNL d   1     -41.646-123.074 -52.399  0.00  0.00     0.140 A 
ATOM      5  N   UNL d   1     -41.171-123.817 -51.390  0.00  0.00    -0.058 NA
ATOM      6  N   UNL d   1     -41.123-123.674 -52.205  0.00  0.00    -0.127 NA
ATOM      7  C   UNL d   1     -42.893-122.137 -50.790  0.00  0.00     0.142 A 
ATOM      8  C   UNL d   1     -42.594-122.601 -50.171  0.00  0.00     0.046 A 
ATOM      9  C   UNL d   1     -42.020-123.174 -50.317  0.00  0.00     0.088 A 
ATOM     10 CL   UNL d   1     -43.467-121.565 -50.640  0.00  0.00    -0.061 Cl
ATOM     11  C   UNL d   1     -42.877-122.482 -49.408  0.00  0.00     0.004 A 
ATOM     12  C   UNL d   1     -41.729-123.629 -49.692  0.00  0.00     0.019 A 
ATOM     13  C   UNL d   1     -42.587-122.937 -48.787  0.00  0.00     0.000 A 
ATOM     14  C   UNL d   1     -42.013-123.510 -48.929  0.00  0.00     0.002 A 
ENDROOT
BRANCH   4  15
ATOM     15  C   UNL d   1     -41.772-122.764 -53.145  0.00  0.00     0.022 A 
ATOM     16  C   UNL d   1     -42.166-123.213 -53.715  0.00  0.00     0.002 A 
ATOM     17  C   UNL d   1     -42.294-122.901 -54.470  0.00  0.00     0.000 A 
ATOM     18  C   UNL d   1     -42.026-122.141 -54.651  0.00  0.00     0.000 A 
ATOM     19  C   UNL d   1     -41.631-121.693 -54.078  0.00  0.00     0.000 A 
ATOM     20  C   UNL d   1     -42.153-121.829 -55.402  0.00  0.00     0.000 C 
ATOM     21  C   UNL d   1     -41.504-122.004 -53.327  0.00  0.00     0.002 A 
ENDBRANCH   4  15
TORSDOF 1
ENDMDL
