MODEL 1
REMARK VINA RESULT:      -3.4      0.000      0.000
REMARK  4 active torsions:
REMARK  status: ('A' for Active; 'I' for Inactive)
REMARK    1  A    between atoms: C_7  and  C_3 
REMARK    2  A    between atoms: S_6  and  C_4 
REMARK    3  A    between atoms: C_9  and  S_6 
REMARK    4  A    between atoms: C_10  and  C_9 
ROOT
ATOM      1  O   UNL d   1      32.882  19.968 -22.778  0.00  0.00    -0.263 OA
ATOM      2  N   UNL d   1      33.148  18.821 -22.114  0.00  0.00    -0.120 NA
ATOM      3  C   UNL d   1      32.923  19.142 -22.858  0.00  0.00     0.205 A 
ATOM      4  C   UNL d   1      33.078  20.164 -21.994  0.00  0.00     0.236 A 
ATOM      5  N   UNL d   1      33.240  19.459 -21.596  0.00  0.00    -0.114 NA
ENDROOT
BRANCH   4   6
ATOM      6  S   UNL d   1      33.106  20.921 -21.677  0.00  0.00    -0.041 SA
BRANCH   6   7
ATOM      7  C   UNL d   1      32.495  21.197 -21.176  0.00  0.00     0.039 C 
BRANCH   7   8
ATOM      8  C   UNL d   1      32.511  21.950 -20.890  0.00  0.00     0.007 A 
ATOM      9  C   UNL d   1      32.954  22.134 -20.216  0.00  0.00     0.001 A 
ATOM     10  C   UNL d   1      32.979  22.900 -19.913  0.00  0.00     0.000 A 
ATOM     11  C   UNL d   1      32.551  23.498 -20.291  0.00  0.00     0.000 A 
ATOM     12  C   UNL d   1      32.100  23.310 -20.978  0.00  0.00     0.000 A 
ATOM     13  C   UNL d   1      32.083  22.550 -21.268  0.00  0.00     0.001 A 
ENDBRANCH   7   8
ENDBRANCH   6   7
ENDBRANCH   4   6
BRANCH   3  14
ATOM     14  C   UNL d   1      32.782  18.673 -23.515  0.00  0.00     0.046 A 
ATOM     15  C   UNL d   1      32.191  18.093 -23.483  0.00  0.00     0.024 A 
ATOM     16  C   UNL d   1      32.046  17.621 -24.139  0.00  0.00     0.099 A 
ATOM     17  N   UNL d   1      32.494  17.729 -24.837  0.00  0.00    -0.242 NA
ATOM     18  C   UNL d   1      33.060  18.299 -24.842  0.00  0.00     0.099 A 
ATOM     19  C   UNL d   1      33.215  18.778 -24.190  0.00  0.00     0.024 A 
ENDBRANCH   3  14
TORSDOF 4
ENDMDL
MODEL 2
REMARK VINA RESULT:      -3.0      1.094      1.699
REMARK  4 active torsions:
REMARK  status: ('A' for Active; 'I' for Inactive)
REMARK    1  A    between atoms: C_7  and  C_3 
REMARK    2  A    between atoms: S_6  and  C_4 
REMARK    3  A    between atoms: C_9  and  S_6 
REMARK    4  A    between atoms: C_10  and  C_9 
ROOT
ATOM      1  O   UNL d   1      32.748  18.621 -22.724  0.00  0.00    -0.263 OA
ATOM      2  N   UNL d   1      32.960  18.686 -24.058  0.00  0.00    -0.120 NA
ATOM      3  C   UNL d   1      32.674  18.198 -23.435  0.00  0.00     0.205 A 
ATOM      4  C   UNL d   1      33.075  19.366 -22.897  0.00  0.00     0.236 A 
ATOM      5  N   UNL d   1      33.201  19.397 -23.712  0.00  0.00    -0.114 NA
ENDROOT
BRANCH   4   6
ATOM      6  S   UNL d   1      33.241  19.959 -22.354  0.00  0.00    -0.041 SA
BRANCH   6   7
ATOM      7  C   UNL d   1      32.685  20.164 -21.762  0.00  0.00     0.039 C 
BRANCH   7   8
ATOM      8  C   UNL d   1      32.777  20.839 -21.333  0.00  0.00     0.007 A 
ATOM      9  C   UNL d   1      32.501  21.563 -21.625  0.00  0.00     0.001 A 
ATOM     10  C   UNL d   1      32.589  22.262 -21.195  0.00  0.00     0.000 A 
ATOM     11  C   UNL d   1      32.960  22.238 -20.457  0.00  0.00     0.000 A 
ATOM     12  C   UNL d   1      33.241  21.501 -20.160  0.00  0.00     0.000 A 
ATOM     13  C   UNL d   1      33.149  20.818 -20.593  0.00  0.00     0.001 A 
ENDBRANCH   7   8
ENDBRANCH   6   7
ENDBRANCH   4   6
BRANCH   3  14
ATOM     14  C   UNL d   1      32.385  17.442 -23.565  0.00  0.00     0.046 A 
ATOM     15  C   UNL d   1      31.667  17.344 -23.968  0.00  0.00     0.024 A 
ATOM     16  C   UNL d   1      31.373  16.588 -24.100  0.00  0.00     0.099 A 
ATOM     17  N   UNL d   1      31.799  15.922 -23.827  0.00  0.00    -0.242 NA
ATOM     18  C   UNL d   1      32.492  16.045 -23.440  0.00  0.00     0.099 A 
ATOM     19  C   UNL d   1      32.797  16.798 -23.301  0.00  0.00     0.024 A 
ENDBRANCH   3  14
TORSDOF 4
ENDMDL
MODEL 3
REMARK VINA RESULT:      -2.9      1.463      4.994
REMARK  4 active torsions:
REMARK  status: ('A' for Active; 'I' for Inactive)
REMARK    1  A    between atoms: C_7  and  C_3 
REMARK    2  A    between atoms: S_6  and  C_4 
REMARK    3  A    between atoms: C_9  and  S_6 
REMARK    4  A    between atoms: C_10  and  C_9 
ROOT
ATOM      1  O   UNL d   1      32.833  19.666 -22.095  0.00  0.00    -0.263 OA
ATOM      2  N   UNL d   1      33.226  20.556 -23.034  0.00  0.00    -0.120 NA
ATOM      3  C   UNL d   1      32.969  20.474 -22.238  0.00  0.00     0.205 A 
ATOM      4  C   UNL d   1      33.002  19.246 -22.793  0.00  0.00     0.236 A 
ATOM      5  N   UNL d   1      33.241  19.796 -23.360  0.00  0.00    -0.114 NA
ENDROOT
BRANCH   4   6
ATOM      6  S   UNL d   1      32.941  18.434 -22.895  0.00  0.00    -0.041 SA
BRANCH   6   7
ATOM      7  C   UNL d   1      32.494  18.116 -23.527  0.00  0.00     0.039 C 
BRANCH   7   8
ATOM      8  C   UNL d   1      32.350  17.324 -23.567  0.00  0.00     0.007 A 
ATOM      9  C   UNL d   1      32.977  16.784 -23.580  0.00  0.00     0.001 A 
ATOM     10  C   UNL d   1      32.843  15.971 -23.620  0.00  0.00     0.000 A 
ATOM     11  C   UNL d   1      32.067  15.690 -23.648  0.00  0.00     0.000 A 
ATOM     12  C   UNL d   1      31.428  16.241 -23.635  0.00  0.00     0.000 A 
ATOM     13  C   UNL d   1      31.572  17.041 -23.595  0.00  0.00     0.001 A 
ENDBRANCH   7   8
ENDBRANCH   6   7
ENDBRANCH   4   6
BRANCH   3  14
ATOM     14  C   UNL d   1      32.885  21.114 -21.733  0.00  0.00     0.046 A 
ATOM     15  C   UNL d   1      33.212  21.846 -21.945  0.00  0.00     0.024 A 
ATOM     16  C   UNL d   1      33.130  22.490 -21.442  0.00  0.00     0.099 A 
ATOM     17  N   UNL d   1      32.718  22.405 -20.719  0.00  0.00    -0.242 NA
ATOM     18  C   UNL d   1      32.412  21.685 -20.537  0.00  0.00     0.099 A 
ATOM     19  C   UNL d   1      32.487  21.031 -21.033  0.00  0.00     0.024 A 
ENDBRANCH   3  14
TORSDOF 4
ENDMDL
MODEL 4
REMARK VINA RESULT:      -2.1      1.509      4.941
REMARK  4 active torsions:
REMARK  status: ('A' for Active; 'I' for Inactive)
REMARK    1  A    between atoms: C_7  and  C_3 
REMARK    2  A    between atoms: S_6  and  C_4 
REMARK    3  A    between atoms: C_9  and  S_6 
REMARK    4  A    between atoms: C_10  and  C_9 
ROOT
ATOM      1  O   UNL d   1      33.156  20.968 -21.399  0.00  0.00    -0.263 OA
ATOM      2  N   UNL d   1      32.670  22.008 -22.113  0.00  0.00    -0.120 NA
ATOM      3  C   UNL d   1      32.915  21.762 -21.347  0.00  0.00     0.205 A 
ATOM      4  C   UNL d   1      33.064  20.718 -22.187  0.00  0.00     0.236 A 
ATOM      5  N   UNL d   1      32.767  21.358 -22.616  0.00  0.00    -0.114 NA
ENDROOT
BRANCH   4   6
ATOM      6  S   UNL d   1      33.238  19.972 -22.481  0.00  0.00    -0.041 SA
BRANCH   6   7
ATOM      7  C   UNL d   1      32.628  19.467 -22.754  0.00  0.00     0.039 C 
BRANCH   7   8
ATOM      8  C   UNL d   1      32.807  18.775 -23.124  0.00  0.00     0.007 A 
ATOM      9  C   UNL d   1      33.042  18.113 -22.687  0.00  0.00     0.001 A 
ATOM     10  C   UNL d   1      33.227  17.398 -23.053  0.00  0.00     0.000 A 
ATOM     11  C   UNL d   1      33.178  17.342 -23.877  0.00  0.00     0.000 A 
ATOM     12  C   UNL d   1      32.939  18.017 -24.322  0.00  0.00     0.000 A 
ATOM     13  C   UNL d   1      32.758  18.717 -23.949  0.00  0.00     0.001 A 
ENDBRANCH   7   8
ENDBRANCH   6   7
ENDBRANCH   4   6
BRANCH   3  14
ATOM     14  C   UNL d   1      32.897  22.260 -20.697  0.00  0.00     0.046 A 
ATOM     15  C   UNL d   1      33.224  22.007 -19.979  0.00  0.00     0.024 A 
ATOM     16  C   UNL d   1      33.209  22.503 -19.326  0.00  0.00     0.099 A 
ATOM     17  N   UNL d   1      32.863  23.262 -19.387  0.00  0.00    -0.242 NA
ATOM     18  C   UNL d   1      32.554  23.484 -20.094  0.00  0.00     0.099 A 
ATOM     19  C   UNL d   1      32.563  22.995 -20.757  0.00  0.00     0.024 A 
ENDBRANCH   3  14
TORSDOF 4
ENDMDL
MODEL 5
REMARK VINA RESULT:      -2.1      2.865      4.266
REMARK  4 active torsions:
REMARK  status: ('A' for Active; 'I' for Inactive)
REMARK    1  A    between atoms: C_7  and  C_3 
REMARK    2  A    between atoms: S_6  and  C_4 
REMARK    3  A    between atoms: C_9  and  S_6 
REMARK    4  A    between atoms: C_10  and  C_9 
ROOT
ATOM      1  O   UNL d   1      31.058  16.694 -23.598  0.00  0.00    -0.263 OA
ATOM      2  N   UNL d   1      31.357  15.456 -24.053  0.00  0.00    -0.120 NA
ATOM      3  C   UNL d   1      30.729  15.997 -23.912  0.00  0.00     0.205 A 
ATOM      4  C   UNL d   1      31.881  16.591 -23.544  0.00  0.00     0.236 A 
ATOM      5  N   UNL d   1      32.055  15.834 -23.823  0.00  0.00    -0.114 NA
ENDROOT
BRANCH   4   6
ATOM      6  S   UNL d   1      32.419  17.144 -23.263  0.00  0.00    -0.041 SA
BRANCH   6   7
ATOM      7  C   UNL d   1      32.621  17.815 -23.721  0.00  0.00     0.039 C 
BRANCH   7   8
ATOM      8  C   UNL d   1      32.820  18.508 -23.363  0.00  0.00     0.007 A 
ATOM      9  C   UNL d   1      33.035  18.522 -22.565  0.00  0.00     0.001 A 
ATOM     10  C   UNL d   1      33.241  19.225 -22.186  0.00  0.00     0.000 A 
ATOM     11  C   UNL d   1      33.233  19.932 -22.615  0.00  0.00     0.000 A 
ATOM     12  C   UNL d   1      33.014  19.918 -23.429  0.00  0.00     0.000 A 
ATOM     13  C   UNL d   1      32.813  19.218 -23.792  0.00  0.00     0.001 A 
ENDBRANCH   7   8
ENDBRANCH   6   7
ENDBRANCH   4   6
BRANCH   3  14
ATOM     14  C   UNL d   1      29.946  15.817 -24.073  0.00  0.00     0.046 A 
ATOM     15  C   UNL d   1      29.412  15.722 -23.447  0.00  0.00     0.024 A 
ATOM     16  C   UNL d   1      28.626  15.541 -23.604  0.00  0.00     0.099 A 
ATOM     17  N   UNL d   1      28.369  15.454 -24.395  0.00  0.00    -0.242 NA
ATOM     18  C   UNL d   1      28.907  15.551 -24.984  0.00  0.00     0.099 A 
ATOM     19  C   UNL d   1      29.698  15.733 -24.839  0.00  0.00     0.024 A 
ENDBRANCH   3  14
TORSDOF 4
ENDMDL
MODEL 6
REMARK VINA RESULT:      -1.9      3.000      5.844
REMARK  4 active torsions:
REMARK  status: ('A' for Active; 'I' for Inactive)
REMARK    1  A    between atoms: C_7  and  C_3 
REMARK    2  A    between atoms: S_6  and  C_4 
REMARK    3  A    between atoms: C_9  and  S_6 
REMARK    4  A    between atoms: C_10  and  C_9 
ROOT
ATOM      1  O   UNL d   1      32.986  22.434 -19.024  0.00  0.00    -0.263 OA
ATOM      2  N   UNL d   1      32.524  23.702 -18.927  0.00  0.00    -0.120 NA
ATOM      3  C   UNL d   1      32.803  23.042 -18.487  0.00  0.00     0.205 A 
ATOM      4  C   UNL d   1      32.825  22.709 -19.792  0.00  0.00     0.236 A 
ATOM      5  N   UNL d   1      32.544  23.483 -19.724  0.00  0.00    -0.114 NA
ENDROOT
BRANCH   4   6
ATOM      6  S   UNL d   1      32.927  22.287 -20.488  0.00  0.00    -0.041 SA
BRANCH   6   7
ATOM      7  C   UNL d   1      32.509  21.574 -20.621  0.00  0.00     0.039 C 
BRANCH   7   8
ATOM      8  C   UNL d   1      32.748  21.061 -21.194  0.00  0.00     0.007 A 
ATOM      9  C   UNL d   1      32.794  21.304 -21.983  0.00  0.00     0.001 A 
ATOM     10  C   UNL d   1      33.037  20.789 -22.580  0.00  0.00     0.000 A 
ATOM     11  C   UNL d   1      33.241  20.013 -22.383  0.00  0.00     0.000 A 
ATOM     12  C   UNL d   1      33.194  19.765 -21.579  0.00  0.00     0.000 A 
ATOM     13  C   UNL d   1      32.953  20.282 -20.999  0.00  0.00     0.001 A 
ENDBRANCH   7   8
ENDBRANCH   6   7
ENDBRANCH   4   6
BRANCH   3  14
ATOM     14  C   UNL d   1      32.863  23.050 -17.669  0.00  0.00     0.046 A 
ATOM     15  C   UNL d   1      32.595  22.398 -17.234  0.00  0.00     0.024 A 
ATOM     16  C   UNL d   1      32.653  22.402 -16.414  0.00  0.00     0.099 A 
ATOM     17  N   UNL d   1      32.982  23.064 -16.024  0.00  0.00    -0.242 NA
ATOM     18  C   UNL d   1      33.234  23.684 -16.469  0.00  0.00     0.099 A 
ATOM     19  C   UNL d   1      33.181  23.691 -17.291  0.00  0.00     0.024 A 
ENDBRANCH   3  14
TORSDOF 4
ENDMDL
MODEL 7
REMARK VINA RESULT:      -1.7      1.297      4.884
REMARK  4 active torsions:
REMARK  status: ('A' for Active; 'I' for Inactive)
REMARK    1  A    between atoms: C_7  and  C_3 
REMARK    2  A    between atoms: S_6  and  C_4 
REMARK    3  A    between atoms: C_9  and  S_6 
REMARK    4  A    between atoms: C_10  and  C_9 
ROOT
ATOM      1  O   UNL d   1      32.905  20.517 -22.295  0.00  0.00    -0.263 OA
ATOM      2  N   UNL d   1      33.095  20.344 -20.967  0.00  0.00    -0.120 NA
ATOM      3  C   UNL d   1      32.884  20.902 -21.558  0.00  0.00     0.205 A 
ATOM      4  C   UNL d   1      33.127  19.725 -22.167  0.00  0.00     0.236 A 
ATOM      5  N   UNL d   1      33.241  19.628 -21.355  0.00  0.00    -0.114 NA
ENDROOT
BRANCH   4   6
ATOM      6  S   UNL d   1      33.215  19.149 -22.745  0.00  0.00    -0.041 SA
BRANCH   6   7
ATOM      7  C   UNL d   1      32.629  18.562 -22.856  0.00  0.00     0.039 C 
BRANCH   7   8
ATOM      8  C   UNL d   1      32.703  18.019 -23.446  0.00  0.00     0.007 A 
ATOM      9  C   UNL d   1      32.484  18.208 -24.221  0.00  0.00     0.001 A 
ATOM     10  C   UNL d   1      32.554  17.661 -24.835  0.00  0.00     0.000 A 
ATOM     11  C   UNL d   1      32.850  16.907 -24.671  0.00  0.00     0.000 A 
ATOM     12  C   UNL d   1      33.073  16.714 -23.881  0.00  0.00     0.000 A 
ATOM     13  C   UNL d   1      32.999  17.262 -23.284  0.00  0.00     0.001 A 
ENDBRANCH   7   8
ENDBRANCH   6   7
ENDBRANCH   4   6
BRANCH   3  14
ATOM     14  C   UNL d   1      32.698  21.681 -21.383  0.00  0.00     0.046 A 
ATOM     15  C   UNL d   1      32.944  22.284 -21.895  0.00  0.00     0.024 A 
ATOM     16  C   UNL d   1      32.761  23.066 -21.723  0.00  0.00     0.099 A 
ATOM     17  N   UNL d   1      32.326  23.250 -21.033  0.00  0.00    -0.242 NA
ATOM     18  C   UNL d   1      32.100  22.647 -20.553  0.00  0.00     0.099 A 
ATOM     19  C   UNL d   1      32.278  21.859 -20.715  0.00  0.00     0.024 A 
ENDBRANCH   3  14
TORSDOF 4
ENDMDL
