MODEL 1
REMARK VINA RESULT:      82.8      0.000      0.000
REMARK  4 active torsions:
REMARK  status: ('A' for Active; 'I' for Inactive)
REMARK    1  A    between atoms: C_14  and  N_3 
REMARK    2  A    between atoms: C_9  and  C_5 
REMARK    3  A    between atoms: C_19  and  C_14 
REMARK    4  A    between atoms: C_23  and  C_19 
ROOT
ATOM      1  C   UNL d   1     -57.351 -99.105 -44.117  0.00  0.00     0.083 A 
ATOM      2  C   UNL d   1     -57.902 -98.933 -44.703  0.00  0.00     0.161 A 
ATOM      3  N   UNL d   1     -56.712 -99.069 -45.299  0.00  0.00    -0.272 N 
ATOM      4  C   UNL d   1     -57.513 -98.910 -45.436  0.00  0.00     0.288 A 
ATOM      5  C   UNL d   1     -56.612 -99.190 -44.482  0.00  0.00     0.072 A 
ATOM      6  C   UNL d   1     -57.583 -99.163 -43.328  0.00  0.00     0.201 A 
ATOM      7  O   UNL d   1     -58.701 -98.817 -44.497  0.00  0.00    -0.302 OA
ATOM      8  C   UNL d   1     -58.375 -99.048 -43.128  0.00  0.00     0.062 A 
ATOM      9  C   UNL d   1     -58.930 -98.876 -43.711  0.00  0.00     0.103 A 
ATOM     10  O   UNL d   1     -57.856 -98.757 -46.165  0.00  0.00    -0.264 OA
ATOM     11  O   UNL d   1     -57.031 -99.335 -42.742  0.00  0.00    -0.286 OA
ATOM     12  C   UNL d   1     -58.610 -99.106 -42.335  0.00  0.00     0.005 A 
ATOM     13  C   UNL d   1     -59.728 -98.761 -43.498  0.00  0.00     0.025 A 
ATOM     14  C   UNL d   1     -59.397 -98.992 -42.129  0.00  0.00     0.000 A 
ATOM     15  C   UNL d   1     -59.957 -98.819 -42.712  0.00  0.00     0.002 A 
ENDROOT
BRANCH   5  16
ATOM     16  C   UNL d   1     -56.057 -99.362 -43.899  0.00  0.00     0.019 A 
ATOM     17  C   UNL d   1     -55.778-100.135 -43.797  0.00  0.00     0.031 A 
ATOM     18  C   UNL d   1     -55.223-100.302 -43.213  0.00  0.00     0.140 A 
ATOM     19  F   UNL d   1     -54.951-101.074 -43.118  0.00  0.00    -0.204 F 
ATOM     20  C   UNL d   1     -54.938 -99.696 -42.720  0.00  0.00     0.030 A 
ATOM     21  C   UNL d   1     -55.217 -98.923 -42.821  0.00  0.00     0.002 A 
ATOM     22  C   UNL d   1     -55.777 -98.758 -43.412  0.00  0.00     0.002 A 
ENDBRANCH   5  16
BRANCH   3  23
ATOM     23  C   UNL d   1     -56.118 -99.103 -45.868  0.00  0.00     0.086 C 
BRANCH  23  24
ATOM     24  C   UNL d   1     -55.330 -99.129 -45.635  0.00  0.00     0.065 C 
BRANCH  24  25
ATOM     25  C   UNL d   1     -54.731 -99.040 -46.194  0.00  0.00     0.236 C 
ATOM     26  O   UNL d   1     -54.907 -98.760 -46.938  0.00  0.00    -0.283 OA
ENDBRANCH  24  25
ENDBRANCH  23  24
ENDBRANCH   3  23
TORSDOF 4
ENDMDL
