MODEL 1
REMARK VINA RESULT:      50.4      0.000      0.000
REMARK  4 active torsions:
REMARK  status: ('A' for Active; 'I' for Inactive)
REMARK    1  A    between atoms: C_2  and  C_3 
REMARK    2  A    between atoms: N_4  and  C_2 
REMARK    3  A    between atoms: C_12  and  N_4 
REMARK    4  A    between atoms: N_8  and  C_7 
ROOT
ATOM      1  C   UNL d   1     -50.790  26.733  33.432  0.00  0.00     0.153 C 
ATOM      2  S   UNL d   1     -51.154  27.472  33.472  0.00  0.00    -0.056 SA
ENDROOT
BRANCH   1   3
ATOM      3  C   UNL d   1     -51.251  26.052  33.401  0.00  0.00     0.109 A 
ATOM      4  N   UNL d   1     -50.893  25.307  33.419  0.00  0.00    -0.243 NA
ATOM      5  C   UNL d   1     -51.355  24.627  33.388  0.00  0.00     0.081 A 
ATOM      6  C   UNL d   1     -52.176  24.687  33.339  0.00  0.00     0.018 A 
ATOM      7  C   UNL d   1     -50.997  23.878  33.405  0.00  0.00     0.019 A 
ATOM      8  C   UNL d   1     -52.540  25.427  33.321  0.00  0.00     0.003 A 
ATOM      9  C   UNL d   1     -52.639  23.998  33.307  0.00  0.00     0.002 A 
ATOM     10  C   UNL d   1     -52.078  26.112  33.352  0.00  0.00     0.021 A 
ATOM     11  C   UNL d   1     -52.280  23.258  33.325  0.00  0.00     0.000 A 
ATOM     12  C   UNL d   1     -51.458  23.198  33.374  0.00  0.00     0.002 A 
ENDBRANCH   1   3
BRANCH   1  13
ATOM     13  N   UNL d   1     -49.967  26.675  33.423  0.00  0.00    -0.233 NA
BRANCH  13  14
ATOM     14  C   UNL d   1     -49.514  27.205  33.858  0.00  0.00     0.083 A 
ATOM     15  C   UNL d   1     -48.841  26.936  34.257  0.00  0.00     0.021 A 
ATOM     16  C   UNL d   1     -48.389  27.469  34.691  0.00  0.00     0.019 A 
ATOM     17  C   UNL d   1     -48.611  28.272  34.727  0.00  0.00     0.064 A 
ATOM     18  C   UNL d   1     -49.281  28.533  34.328  0.00  0.00     0.019 A 
ATOM     19  C   UNL d   1     -49.734  27.999  33.893  0.00  0.00     0.021 A 
BRANCH  17  20
ATOM     20  N   UNL d   1     -48.149  28.808  35.169  0.00  0.00    -0.301 N 
ATOM     21  C   UNL d   1     -47.438  29.072  34.867  0.00  0.00     0.100 C 
ATOM     22  C   UNL d   1     -48.407  29.067  35.902  0.00  0.00     0.100 C 
ENDBRANCH  17  20
ENDBRANCH  13  14
ENDBRANCH   1  13
TORSDOF 4
ENDMDL
