MODEL 1
REMARK VINA RESULT:      32.5      0.000      0.000
REMARK  5 active torsions:
REMARK  status: ('A' for Active; 'I' for Inactive)
REMARK    1  A    between atoms: C_3  and  N_1 
REMARK       I    between atoms: C_2  and  N_4 
REMARK    2  A    between atoms: C_10  and  C_2 
REMARK    3  A    between atoms: N_4  and  C_9 
REMARK    4  A    between atoms: C_13  and  C_10 
REMARK    5  A    between atoms: C_16  and  C_13 
ROOT
ATOM      1  C   UNL d   1      46.051 -18.797  41.950  0.00  0.00     0.064 A 
ATOM      2  C   UNL d   1      45.306 -18.457  41.813  0.00  0.00     0.020 A 
ATOM      3  C   UNL d   1      46.591 -18.862  41.330  0.00  0.00     0.020 A 
ATOM      4  C   UNL d   1      45.642 -18.248  40.449  0.00  0.00     0.135 A 
ATOM      5  C   UNL d   1      46.387 -18.586  40.574  0.00  0.00     0.034 A 
ATOM      6  C   UNL d   1      45.106 -18.184  41.063  0.00  0.00     0.034 A 
ENDROOT
BRANCH   4   7
ATOM      7  N   UNL d   1      45.438 -17.973  39.699  0.00  0.00    -0.365 NA
ATOM      8  C   UNL d   1      45.231 -17.698  38.943  0.00  0.00     0.328 C 
ATOM      9  O   UNL d   1      44.918 -18.221  38.387  0.00  0.00    -0.251 OA
BRANCH   8  10
ATOM     10  C   UNL d   1      45.339 -16.905  38.748  0.00  0.00     0.076 C 
BRANCH  10  11
ATOM     11  C   UNL d   1      44.752 -16.492  38.353  0.00  0.00     0.006 C 
BRANCH  11  12
ATOM     12  C   UNL d   1      44.946 -16.001  37.718  0.00  0.00     0.000 A 
ATOM     13  C   UNL d   1      45.666 -15.595  37.717  0.00  0.00     0.000 A 
ATOM     14  C   UNL d   1      45.867 -15.100  37.082  0.00  0.00     0.000 A 
ATOM     15  C   UNL d   1      45.345 -15.012  36.450  0.00  0.00     0.000 A 
ATOM     16  C   UNL d   1      44.621 -15.421  36.452  0.00  0.00     0.000 A 
ATOM     17  C   UNL d   1      44.424 -15.914  37.086  0.00  0.00     0.000 A 
ENDBRANCH  11  12
ENDBRANCH  10  11
ENDBRANCH   8  10
ENDBRANCH   4   7
BRANCH   1  18
ATOM     18  N   UNL d   1      46.250 -19.070  42.700  0.00  0.00    -0.300 N 
ATOM     19  C   UNL d   1      46.255 -19.881  42.850  0.00  0.00     0.107 A 
ATOM     20  C   UNL d   1      46.454 -20.155  43.600  0.00  0.00     0.142 A 
ATOM     21  O   UNL d   1      46.646 -19.625  44.196  0.00  0.00    -0.300 OA
ATOM     22  C   UNL d   1      46.640 -18.814  44.047  0.00  0.00     0.142 A 
ATOM     23  C   UNL d   1      46.441 -18.534  43.294  0.00  0.00     0.107 A 
ENDBRANCH   1  18
TORSDOF 5
ENDMDL
MODEL 2
REMARK VINA RESULT:      35.0      2.804      5.063
REMARK  5 active torsions:
REMARK  status: ('A' for Active; 'I' for Inactive)
REMARK    1  A    between atoms: C_3  and  N_1 
REMARK       I    between atoms: C_2  and  N_4 
REMARK    2  A    between atoms: C_10  and  C_2 
REMARK    3  A    between atoms: N_4  and  C_9 
REMARK    4  A    between atoms: C_13  and  C_10 
REMARK    5  A    between atoms: C_16  and  C_13 
ROOT
ATOM      1  C   UNL d   1      46.142 -18.773  41.476  0.00  0.00     0.064 A 
ATOM      2  C   UNL d   1      45.605 -18.147  41.564  0.00  0.00     0.020 A 
ATOM      3  C   UNL d   1      46.647 -18.970  42.098  0.00  0.00     0.020 A 
ATOM      4  C   UNL d   1      46.074 -17.917  42.885  0.00  0.00     0.135 A 
ATOM      5  C   UNL d   1      46.614 -18.540  42.808  0.00  0.00     0.034 A 
ATOM      6  C   UNL d   1      45.575 -17.722  42.268  0.00  0.00     0.034 A 
ENDROOT
BRANCH   4   7
ATOM      7  N   UNL d   1      46.040 -17.489  43.588  0.00  0.00    -0.365 NA
ATOM      8  C   UNL d   1      46.007 -17.059  44.299  0.00  0.00     0.328 C 
ATOM      9  O   UNL d   1      46.455 -17.303  44.947  0.00  0.00    -0.251 OA
BRANCH   8  10
ATOM     10  C   UNL d   1      45.529 -16.390  44.355  0.00  0.00     0.076 C 
BRANCH  10  11
ATOM     11  C   UNL d   1      45.793 -15.726  44.754  0.00  0.00     0.006 C 
BRANCH  11  12
ATOM     12  C   UNL d   1      45.488 -14.982  44.567  0.00  0.00     0.000 A 
ATOM     13  C   UNL d   1      46.002 -14.355  44.407  0.00  0.00     0.000 A 
ATOM     14  C   UNL d   1      45.701 -13.604  44.219  0.00  0.00     0.000 A 
ATOM     15  C   UNL d   1      44.886 -13.484  44.193  0.00  0.00     0.000 A 
ATOM     16  C   UNL d   1      44.370 -14.115  44.354  0.00  0.00     0.000 A 
ATOM     17  C   UNL d   1      44.672 -14.862  44.541  0.00  0.00     0.000 A 
ENDBRANCH  11  12
ENDBRANCH  10  11
ENDBRANCH   8  10
ENDBRANCH   4   7
BRANCH   1  18
ATOM     18  N   UNL d   1      46.172 -19.197  40.771  0.00  0.00    -0.300 N 
ATOM     19  C   UNL d   1      46.601 -19.901  40.739  0.00  0.00     0.107 A 
ATOM     20  C   UNL d   1      46.631 -20.326  40.034  0.00  0.00     0.142 A 
ATOM     21  O   UNL d   1      46.238 -20.052  39.369  0.00  0.00    -0.300 OA
ATOM     22  C   UNL d   1      45.809 -19.348  39.402  0.00  0.00     0.142 A 
ATOM     23  C   UNL d   1      45.776 -18.917  40.107  0.00  0.00     0.107 A 
ENDBRANCH   1  18
TORSDOF 5
ENDMDL
