MODEL 1
REMARK VINA RESULT:      24.6      0.000      0.000
REMARK  3 active torsions:
REMARK  status: ('A' for Active; 'I' for Inactive)
REMARK    1  A    between atoms: C_6  and  N_1 
REMARK    2  A    between atoms: C_11  and  C_6 
REMARK    3  A    between atoms: C_9  and  C_11 
ROOT
ATOM      1  N   UNL d   1      13.506  13.039  -3.224  0.00  0.00    -0.240 N 
ATOM      2  C   UNL d   1      13.711  13.453  -3.902  0.00  0.00     0.267 A 
ATOM      3  C   UNL d   1      13.117  12.352  -3.460  0.00  0.00     0.267 A 
ATOM      4  C   UNL d   1      13.452  13.027  -4.555  0.00  0.00     0.061 A 
ATOM      5  C   UNL d   1      13.082  12.342  -4.280  0.00  0.00     0.061 A 
ATOM      6  O   UNL d   1      14.124  14.197  -3.899  0.00  0.00    -0.267 OA
ATOM      7  O   UNL d   1      12.820  11.782  -2.929  0.00  0.00    -0.267 OA
ATOM      8  C   UNL d   1      12.775  11.821  -4.804  0.00  0.00     0.005 A 
ATOM      9  C   UNL d   1      13.508  13.179  -5.350  0.00  0.00     0.005 A 
ATOM     10  C   UNL d   1      13.186  12.633  -5.893  0.00  0.00     0.000 A 
ATOM     11  C   UNL d   1      12.816  11.949  -5.619  0.00  0.00     0.000 A 
ENDROOT
BRANCH   1  12
ATOM     12  C   UNL d   1      13.661  13.267  -2.446  0.00  0.00     0.086 C 
BRANCH  12  13
ATOM     13  C   UNL d   1      14.428  13.214  -2.136  0.00  0.00     0.019 C 
BRANCH  13  14
ATOM     14  C   UNL d   1      14.549  12.798  -1.435  0.00  0.00     0.002 A 
ATOM     15  C   UNL d   1      14.108  12.959  -0.778  0.00  0.00     0.000 A 
ATOM     16  C   UNL d   1      14.233  12.536  -0.067  0.00  0.00     0.000 A 
ATOM     17  C   UNL d   1      14.815  11.943  -0.035  0.00  0.00     0.000 A 
ATOM     18  C   UNL d   1      15.253  11.786  -0.695  0.00  0.00     0.000 A 
ATOM     19  C   UNL d   1      15.132  12.206  -1.407  0.00  0.00     0.000 A 
ENDBRANCH  13  14
ENDBRANCH  12  13
ENDBRANCH   1  12
TORSDOF 3
ENDMDL
MODEL 2
REMARK VINA RESULT:      27.3      0.921      1.538
REMARK  3 active torsions:
REMARK  status: ('A' for Active; 'I' for Inactive)
REMARK    1  A    between atoms: C_6  and  N_1 
REMARK    2  A    between atoms: C_11  and  C_6 
REMARK    3  A    between atoms: C_9  and  C_11 
ROOT
ATOM      1  N   UNL d   1      13.325  12.838  -3.316  0.00  0.00    -0.240 N 
ATOM      2  C   UNL d   1      13.258  12.591  -4.095  0.00  0.00     0.267 A 
ATOM      3  C   UNL d   1      13.477  13.647  -3.324  0.00  0.00     0.267 A 
ATOM      4  C   UNL d   1      13.369  13.241  -4.585  0.00  0.00     0.061 A 
ATOM      5  C   UNL d   1      13.505  13.899  -4.105  0.00  0.00     0.061 A 
ATOM      6  O   UNL d   1      13.101  11.786  -4.328  0.00  0.00    -0.267 OA
ATOM      7  O   UNL d   1      13.581  14.106  -2.636  0.00  0.00    -0.267 OA
ATOM      8  C   UNL d   1      13.631  14.614  -4.441  0.00  0.00     0.005 A 
ATOM      9  C   UNL d   1      13.362  13.310  -5.393  0.00  0.00     0.005 A 
ATOM     10  C   UNL d   1      13.494  14.058  -5.740  0.00  0.00     0.000 A 
ATOM     11  C   UNL d   1      13.630  14.715  -5.260  0.00  0.00     0.000 A 
ENDROOT
BRANCH   1  12
ATOM     12  C   UNL d   1      13.252  12.363  -2.645  0.00  0.00     0.086 C 
BRANCH  12  13
ATOM     13  C   UNL d   1      13.864  11.847  -2.426  0.00  0.00     0.019 C 
BRANCH  13  14
ATOM     14  C   UNL d   1      14.128  11.847  -1.645  0.00  0.00     0.002 A 
ATOM     15  C   UNL d   1      13.605  11.805  -1.032  0.00  0.00     0.000 A 
ATOM     16  C   UNL d   1      13.876  11.805  -0.240  0.00  0.00     0.000 A 
ATOM     17  C   UNL d   1      14.690  11.849  -0.081  0.00  0.00     0.000 A 
ATOM     18  C   UNL d   1      15.209  11.891  -0.699  0.00  0.00     0.000 A 
ATOM     19  C   UNL d   1      14.944  11.891  -1.491  0.00  0.00     0.000 A 
ENDBRANCH  13  14
ENDBRANCH  12  13
ENDBRANCH   1  12
TORSDOF 3
ENDMDL
