MODEL 1
REMARK VINA RESULT:      35.7      0.000      0.000
REMARK  1 active torsions:
REMARK  status: ('A' for Active; 'I' for Inactive)
REMARK    1  A    between atoms: C_11  and  C_9 
ROOT
ATOM      1  N   UNL d   1     -51.877  24.730  33.379  0.00  0.00    -0.253 N 
ATOM      2  C   UNL d   1     -52.081  25.525  33.372  0.00  0.00     0.182 A 
ATOM      3  C   UNL d   1     -51.060  24.521  33.406  0.00  0.00     0.267 A 
ATOM      4  N   UNL d   1     -52.884  25.581  33.346  0.00  0.00    -0.221 NA
ATOM      5  S   UNL d   1     -51.515  26.116  33.390  0.00  0.00    -0.050 SA
ATOM      6  C   UNL d   1     -50.481  25.094  33.424  0.00  0.00     0.068 A 
ATOM      7  C   UNL d   1     -52.565  24.303  33.357  0.00  0.00     0.086 A 
ATOM      8  C   UNL d   1     -53.208  24.811  33.336  0.00  0.00     0.100 A 
ATOM      9  C   UNL d   1     -50.717  25.917  33.416  0.00  0.00     0.037 A 
ATOM     10  O   UNL d   1     -50.823  23.701  33.414  0.00  0.00    -0.267 OA
ATOM     11  C   UNL d   1     -52.699  23.466  33.353  0.00  0.00     0.019 A 
ATOM     12  C   UNL d   1     -53.968  24.529  33.311  0.00  0.00     0.021 A 
ATOM     13  C   UNL d   1     -53.470  23.194  33.329  0.00  0.00     0.002 A 
ATOM     14  C   UNL d   1     -54.095  23.700  33.308  0.00  0.00     0.002 A 
ENDROOT
BRANCH   9  15
ATOM     15  C   UNL d   1     -50.207  26.585  33.432  0.00  0.00     0.006 A 
ATOM     16  C   UNL d   1     -49.400  26.489  33.568  0.00  0.00     0.001 A 
ATOM     17  C   UNL d   1     -48.887  27.155  33.585  0.00  0.00     0.000 A 
ATOM     18  C   UNL d   1     -49.196  27.903  33.464  0.00  0.00     0.000 A 
ATOM     19  C   UNL d   1     -50.019  28.009  33.324  0.00  0.00     0.000 A 
ATOM     20  C   UNL d   1     -50.522  27.355  33.308  0.00  0.00     0.001 A 
ENDBRANCH   9  15
TORSDOF 1
ENDMDL
