MODEL 1
REMARK VINA RESULT:      44.8      0.000      0.000
REMARK  5 active torsions:
REMARK  status: ('A' for Active; 'I' for Inactive)
REMARK    1  A    between atoms: N_2  and  C_1 
REMARK       I    between atoms: C_7  and  N_2 
REMARK    2  A    between atoms: C_17  and  N_3 
REMARK    3  A    between atoms: C_14  and  C_7 
REMARK       I    between atoms: C_10  and  N_11 
REMARK    4  A    between atoms: N_11  and  C_12 
REMARK    5  A    between atoms: C_16  and  C_17 
ROOT
ATOM      1  C   UNL d   1      14.347  14.017  -2.329  0.00  0.00     0.182 A 
ATOM      2  N   UNL d   1      14.242  13.238  -2.088  0.00  0.00    -0.285 N 
ATOM      3  S   UNL d   1      14.041  14.091  -3.091  0.00  0.00    -0.048 SA
ATOM      4  C   UNL d   1      13.745  13.352  -3.322  0.00  0.00     0.050 A 
ATOM      5  C   UNL d   1      13.870  12.823  -2.700  0.00  0.00     0.072 A 
ATOM      6  C   UNL d   1      13.381  13.095  -4.016  0.00  0.00     0.027 A 
ATOM      7  C   UNL d   1      13.631  12.037  -2.771  0.00  0.00     0.020 A 
ATOM      8  C   UNL d   1      13.141  12.309  -4.087  0.00  0.00     0.085 A 
ATOM      9  C   UNL d   1      13.266  11.781  -3.465  0.00  0.00     0.021 A 
ENDROOT
BRANCH   1  10
ATOM     10  N   UNL d   1      14.698  14.615  -1.880  0.00  0.00    -0.184 NA
ATOM     11  C   UNL d   1      14.633  15.399  -2.127  0.00  0.00     0.281 C 
ATOM     12  O   UNL d   1      14.220  15.579  -2.817  0.00  0.00    -0.265 OA
BRANCH  11  13
ATOM     13  C   UNL d   1      14.981  16.003  -1.683  0.00  0.00     0.058 A 
ATOM     14  C   UNL d   1      15.161  16.739  -2.033  0.00  0.00     0.005 A 
ATOM     15  C   UNL d   1      15.509  17.343  -1.590  0.00  0.00     0.000 A 
ATOM     16  C   UNL d   1      15.683  17.219  -0.790  0.00  0.00     0.000 A 
ATOM     17  C   UNL d   1      15.506  16.492  -0.444  0.00  0.00     0.000 A 
ATOM     18  C   UNL d   1      15.158  15.888  -0.888  0.00  0.00     0.005 A 
ENDBRANCH  11  13
ENDBRANCH   1  10
BRANCH   2  19
ATOM     19  C   UNL d   1      14.467  12.917  -1.361  0.00  0.00     0.082 C 
BRANCH  19  20
ATOM     20  C   UNL d   1      13.906  12.581  -0.860  0.00  0.00     0.019 C 
ATOM     21  C   UNL d   1      14.112  11.952  -0.370  0.00  0.00     0.002 C 
ENDBRANCH  19  20
ENDBRANCH   2  19
BRANCH   8  22
ATOM     22  N   UNL d   1      12.770  12.046  -4.790  0.00  0.00    -0.208 NA
ATOM     23  C   UNL d   1      13.184  12.057  -5.495  0.00  0.00     0.279 C 
ATOM     24  O   UNL d   1      12.816  11.797  -6.185  0.00  0.00    -0.265 OA
ATOM     25  C   UNL d   1      13.964  12.325  -5.525  0.00  0.00     0.068 C 
ENDBRANCH   8  22
TORSDOF 5
ENDMDL
MODEL 2
REMARK VINA RESULT:      46.2      2.298      3.769
REMARK  5 active torsions:
REMARK  status: ('A' for Active; 'I' for Inactive)
REMARK    1  A    between atoms: N_2  and  C_1 
REMARK       I    between atoms: C_7  and  N_2 
REMARK    2  A    between atoms: C_17  and  N_3 
REMARK    3  A    between atoms: C_14  and  C_7 
REMARK       I    between atoms: C_10  and  N_11 
REMARK    4  A    between atoms: N_11  and  C_12 
REMARK    5  A    between atoms: C_16  and  C_17 
ROOT
ATOM      1  C   UNL d   1      13.619  13.759  -3.969  0.00  0.00     0.182 A 
ATOM      2  N   UNL d   1      13.241  13.031  -3.930  0.00  0.00    -0.285 N 
ATOM      3  S   UNL d   1      14.024  13.874  -3.260  0.00  0.00    -0.048 SA
ATOM      4  C   UNL d   1      13.895  13.211  -2.780  0.00  0.00     0.050 A 
ATOM      5  C   UNL d   1      13.409  12.687  -3.195  0.00  0.00     0.072 A 
ATOM      6  C   UNL d   1      14.156  13.018  -2.022  0.00  0.00     0.027 A 
ATOM      7  C   UNL d   1      13.184  11.971  -2.854  0.00  0.00     0.020 A 
ATOM      8  C   UNL d   1      13.932  12.302  -1.680  0.00  0.00     0.085 A 
ATOM      9  C   UNL d   1      13.446  11.779  -2.095  0.00  0.00     0.021 A 
ENDROOT
BRANCH   1  10
ATOM     10  N   UNL d   1      13.592  14.279  -4.610  0.00  0.00    -0.184 NA
ATOM     11  C   UNL d   1      13.597  15.093  -4.472  0.00  0.00     0.281 C 
ATOM     12  O   UNL d   1      13.630  15.378  -3.700  0.00  0.00    -0.265 OA
BRANCH  11  13
ATOM     13  C   UNL d   1      13.571  15.620  -5.108  0.00  0.00     0.058 A 
ATOM     14  C   UNL d   1      14.274  15.888  -5.468  0.00  0.00     0.005 A 
ATOM     15  C   UNL d   1      14.248  16.415  -6.104  0.00  0.00     0.000 A 
ATOM     16  C   UNL d   1      13.517  16.682  -6.389  0.00  0.00     0.000 A 
ATOM     17  C   UNL d   1      12.823  16.416  -6.033  0.00  0.00     0.000 A 
ATOM     18  C   UNL d   1      12.849  15.889  -5.397  0.00  0.00     0.005 A 
ENDBRANCH  11  13
ENDBRANCH   1  10
BRANCH   2  19
ATOM     19  C   UNL d   1      12.771  12.691  -4.519  0.00  0.00     0.082 C 
BRANCH  19  20
ATOM     20  C   UNL d   1      12.993  11.981  -4.874  0.00  0.00     0.019 C 
ATOM     21  C   UNL d   1      12.843  11.854  -5.674  0.00  0.00     0.002 C 
ENDBRANCH  19  20
ENDBRANCH   2  19
BRANCH   8  22
ATOM     22  N   UNL d   1      14.196  12.104  -0.910  0.00  0.00    -0.208 NA
ATOM     23  C   UNL d   1      14.993  11.988  -0.772  0.00  0.00     0.279 C 
ATOM     24  O   UNL d   1      15.250  11.793  -0.014  0.00  0.00    -0.265 OA
ATOM     25  C   UNL d   1      15.545  12.063  -1.383  0.00  0.00     0.068 C 
ENDBRANCH   8  22
TORSDOF 5
ENDMDL
