MODEL 1
REMARK VINA RESULT:      92.0      0.000      0.000
REMARK  6 active torsions:
REMARK  status: ('A' for Active; 'I' for Inactive)
REMARK    1  A    between atoms: C_10  and  N_2 
REMARK    2  A    between atoms: C_11  and  N_5 
REMARK    3  A    between atoms: C_21  and  C_10 
REMARK    4  A    between atoms: C_12  and  C_11 
REMARK       I    between atoms: N_16  and  C_12 
REMARK    5  A    between atoms: C_15  and  C_17 
REMARK    6  A    between atoms: C_17  and  N_16 
ROOT
ATOM      1  C   UNL d   1      59.289  49.707  51.925  0.00  0.00     0.102 A 
ATOM      2  N   UNL d   1      58.716  49.707  50.626  0.00  0.00    -0.225 N 
ATOM      3  C   UNL d   1      59.468  49.707  50.288  0.00  0.00     0.342 A 
ATOM      4  C   UNL d   1      60.049  49.707  51.584  0.00  0.00     0.080 A 
ATOM      5  N   UNL d   1      60.135  49.707  50.771  0.00  0.00    -0.253 N 
ATOM      6  C   UNL d   1      58.622  49.707  51.450  0.00  0.00     0.276 A 
ATOM      7  S   UNL d   1      59.387  49.707  52.752  0.00  0.00    -0.081 SA
ATOM      8  C   UNL d   1      60.604  49.707  52.201  0.00  0.00     0.023 A 
ATOM      9  C   UNL d   1      60.194  49.707  52.922  0.00  0.00     0.031 A 
ATOM     10  O   UNL d   1      59.553  49.707  49.472  0.00  0.00    -0.245 OA
ATOM     11  O   UNL d   1      57.874  49.708  51.776  0.00  0.00    -0.266 OA
ATOM     12  C   UNL d   1      61.426  49.707  52.193  0.00  0.00     0.002 A 
ATOM     13  C   UNL d   1      60.607  49.707  53.629  0.00  0.00     0.006 A 
ATOM     14  C   UNL d   1      61.845  49.707  52.905  0.00  0.00     0.000 A 
ATOM     15  C   UNL d   1      61.435  49.707  53.626  0.00  0.00     0.001 A 
ENDROOT
BRANCH   5  16
ATOM     16  C   UNL d   1      60.887  49.707  50.435  0.00  0.00     0.147 C 
BRANCH  16  17
ATOM     17  C   UNL d   1      61.134  49.063  49.973  0.00  0.00     0.297 C 
ATOM     18  N   UNL d   1      61.469  48.410  50.335  0.00  0.00    -0.205 NA
ATOM     19  O   UNL d   1      61.043  49.084  49.157  0.00  0.00    -0.264 OA
BRANCH  18  20
ATOM     20  C   UNL d   1      61.715  47.767  49.870  0.00  0.00     0.103 C 
BRANCH  20  21
ATOM     21  C   UNL d   1      61.470  46.996  50.074  0.00  0.00     0.030 A 
ATOM     22  C   UNL d   1      61.643  46.358  49.580  0.00  0.00     0.059 A 
ATOM     23 CL   UNL d   1      62.064  46.481  48.875  0.00  0.00    -0.082 Cl
ATOM     24  C   UNL d   1      61.395  45.601  49.794  0.00  0.00     0.011 A 
ATOM     25  C   UNL d   1      60.977  45.481  50.496  0.00  0.00     0.001 A 
ATOM     26  C   UNL d   1      60.808  46.124  50.984  0.00  0.00     0.000 A 
ATOM     27  C   UNL d   1      61.050  46.883  50.781  0.00  0.00     0.002 A 
ENDBRANCH  20  21
ENDBRANCH  18  20
ENDBRANCH  16  17
ENDBRANCH   5  16
BRANCH   2  28
ATOM     28  C   UNL d   1      58.044  49.707  50.138  0.00  0.00     0.087 C 
BRANCH  28  29
ATOM     29  C   UNL d   1      57.446  49.154  50.264  0.00  0.00     0.018 A 
ATOM     30  C   UNL d   1      57.574  48.372  50.038  0.00  0.00     0.002 A 
ATOM     31  C   UNL d   1      56.970  47.812  50.164  0.00  0.00     0.000 A 
ATOM     32  C   UNL d   1      56.254  48.047  50.513  0.00  0.00     0.000 A 
ATOM     33  C   UNL d   1      56.148  48.828  50.731  0.00  0.00     0.000 A 
ATOM     34  C   UNL d   1      56.743  49.384  50.607  0.00  0.00     0.002 A 
ENDBRANCH  28  29
ENDBRANCH   2  28
TORSDOF 6
ENDMDL
