MODEL 1
REMARK VINA RESULT:      -6.0      0.000      0.000
REMARK  5 active torsions:
REMARK  status: ('A' for Active; 'I' for Inactive)
REMARK    1  A    between atoms: C_3  and  C_2 
REMARK    2  A    between atoms: C_7  and  C_3 
REMARK    3  A    between atoms: C_10  and  C_4 
REMARK    4  A    between atoms: C_12  and  C_7 
REMARK    5  A    between atoms: C_18  and  C_11 
ROOT
ATOM      1  C   UNL d   1     -47.957  12.306  22.813  0.00  0.00     0.092 C 
ATOM      2  C   UNL d   1     -48.539  11.834  23.158  0.00  0.00     0.103 C 
ATOM      3  N   UNL d   1     -49.120  11.362  23.503  0.00  0.00    -0.191 NA
ENDROOT
BRANCH   1   4
ATOM      4  C   UNL d   1     -47.166  12.195  23.018  0.00  0.00     0.120 A 
ATOM      5  N   UNL d   1     -46.572  12.403  22.492  0.00  0.00    -0.238 NA
ATOM      6  C   UNL d   1     -45.842  12.227  22.853  0.00  0.00     0.088 A 
ATOM      7  C   UNL d   1     -46.006  11.918  23.585  0.00  0.00     0.056 A 
ATOM      8  S   UNL d   1     -46.810  11.894  23.698  0.00  0.00    -0.065 SA
BRANCH   6   9
ATOM      9  C   UNL d   1     -45.141  12.381  22.444  0.00  0.00     0.018 A 
ATOM     10  C   UNL d   1     -45.081  12.994  21.910  0.00  0.00     0.005 A 
ATOM     11  C   UNL d   1     -44.390  13.133  21.519  0.00  0.00     0.042 A 
ATOM     12  C   UNL d   1     -43.721  12.664  21.640  0.00  0.00     0.196 A 
ATOM     13  C   UNL d   1     -43.770  12.041  22.177  0.00  0.00     0.042 A 
ATOM     14  O   UNL d   1     -43.014  12.657  21.364  0.00  0.00    -0.287 OA
ATOM     15  C   UNL d   1     -44.477  11.903  22.576  0.00  0.00     0.005 A 
ENDBRANCH   6   9
ENDBRANCH   1   4
BRANCH   1  16
ATOM     16  C   UNL d   1     -48.161  12.888  22.264  0.00  0.00     0.012 C 
BRANCH  16  17
ATOM     17  C   UNL d   1     -48.774  13.440  22.437  0.00  0.00     0.001 A 
ATOM     18  C   UNL d   1     -49.524  13.275  22.145  0.00  0.00     0.000 A 
ATOM     19  C   UNL d   1     -50.162  13.831  22.314  0.00  0.00     0.000 A 
ATOM     20  C   UNL d   1     -49.990  14.510  22.766  0.00  0.00     0.000 A 
ATOM     21  C   UNL d   1     -49.228  14.652  23.047  0.00  0.00     0.000 A 
ATOM     22  C   UNL d   1     -48.621  14.134  22.893  0.00  0.00     0.000 A 
BRANCH  20  23
ATOM     23  C   UNL d   1     -50.634  15.042  22.919  0.00  0.00     0.000 C 
ATOM     24  C   UNL d   1     -50.842  15.249  23.684  0.00  0.00     0.000 C 
ATOM     25  C   UNL d   1     -51.051  15.350  22.274  0.00  0.00     0.000 C 
ENDBRANCH  20  23
ENDBRANCH  16  17
ENDBRANCH   1  16
TORSDOF 5
ENDMDL
MODEL 2
REMARK VINA RESULT:      -5.6      7.880      9.498
REMARK  5 active torsions:
REMARK  status: ('A' for Active; 'I' for Inactive)
REMARK    1  A    between atoms: C_3  and  C_2 
REMARK    2  A    between atoms: C_7  and  C_3 
REMARK    3  A    between atoms: C_10  and  C_4 
REMARK    4  A    between atoms: C_12  and  C_7 
REMARK    5  A    between atoms: C_18  and  C_11 
ROOT
ATOM      1  C   UNL d   1     -40.450  15.122  19.623  0.00  0.00     0.092 C 
ATOM      2  C   UNL d   1     -40.886  14.443  19.792  0.00  0.00     0.103 C 
ATOM      3  N   UNL d   1     -41.321  13.764  19.962  0.00  0.00    -0.191 NA
ENDROOT
BRANCH   1   4
ATOM      4  C   UNL d   1     -40.279  15.314  18.839  0.00  0.00     0.120 A 
ATOM      5  N   UNL d   1     -39.756  14.853  18.408  0.00  0.00    -0.238 NA
ATOM      6  C   UNL d   1     -39.698  15.181  17.645  0.00  0.00     0.088 A 
ATOM      7  C   UNL d   1     -40.184  15.830  17.627  0.00  0.00     0.056 A 
ATOM      8  S   UNL d   1     -40.545  15.922  18.350  0.00  0.00    -0.065 SA
BRANCH   6   9
ATOM      9  C   UNL d   1     -39.203  14.826  17.088  0.00  0.00     0.018 A 
ATOM     10  C   UNL d   1     -38.418  15.034  17.015  0.00  0.00     0.005 A 
ATOM     11  C   UNL d   1     -37.947  14.678  16.466  0.00  0.00     0.042 A 
ATOM     12  C   UNL d   1     -38.237  14.094  15.960  0.00  0.00     0.196 A 
ATOM     13  C   UNL d   1     -39.028  13.875  16.023  0.00  0.00     0.042 A 
ATOM     14  O   UNL d   1     -37.940  13.670  15.404  0.00  0.00    -0.287 OA
ATOM     15  C   UNL d   1     -39.506  14.241  16.586  0.00  0.00     0.005 A 
ENDBRANCH   6   9
ENDBRANCH   1   4
BRANCH   1  16
ATOM     16  C   UNL d   1     -40.184  15.612  20.232  0.00  0.00     0.012 C 
BRANCH  16  17
ATOM     17  C   UNL d   1     -39.755  15.288  20.882  0.00  0.00     0.001 A 
ATOM     18  C   UNL d   1     -40.150  15.222  21.599  0.00  0.00     0.000 A 
ATOM     19  C   UNL d   1     -39.724  14.893  22.274  0.00  0.00     0.000 A 
ATOM     20  C   UNL d   1     -38.933  14.657  22.168  0.00  0.00     0.000 A 
ATOM     21  C   UNL d   1     -38.559  14.734  21.436  0.00  0.00     0.000 A 
ATOM     22  C   UNL d   1     -38.952  15.043  20.796  0.00  0.00     0.000 A 
BRANCH  20  23
ATOM     23  C   UNL d   1     -38.535  14.335  22.845  0.00  0.00     0.000 C 
ATOM     24  C   UNL d   1     -38.157  14.821  23.387  0.00  0.00     0.000 C 
ATOM     25  C   UNL d   1     -38.536  13.514  22.949  0.00  0.00     0.000 C 
ENDBRANCH  20  23
ENDBRANCH  16  17
ENDBRANCH   1  16
TORSDOF 5
ENDMDL
MODEL 3
REMARK VINA RESULT:      -5.1      1.073      1.622
REMARK  5 active torsions:
REMARK  status: ('A' for Active; 'I' for Inactive)
REMARK    1  A    between atoms: C_3  and  C_2 
REMARK    2  A    between atoms: C_7  and  C_3 
REMARK    3  A    between atoms: C_10  and  C_4 
REMARK    4  A    between atoms: C_12  and  C_7 
REMARK    5  A    between atoms: C_18  and  C_11 
ROOT
ATOM      1  C   UNL d   1     -47.196  13.576  23.095  0.00  0.00     0.092 C 
ATOM      2  C   UNL d   1     -47.049  14.357  22.874  0.00  0.00     0.103 C 
ATOM      3  N   UNL d   1     -46.902  15.138  22.654  0.00  0.00    -0.191 NA
ENDROOT
BRANCH   1   4
ATOM      4  C   UNL d   1     -46.597  13.013  23.028  0.00  0.00     0.120 A 
ATOM      5  N   UNL d   1     -45.912  13.189  22.614  0.00  0.00    -0.238 NA
ATOM      6  C   UNL d   1     -45.419  12.518  22.644  0.00  0.00     0.088 A 
ATOM      7  C   UNL d   1     -45.811  11.953  23.073  0.00  0.00     0.056 A 
ATOM      8  S   UNL d   1     -46.531  12.242  23.313  0.00  0.00    -0.065 SA
BRANCH   6   9
ATOM      9  C   UNL d   1     -44.683  12.540  22.268  0.00  0.00     0.018 A 
ATOM     10  C   UNL d   1     -44.048  12.109  22.542  0.00  0.00     0.005 A 
ATOM     11  C   UNL d   1     -43.337  12.140  22.165  0.00  0.00     0.042 A 
ATOM     12  C   UNL d   1     -43.222  12.604  21.491  0.00  0.00     0.196 A 
ATOM     13  C   UNL d   1     -43.857  13.043  21.204  0.00  0.00     0.042 A 
ATOM     14  O   UNL d   1     -42.636  12.743  21.029  0.00  0.00    -0.287 OA
ATOM     15  C   UNL d   1     -44.583  13.009  21.593  0.00  0.00     0.005 A 
ENDBRANCH   6   9
ENDBRANCH   1   4
BRANCH   1  16
ATOM     16  C   UNL d   1     -47.938  13.354  23.382  0.00  0.00     0.012 C 
BRANCH  16  17
ATOM     17  C   UNL d   1     -48.635  13.531  22.942  0.00  0.00     0.001 A 
ATOM     18  C   UNL d   1     -49.149  14.089  23.258  0.00  0.00     0.000 A 
ATOM     19  C   UNL d   1     -49.867  14.280  22.819  0.00  0.00     0.000 A 
ATOM     20  C   UNL d   1     -50.007  13.892  22.096  0.00  0.00     0.000 A 
ATOM     21  C   UNL d   1     -49.474  13.336  21.801  0.00  0.00     0.000 A 
ATOM     22  C   UNL d   1     -48.795  13.149  22.206  0.00  0.00     0.000 A 
BRANCH  20  23
ATOM     23  C   UNL d   1     -50.719  14.097  21.682  0.00  0.00     0.000 C 
ATOM     24  C   UNL d   1     -51.063  13.583  21.144  0.00  0.00     0.000 C 
ATOM     25  C   UNL d   1     -51.064  14.835  21.835  0.00  0.00     0.000 C 
ENDBRANCH  20  23
ENDBRANCH  16  17
ENDBRANCH   1  16
TORSDOF 5
ENDMDL
MODEL 4
REMARK VINA RESULT:      -4.8      2.113      5.435
REMARK  5 active torsions:
REMARK  status: ('A' for Active; 'I' for Inactive)
REMARK    1  A    between atoms: C_3  and  C_2 
REMARK    2  A    between atoms: C_7  and  C_3 
REMARK    3  A    between atoms: C_10  and  C_4 
REMARK    4  A    between atoms: C_12  and  C_7 
REMARK    5  A    between atoms: C_18  and  C_11 
ROOT
ATOM      1  C   UNL d   1     -47.082  12.784  22.702  0.00  0.00     0.092 C 
ATOM      2  C   UNL d   1     -46.984  12.670  21.891  0.00  0.00     0.103 C 
ATOM      3  N   UNL d   1     -46.887  12.556  21.080  0.00  0.00    -0.191 NA
ENDROOT
BRANCH   1   4
ATOM      4  C   UNL d   1     -47.841  12.857  23.016  0.00  0.00     0.120 A 
ATOM      5  N   UNL d   1     -48.287  13.526  22.861  0.00  0.00    -0.238 NA
ATOM      6  C   UNL d   1     -49.019  13.438  23.249  0.00  0.00     0.088 A 
ATOM      7  C   UNL d   1     -49.002  12.722  23.630  0.00  0.00     0.056 A 
ATOM      8  S   UNL d   1     -48.288  12.357  23.496  0.00  0.00    -0.065 SA
BRANCH   6   9
ATOM      9  C   UNL d   1     -49.585  14.036  23.188  0.00  0.00     0.018 A 
ATOM     10  C   UNL d   1     -50.373  13.871  23.061  0.00  0.00     0.005 A 
ATOM     11  C   UNL d   1     -50.914  14.466  23.003  0.00  0.00     0.042 A 
ATOM     12  C   UNL d   1     -50.695  15.259  23.069  0.00  0.00     0.196 A 
ATOM     13  C   UNL d   1     -49.901  15.439  23.197  0.00  0.00     0.042 A 
ATOM     14  O   UNL d   1     -51.064  15.922  23.039  0.00  0.00    -0.287 OA
ATOM     15  C   UNL d   1     -49.351  14.828  23.256  0.00  0.00     0.005 A 
ENDBRANCH   6   9
ENDBRANCH   1   4
BRANCH   1  16
ATOM     16  C   UNL d   1     -46.425  12.826  23.201  0.00  0.00     0.012 C 
BRANCH  16  17
ATOM     17  C   UNL d   1     -45.880  12.184  23.243  0.00  0.00     0.001 A 
ATOM     18  C   UNL d   1     -45.158  12.276  22.863  0.00  0.00     0.000 A 
ATOM     19  C   UNL d   1     -44.590  11.627  22.898  0.00  0.00     0.000 A 
ATOM     20  C   UNL d   1     -44.799  10.937  23.315  0.00  0.00     0.000 A 
ATOM     21  C   UNL d   1     -45.532  10.870  23.688  0.00  0.00     0.000 A 
ATOM     22  C   UNL d   1     -46.073  11.476  23.661  0.00  0.00     0.000 A 
BRANCH  20  23
ATOM     23  C   UNL d   1     -44.225  10.312  23.336  0.00  0.00     0.000 C 
ATOM     24  C   UNL d   1     -43.430  10.468  23.455  0.00  0.00     0.000 C 
ATOM     25  C   UNL d   1     -44.487   9.533  23.232  0.00  0.00     0.000 C 
ENDBRANCH  20  23
ENDBRANCH  16  17
ENDBRANCH   1  16
TORSDOF 5
ENDMDL
MODEL 5
REMARK VINA RESULT:      -4.7      8.116      9.204
REMARK  5 active torsions:
REMARK  status: ('A' for Active; 'I' for Inactive)
REMARK    1  A    between atoms: C_3  and  C_2 
REMARK    2  A    between atoms: C_7  and  C_3 
REMARK    3  A    between atoms: C_10  and  C_4 
REMARK    4  A    between atoms: C_12  and  C_7 
REMARK    5  A    between atoms: C_18  and  C_11 
ROOT
ATOM      1  C   UNL d   1     -38.871  14.628  18.705  0.00  0.00     0.092 C 
ATOM      2  C   UNL d   1     -39.059  13.892  18.383  0.00  0.00     0.103 C 
ATOM      3  N   UNL d   1     -39.248  13.157  18.061  0.00  0.00    -0.191 NA
ENDROOT
BRANCH   1   4
ATOM      4  C   UNL d   1     -38.585  14.675  19.477  0.00  0.00     0.120 A 
ATOM      5  N   UNL d   1     -38.947  14.248  20.075  0.00  0.00    -0.238 NA
ATOM      6  C   UNL d   1     -38.538  14.408  20.783  0.00  0.00     0.088 A 
ATOM      7  C   UNL d   1     -37.940  14.925  20.601  0.00  0.00     0.056 A 
ATOM      8  S   UNL d   1     -37.958  15.096  19.807  0.00  0.00    -0.065 SA
BRANCH   6   9
ATOM      9  C   UNL d   1     -38.786  14.048  21.484  0.00  0.00     0.018 A 
ATOM     10  C   UNL d   1     -39.545  14.138  21.768  0.00  0.00     0.005 A 
ATOM     11  C   UNL d   1     -39.772  13.781  22.454  0.00  0.00     0.042 A 
ATOM     12  C   UNL d   1     -39.252  13.314  22.893  0.00  0.00     0.196 A 
ATOM     13  C   UNL d   1     -38.483  13.216  22.616  0.00  0.00     0.042 A 
ATOM     14  O   UNL d   1     -39.301  12.918  23.539  0.00  0.00    -0.287 OA
ATOM     15  C   UNL d   1     -38.254  13.582  21.915  0.00  0.00     0.005 A 
ENDBRANCH   6   9
ENDBRANCH   1   4
BRANCH   1  16
ATOM     16  C   UNL d   1     -38.967  15.317  18.259  0.00  0.00     0.012 C 
BRANCH  16  17
ATOM     17  C   UNL d   1     -39.682  15.452  17.833  0.00  0.00     0.001 A 
ATOM     18  C   UNL d   1     -39.628  15.511  17.015  0.00  0.00     0.000 A 
ATOM     19  C   UNL d   1     -40.351  15.650  16.565  0.00  0.00     0.000 A 
ATOM     20  C   UNL d   1     -41.071  15.718  16.979  0.00  0.00     0.000 A 
ATOM     21  C   UNL d   1     -41.096  15.656  17.801  0.00  0.00     0.000 A 
ATOM     22  C   UNL d   1     -40.421  15.525  18.233  0.00  0.00     0.000 A 
BRANCH  20  23
ATOM     23  C   UNL d   1     -41.768  15.855  16.515  0.00  0.00     0.000 C 
ATOM     24  C   UNL d   1     -41.731  15.920  15.699  0.00  0.00     0.000 C 
ATOM     25  C   UNL d   1     -42.494  15.922  16.908  0.00  0.00     0.000 C 
ENDBRANCH  20  23
ENDBRANCH  16  17
ENDBRANCH   1  16
TORSDOF 5
ENDMDL
MODEL 6
REMARK VINA RESULT:      -4.6      1.872      5.244
REMARK  5 active torsions:
REMARK  status: ('A' for Active; 'I' for Inactive)
REMARK    1  A    between atoms: C_3  and  C_2 
REMARK    2  A    between atoms: C_7  and  C_3 
REMARK    3  A    between atoms: C_10  and  C_4 
REMARK    4  A    between atoms: C_12  and  C_7 
REMARK    5  A    between atoms: C_18  and  C_11 
ROOT
ATOM      1  C   UNL d   1     -46.530  12.580  23.169  0.00  0.00     0.092 C 
ATOM      2  C   UNL d   1     -46.254  13.311  23.434  0.00  0.00     0.103 C 
ATOM      3  N   UNL d   1     -45.978  14.041  23.698  0.00  0.00    -0.191 NA
ENDROOT
BRANCH   1   4
ATOM      4  C   UNL d   1     -47.341  12.432  23.151  0.00  0.00     0.120 A 
ATOM      5  N   UNL d   1     -47.836  12.911  22.707  0.00  0.00    -0.238 NA
ATOM      6  C   UNL d   1     -48.613  12.626  22.798  0.00  0.00     0.088 A 
ATOM      7  C   UNL d   1     -48.575  11.983  23.292  0.00  0.00     0.056 A 
ATOM      8  S   UNL d   1     -47.804  11.854  23.514  0.00  0.00    -0.065 SA
BRANCH   6   9
ATOM      9  C   UNL d   1     -49.233  13.008  22.408  0.00  0.00     0.018 A 
ATOM     10  C   UNL d   1     -49.443  13.776  22.584  0.00  0.00     0.005 A 
ATOM     11  C   UNL d   1     -50.050  14.135  22.195  0.00  0.00     0.042 A 
ATOM     12  C   UNL d   1     -50.482  13.746  21.609  0.00  0.00     0.196 A 
ATOM     13  C   UNL d   1     -50.279  12.969  21.423  0.00  0.00     0.042 A 
ATOM     14  O   UNL d   1     -51.064  13.931  21.159  0.00  0.00    -0.287 OA
ATOM     15  C   UNL d   1     -49.658  12.605  21.823  0.00  0.00     0.005 A 
ENDBRANCH   6   9
ENDBRANCH   1   4
BRANCH   1  16
ATOM     16  C   UNL d   1     -46.000  11.996  22.923  0.00  0.00     0.012 C 
BRANCH  16  17
ATOM     17  C   UNL d   1     -45.283  12.209  22.534  0.00  0.00     0.001 A 
ATOM     18  C   UNL d   1     -44.591  11.855  22.799  0.00  0.00     0.000 A 
ATOM     19  C   UNL d   1     -43.849  12.063  22.410  0.00  0.00     0.000 A 
ATOM     20  C   UNL d   1     -43.868  12.612  21.783  0.00  0.00     0.000 A 
ATOM     21  C   UNL d   1     -44.577  12.952  21.536  0.00  0.00     0.000 A 
ATOM     22  C   UNL d   1     -45.280  12.763  21.896  0.00  0.00     0.000 A 
BRANCH  20  23
ATOM     23  C   UNL d   1     -43.126  12.800  21.416  0.00  0.00     0.000 C 
ATOM     24  C   UNL d   1     -42.413  12.619  21.778  0.00  0.00     0.000 C 
ATOM     25  C   UNL d   1     -43.136  13.174  20.677  0.00  0.00     0.000 C 
ENDBRANCH  20  23
ENDBRANCH  16  17
ENDBRANCH   1  16
TORSDOF 5
ENDMDL
MODEL 7
REMARK VINA RESULT:      -4.4      8.027     10.191
REMARK  5 active torsions:
REMARK  status: ('A' for Active; 'I' for Inactive)
REMARK    1  A    between atoms: C_3  and  C_2 
REMARK    2  A    between atoms: C_7  and  C_3 
REMARK    3  A    between atoms: C_10  and  C_4 
REMARK    4  A    between atoms: C_12  and  C_7 
REMARK    5  A    between atoms: C_18  and  C_11 
ROOT
ATOM      1  C   UNL d   1     -39.784  15.481  17.676  0.00  0.00     0.092 C 
ATOM      2  C   UNL d   1     -40.491  15.112  17.464  0.00  0.00     0.103 C 
ATOM      3  N   UNL d   1     -41.198  14.744  17.252  0.00  0.00    -0.191 NA
ENDROOT
BRANCH   1   4
ATOM      4  C   UNL d   1     -39.125  15.412  17.186  0.00  0.00     0.120 A 
ATOM      5  N   UNL d   1     -39.157  14.938  16.518  0.00  0.00    -0.238 NA
ATOM      6  C   UNL d   1     -38.415  14.981  16.141  0.00  0.00     0.088 A 
ATOM      7  C   UNL d   1     -37.951  15.477  16.584  0.00  0.00     0.056 A 
ATOM      8  S   UNL d   1     -38.372  15.747  17.225  0.00  0.00    -0.065 SA
BRANCH   6   9
ATOM      9  C   UNL d   1     -38.289  14.553  15.446  0.00  0.00     0.018 A 
ATOM     10  C   UNL d   1     -38.171  14.923  14.729  0.00  0.00     0.005 A 
ATOM     11  C   UNL d   1     -38.049  14.493  14.059  0.00  0.00     0.042 A 
ATOM     12  C   UNL d   1     -38.038  13.667  14.070  0.00  0.00     0.196 A 
ATOM     13  C   UNL d   1     -38.156  13.282  14.788  0.00  0.00     0.042 A 
ATOM     14  O   UNL d   1     -37.940  13.125  13.548  0.00  0.00    -0.287 OA
ATOM     15  C   UNL d   1     -38.280  13.726  15.471  0.00  0.00     0.005 A 
ENDBRANCH   6   9
ENDBRANCH   1   4
BRANCH   1  16
ATOM     16  C   UNL d   1     -39.733  15.917  18.375  0.00  0.00     0.012 C 
BRANCH  16  17
ATOM     17  C   UNL d   1     -39.847  15.542  19.121  0.00  0.00     0.001 A 
ATOM     18  C   UNL d   1     -39.275  15.004  19.364  0.00  0.00     0.000 A 
ATOM     19  C   UNL d   1     -39.378  14.612  20.126  0.00  0.00     0.000 A 
ATOM     20  C   UNL d   1     -40.052  14.794  20.580  0.00  0.00     0.000 A 
ATOM     21  C   UNL d   1     -40.611  15.338  20.312  0.00  0.00     0.000 A 
ATOM     22  C   UNL d   1     -40.523  15.713  19.597  0.00  0.00     0.000 A 
BRANCH  20  23
ATOM     23  C   UNL d   1     -40.131  14.396  21.325  0.00  0.00     0.000 C 
ATOM     24  C   UNL d   1     -39.777  14.687  22.004  0.00  0.00     0.000 C 
ATOM     25  C   UNL d   1     -40.578  13.699  21.353  0.00  0.00     0.000 C 
ENDBRANCH  20  23
ENDBRANCH  16  17
ENDBRANCH   1  16
TORSDOF 5
ENDMDL
MODEL 8
REMARK VINA RESULT:      -4.1      5.815      9.340
REMARK  5 active torsions:
REMARK  status: ('A' for Active; 'I' for Inactive)
REMARK    1  A    between atoms: C_3  and  C_2 
REMARK    2  A    between atoms: C_7  and  C_3 
REMARK    3  A    between atoms: C_10  and  C_4 
REMARK    4  A    between atoms: C_12  and  C_7 
REMARK    5  A    between atoms: C_18  and  C_11 
ROOT
ATOM      1  C   UNL d   1     -39.536  15.276  19.701  0.00  0.00     0.092 C 
ATOM      2  C   UNL d   1     -38.811  15.052  20.025  0.00  0.00     0.103 C 
ATOM      3  N   UNL d   1     -38.087  14.828  20.348  0.00  0.00    -0.191 NA
ENDROOT
BRANCH   1   4
ATOM      4  C   UNL d   1     -40.218  15.244  20.165  0.00  0.00     0.120 A 
ATOM      5  N   UNL d   1     -40.574  14.523  20.322  0.00  0.00    -0.238 NA
ATOM      6  C   UNL d   1     -41.242  14.669  20.797  0.00  0.00     0.088 A 
ATOM      7  C   UNL d   1     -41.279  15.470  20.918  0.00  0.00     0.056 A 
ATOM      8  S   UNL d   1     -40.659  15.833  20.537  0.00  0.00    -0.065 SA
BRANCH   6   9
ATOM      9  C   UNL d   1     -41.711  14.034  21.043  0.00  0.00     0.018 A 
ATOM     10  C   UNL d   1     -41.415  13.440  21.516  0.00  0.00     0.005 A 
ATOM     11  C   UNL d   1     -41.884  12.827  21.747  0.00  0.00     0.042 A 
ATOM     12  C   UNL d   1     -42.676  12.775  21.518  0.00  0.00     0.196 A 
ATOM     13  C   UNL d   1     -42.986  13.370  21.039  0.00  0.00     0.042 A 
ATOM     14  O   UNL d   1     -43.240  12.282  21.642  0.00  0.00    -0.287 OA
ATOM     15  C   UNL d   1     -42.503  13.995  20.805  0.00  0.00     0.005 A 
ENDBRANCH   6   9
ENDBRANCH   1   4
BRANCH   1  16
ATOM     16  C   UNL d   1     -39.583  15.533  18.918  0.00  0.00     0.012 C 
BRANCH  16  17
ATOM     17  C   UNL d   1     -39.242  15.075  18.299  0.00  0.00     0.001 A 
ATOM     18  C   UNL d   1     -39.705  14.481  17.969  0.00  0.00     0.000 A 
ATOM     19  C   UNL d   1     -39.369  14.003  17.334  0.00  0.00     0.000 A 
ATOM     20  C   UNL d   1     -38.592  14.164  17.083  0.00  0.00     0.000 A 
ATOM     21  C   UNL d   1     -38.148  14.766  17.431  0.00  0.00     0.000 A 
ATOM     22  C   UNL d   1     -38.455  15.221  18.029  0.00  0.00     0.000 A 
BRANCH  20  23
ATOM     23  C   UNL d   1     -38.283  13.681  16.457  0.00  0.00     0.000 C 
ATOM     24  C   UNL d   1     -38.321  13.922  15.674  0.00  0.00     0.000 C 
ATOM     25  C   UNL d   1     -37.940  12.954  16.654  0.00  0.00     0.000 C 
ENDBRANCH  20  23
ENDBRANCH  16  17
ENDBRANCH   1  16
TORSDOF 5
ENDMDL
MODEL 9
REMARK VINA RESULT:      -3.7      8.662      9.786
REMARK  5 active torsions:
REMARK  status: ('A' for Active; 'I' for Inactive)
REMARK    1  A    between atoms: C_3  and  C_2 
REMARK    2  A    between atoms: C_7  and  C_3 
REMARK    3  A    between atoms: C_10  and  C_4 
REMARK    4  A    between atoms: C_12  and  C_7 
REMARK    5  A    between atoms: C_18  and  C_11 
ROOT
ATOM      1  C   UNL d   1     -39.250  14.877  19.437  0.00  0.00     0.092 C 
ATOM      2  C   UNL d   1     -40.034  14.637  19.528  0.00  0.00     0.103 C 
ATOM      3  N   UNL d   1     -40.818  14.398  19.620  0.00  0.00    -0.191 NA
ENDROOT
BRANCH   1   4
ATOM      4  C   UNL d   1     -38.782  14.529  18.853  0.00  0.00     0.120 A 
ATOM      5  N   UNL d   1     -38.802  13.718  18.740  0.00  0.00    -0.238 NA
ATOM      6  C   UNL d   1     -38.277  13.536  18.120  0.00  0.00     0.088 A 
ATOM      7  C   UNL d   1     -37.952  14.235  17.869  0.00  0.00     0.056 A 
ATOM      8  S   UNL d   1     -38.252  14.849  18.309  0.00  0.00    -0.065 SA
BRANCH   6   9
ATOM      9  C   UNL d   1     -38.184  12.749  17.885  0.00  0.00     0.018 A 
ATOM     10  C   UNL d   1     -38.062  12.545  17.106  0.00  0.00     0.005 A 
ATOM     11  C   UNL d   1     -37.973  11.773  16.892  0.00  0.00     0.042 A 
ATOM     12  C   UNL d   1     -38.002  11.162  17.448  0.00  0.00     0.196 A 
ATOM     13  C   UNL d   1     -38.125  11.357  18.239  0.00  0.00     0.042 A 
ATOM     14  O   UNL d   1     -37.940  10.406  17.418  0.00  0.00    -0.287 OA
ATOM     15  C   UNL d   1     -38.215  12.147  18.453  0.00  0.00     0.005 A 
ENDBRANCH   6   9
ENDBRANCH   1   4
BRANCH   1  16
ATOM     16  C   UNL d   1     -38.931  15.462  19.925  0.00  0.00     0.012 C 
BRANCH  16  17
ATOM     17  C   UNL d   1     -38.887  15.343  20.758  0.00  0.00     0.001 A 
ATOM     18  C   UNL d   1     -38.151  15.162  21.075  0.00  0.00     0.000 A 
ATOM     19  C   UNL d   1     -38.090  15.037  21.927  0.00  0.00     0.000 A 
ATOM     20  C   UNL d   1     -38.779  15.107  22.390  0.00  0.00     0.000 A 
ATOM     21  C   UNL d   1     -39.506  15.291  22.046  0.00  0.00     0.000 A 
ATOM     22  C   UNL d   1     -39.573  15.409  21.245  0.00  0.00     0.000 A 
BRANCH  20  23
ATOM     23  C   UNL d   1     -38.694  14.981  23.225  0.00  0.00     0.000 C 
ATOM     24  C   UNL d   1     -38.941  14.283  23.577  0.00  0.00     0.000 C 
ATOM     25  C   UNL d   1     -38.354  15.582  23.681  0.00  0.00     0.000 C 
ENDBRANCH  20  23
ENDBRANCH  16  17
ENDBRANCH   1  16
TORSDOF 5
ENDMDL
