MODEL 1
REMARK VINA RESULT:      -5.2      0.000      0.000
REMARK  2 active torsions:
REMARK  status: ('A' for Active; 'I' for Inactive)
REMARK    1  A    between atoms: C_6  and  N_2 
REMARK    2  A    between atoms: C_8  and  C_6 
ROOT
ATOM      1  C   UNL d   1     -41.343-123.441 -53.789  0.00  0.00     0.151 A 
ATOM      2  N   UNL d   1     -41.397-122.634 -53.637  0.00  0.00    -0.286 N 
ATOM      3  S   UNL d   1     -41.232-123.816 -53.073  0.00  0.00    -0.057 SA
ATOM      4  C   UNL d   1     -41.320-122.521 -52.839  0.00  0.00     0.071 A 
ATOM      5  C   UNL d   1     -41.218-123.253 -52.490  0.00  0.00     0.048 A 
ATOM      6  S   UNL d   1     -41.388-123.817 -54.515  0.00  0.00    -0.052 SA
ATOM      7  C   UNL d   1     -41.330-121.842 -52.372  0.00  0.00     0.018 A 
ATOM      8  C   UNL d   1     -41.124-123.314 -51.671  0.00  0.00     0.008 A 
ATOM      9  C   UNL d   1     -41.236-121.895 -51.551  0.00  0.00     0.002 A 
ATOM     10  C   UNL d   1     -41.133-122.627 -51.202  0.00  0.00     0.001 A 
ENDROOT
BRANCH   2  11
ATOM     11  C   UNL d   1     -41.513-122.045 -54.222  0.00  0.00     0.152 C 
BRANCH  11  12
ATOM     12  C   UNL d   1     -42.242-121.958 -54.598  0.00  0.00     0.230 C 
ATOM     13  O   UNL d   1     -42.327-122.167 -55.397  0.00  0.00    -0.643 OA
ATOM     14  O   UNL d   1     -42.884-121.666 -54.183  0.00  0.00    -0.643 OA
ENDBRANCH  11  12
ENDBRANCH   2  11
TORSDOF 2
ENDMDL
MODEL 2
REMARK VINA RESULT:      -4.3      1.489      2.619
REMARK  2 active torsions:
REMARK  status: ('A' for Active; 'I' for Inactive)
REMARK    1  A    between atoms: C_6  and  N_2 
REMARK    2  A    between atoms: C_8  and  C_6 
ROOT
ATOM      1  C   UNL d   1     -41.245-123.431 -52.333  0.00  0.00     0.151 A 
ATOM      2  N   UNL d   1     -41.343-122.628 -52.480  0.00  0.00    -0.286 N 
ATOM      3  S   UNL d   1     -41.291-123.817 -53.051  0.00  0.00    -0.057 SA
ATOM      4  C   UNL d   1     -41.447-122.527 -53.276  0.00  0.00     0.071 A 
ATOM      5  C   UNL d   1     -41.416-123.263 -53.629  0.00  0.00     0.048 A 
ATOM      6  S   UNL d   1     -41.123-123.796 -51.610  0.00  0.00    -0.052 SA
ATOM      7  C   UNL d   1     -41.569-121.856 -53.738  0.00  0.00     0.018 A 
ATOM      8  C   UNL d   1     -41.506-123.336 -54.448  0.00  0.00     0.008 A 
ATOM      9  C   UNL d   1     -41.660-121.921 -54.559  0.00  0.00     0.002 A 
ATOM     10  C   UNL d   1     -41.629-122.657 -54.912  0.00  0.00     0.001 A 
ENDROOT
BRANCH   2  11
ATOM     11  C   UNL d   1     -41.333-122.031 -51.892  0.00  0.00     0.152 C 
BRANCH  11  12
ATOM     12  C   UNL d   1     -41.830-122.075 -51.234  0.00  0.00     0.230 C 
ATOM     13  O   UNL d   1     -42.649-121.982 -51.325  0.00  0.00    -0.643 OA
ATOM     14  O   UNL d   1     -41.514-122.211 -50.492  0.00  0.00    -0.643 OA
ENDBRANCH  11  12
ENDBRANCH   2  11
TORSDOF 2
ENDMDL
MODEL 3
REMARK VINA RESULT:      -4.0      1.962      3.060
REMARK  2 active torsions:
REMARK  status: ('A' for Active; 'I' for Inactive)
REMARK    1  A    between atoms: C_6  and  N_2 
REMARK    2  A    between atoms: C_8  and  C_6 
ROOT
ATOM      1  C   UNL d   1     -41.348-122.034 -52.023  0.00  0.00     0.151 A 
ATOM      2  N   UNL d   1     -41.257-122.848 -52.089  0.00  0.00    -0.286 N 
ATOM      3  S   UNL d   1     -41.467-121.740 -52.775  0.00  0.00    -0.057 SA
ATOM      4  C   UNL d   1     -41.319-123.048 -52.871  0.00  0.00     0.071 A 
ATOM      5  C   UNL d   1     -41.449-122.362 -53.295  0.00  0.00     0.048 A 
ATOM      6  S   UNL d   1     -41.328-121.582 -51.340  0.00  0.00    -0.052 SA
ATOM      7  C   UNL d   1     -41.274-123.771 -53.263  0.00  0.00     0.018 A 
ATOM      8  C   UNL d   1     -41.536-122.392 -54.117  0.00  0.00     0.008 A 
ATOM      9  C   UNL d   1     -41.361-123.809 -54.086  0.00  0.00     0.002 A 
ATOM     10  C   UNL d   1     -41.491-123.123 -54.511  0.00  0.00     0.001 A 
ENDROOT
BRANCH   2  11
ATOM     11  C   UNL d   1     -41.123-123.367 -51.444  0.00  0.00     0.152 C 
BRANCH  11  12
ATOM     12  C   UNL d   1     -41.679-123.446 -50.840  0.00  0.00     0.230 C 
ATOM     13  O   UNL d   1     -42.426-123.771 -51.001  0.00  0.00    -0.643 OA
ATOM     14  O   UNL d   1     -41.496-123.202 -50.081  0.00  0.00    -0.643 OA
ENDBRANCH  11  12
ENDBRANCH   2  11
TORSDOF 2
ENDMDL
MODEL 4
REMARK VINA RESULT:      -2.8      2.578      3.362
REMARK  2 active torsions:
REMARK  status: ('A' for Active; 'I' for Inactive)
REMARK    1  A    between atoms: C_6  and  N_2 
REMARK    2  A    between atoms: C_8  and  C_6 
ROOT
ATOM      1  C   UNL d   1     -41.479-123.416 -50.555  0.00  0.00     0.151 A 
ATOM      2  N   UNL d   1     -42.074-122.878 -50.374  0.00  0.00    -0.286 N 
ATOM      3  S   UNL d   1     -41.298-123.817 -49.868  0.00  0.00    -0.057 SA
ATOM      4  C   UNL d   1     -42.251-122.950 -49.588  0.00  0.00     0.071 A 
ATOM      5  C   UNL d   1     -41.771-123.532 -49.275  0.00  0.00     0.048 A 
ATOM      6  S   UNL d   1     -41.123-123.543 -51.281  0.00  0.00    -0.052 SA
ATOM      7  C   UNL d   1     -42.793-122.561 -49.104  0.00  0.00     0.018 A 
ATOM      8  C   UNL d   1     -41.827-123.731 -48.474  0.00  0.00     0.008 A 
ATOM      9  C   UNL d   1     -42.855-122.755 -48.301  0.00  0.00     0.002 A 
ATOM     10  C   UNL d   1     -42.375-123.337 -47.987  0.00  0.00     0.001 A 
ENDROOT
BRANCH   2  11
ATOM     11  C   UNL d   1     -42.424-122.351 -50.925  0.00  0.00     0.152 C 
BRANCH  11  12
ATOM     12  C   UNL d   1     -41.959-121.917 -51.451  0.00  0.00     0.230 C 
ATOM     13  O   UNL d   1     -41.962-122.102 -52.260  0.00  0.00    -0.643 OA
ATOM     14  O   UNL d   1     -41.495-121.303 -51.175  0.00  0.00    -0.643 OA
ENDBRANCH  11  12
ENDBRANCH   2  11
TORSDOF 2
ENDMDL
