MODEL 1
REMARK VINA RESULT:       8.1      0.000      0.000
REMARK  2 active torsions:
REMARK  status: ('A' for Active; 'I' for Inactive)
REMARK    1  A    between atoms: C_6  and  N_1 
REMARK    2  A    between atoms: C_14  and  C_13 
ROOT
ATOM      1  C   UNL d   1      13.808  12.190  -2.164  0.00  0.00     0.070 A 
ATOM      2  C   UNL d   1      14.195  12.694  -2.689  0.00  0.00     0.018 A 
ATOM      3  C   UNL d   1      13.130  11.785  -2.404  0.00  0.00     0.018 A 
ATOM      4  C   UNL d   1      13.906  12.795  -3.460  0.00  0.00     0.002 A 
ATOM      5  C   UNL d   1      12.837  11.882  -3.171  0.00  0.00     0.002 A 
ATOM      6  C   UNL d   1      13.229  12.390  -3.700  0.00  0.00     0.000 A 
ENDROOT
BRANCH   1   7
ATOM      7  N   UNL d   1      14.102  12.098  -1.405  0.00  0.00    -0.242 N 
ATOM      8  C   UNL d   1      14.893  12.175  -1.187  0.00  0.00     0.267 A 
ATOM      9  C   UNL d   1      14.941  12.037  -0.374  0.00  0.00     0.066 A 
ATOM     10  O   UNL d   1      15.520  12.358  -1.689  0.00  0.00    -0.267 OA
ATOM     11  C   UNL d   1      14.189  11.875  -0.092  0.00  0.00     0.066 A 
ATOM     12  C   UNL d   1      13.668  11.913  -0.728  0.00  0.00     0.267 A 
ATOM     13  O   UNL d   1      12.851  11.785  -0.692  0.00  0.00    -0.267 OA
ENDBRANCH   1   7
BRANCH   6  14
ATOM     14  C   UNL d   1      12.935  12.484  -4.463  0.00  0.00     0.000 C 
ATOM     15  C   UNL d   1      12.950  11.842  -4.985  0.00  0.00     0.000 C 
ENDBRANCH   6  14
TORSDOF 2
ENDMDL
