MODEL 1
REMARK VINA RESULT:      -5.1      0.000      0.000
REMARK  4 active torsions:
REMARK  status: ('A' for Active; 'I' for Inactive)
REMARK    1  A    between atoms: N_2  and  S_1 
REMARK    2  A    between atoms: C_4  and  S_1 
REMARK    3  A    between atoms: C_3  and  N_2 
REMARK    4  A    between atoms: N_5  and  C_6 
REMARK       I    between atoms: C_9  and  N_5 
ROOT
ATOM      1  N   UNL d   1     -41.787-123.426 -51.171  0.00  0.00    -0.157 NA
ENDROOT
BRANCH   1   2
ATOM      2  S   UNL d   1     -41.945-123.504 -50.338  0.00  0.00     0.285 S 
ATOM      3  O   UNL d   1     -42.755-123.331 -50.475  0.00  0.00    -0.198 OA
ATOM      4  O   UNL d   1     -41.134-123.676 -50.201  0.00  0.00    -0.198 OA
BRANCH   2   5
ATOM      5  C   UNL d   1     -42.094-123.581 -49.519  0.00  0.00     0.105 A 
ATOM      6  C   UNL d   1     -42.868-123.515 -49.231  0.00  0.00     0.013 A 
ATOM      7  C   UNL d   1     -43.015-123.590 -48.433  0.00  0.00     0.001 A 
ATOM      8  C   UNL d   1     -42.394-123.732 -47.910  0.00  0.00     0.000 A 
ATOM      9  C   UNL d   1     -41.621-123.797 -48.198  0.00  0.00     0.001 A 
ATOM     10  C   UNL d   1     -42.552-123.808 -47.087  0.00  0.00     0.000 C 
ATOM     11  C   UNL d   1     -41.477-123.721 -49.006  0.00  0.00     0.013 A 
ENDBRANCH   2   5
ENDBRANCH   1   2
BRANCH   1  12
ATOM     12  C   UNL d   1     -41.563-122.684 -51.483  0.00  0.00     0.112 A 
ATOM     13  C   UNL d   1     -41.352-122.617 -52.279  0.00  0.00     0.103 A 
ATOM     14  C   UNL d   1     -41.132-121.883 -52.585  0.00  0.00     0.021 A 
ATOM     15  C   UNL d   1     -41.123-121.219 -52.096  0.00  0.00     0.002 A 
ATOM     16  C   UNL d   1     -41.336-121.292 -51.293  0.00  0.00     0.002 A 
ATOM     17  C   UNL d   1     -41.554-122.010 -50.987  0.00  0.00     0.021 A 
BRANCH  13  18
ATOM     18  N   UNL d   1     -41.359-123.275 -52.775  0.00  0.00    -0.206 NA
ATOM     19  C   UNL d   1     -41.434-123.166 -53.590  0.00  0.00     0.280 C 
ATOM     20  O   UNL d   1     -41.501-122.410 -53.892  0.00  0.00    -0.265 OA
ATOM     21  C   UNL d   1     -41.441-123.817 -54.094  0.00  0.00     0.068 C 
ENDBRANCH  13  18
ENDBRANCH   1  12
TORSDOF 4
ENDMDL
MODEL 2
REMARK VINA RESULT:      -3.8      1.356      1.993
REMARK  4 active torsions:
REMARK  status: ('A' for Active; 'I' for Inactive)
REMARK    1  A    between atoms: N_2  and  S_1 
REMARK    2  A    between atoms: C_4  and  S_1 
REMARK    3  A    between atoms: C_3  and  N_2 
REMARK    4  A    between atoms: N_5  and  C_6 
REMARK       I    between atoms: C_9  and  N_5 
ROOT
ATOM      1  N   UNL d   1     -41.908-121.976 -52.132  0.00  0.00    -0.157 NA
ENDROOT
BRANCH   1   2
ATOM      2  S   UNL d   1     -41.948-122.198 -51.311  0.00  0.00     0.285 S 
ATOM      3  O   UNL d   1     -42.761-122.387 -51.400  0.00  0.00    -0.198 OA
ATOM      4  O   UNL d   1     -41.134-122.008 -51.222  0.00  0.00    -0.198 OA
BRANCH   2   5
ATOM      5  C   UNL d   1     -41.980-122.413 -50.504  0.00  0.00     0.105 A 
ATOM      6  C   UNL d   1     -41.281-122.579 -50.091  0.00  0.00     0.013 A 
ATOM      7  C   UNL d   1     -41.311-122.790 -49.305  0.00  0.00     0.001 A 
ATOM      8  C   UNL d   1     -42.036-122.839 -48.917  0.00  0.00     0.000 A 
ATOM      9  C   UNL d   1     -42.735-122.673 -49.329  0.00  0.00     0.001 A 
ATOM     10  C   UNL d   1     -42.060-123.057 -48.105  0.00  0.00     0.000 C 
ATOM     11  C   UNL d   1     -42.700-122.460 -50.124  0.00  0.00     0.013 A 
ENDBRANCH   2   5
ENDBRANCH   1   2
BRANCH   1  12
ATOM     12  C   UNL d   1     -41.664-122.538 -52.701  0.00  0.00     0.112 A 
ATOM     13  C   UNL d   1     -41.727-122.363 -53.506  0.00  0.00     0.103 A 
ATOM     14  C   UNL d   1     -41.486-122.919 -54.067  0.00  0.00     0.021 A 
ATOM     15  C   UNL d   1     -41.183-123.646 -53.822  0.00  0.00     0.002 A 
ATOM     16  C   UNL d   1     -41.123-123.817 -53.007  0.00  0.00     0.002 A 
ATOM     17  C   UNL d   1     -41.358-123.276 -52.453  0.00  0.00     0.021 A 
BRANCH  13  18
ATOM     18  N   UNL d   1     -42.028-121.639 -53.760  0.00  0.00    -0.206 NA
ATOM     19  C   UNL d   1     -42.244-121.547 -54.551  0.00  0.00     0.280 C 
ATOM     20  O   UNL d   1     -42.158-122.172 -55.070  0.00  0.00    -0.265 OA
ATOM     21  C   UNL d   1     -42.546-120.827 -54.815  0.00  0.00     0.068 C 
ENDBRANCH  13  18
ENDBRANCH   1  12
TORSDOF 4
ENDMDL
MODEL 3
REMARK VINA RESULT:      -2.8      1.484      4.607
REMARK  4 active torsions:
REMARK  status: ('A' for Active; 'I' for Inactive)
REMARK    1  A    between atoms: N_2  and  S_1 
REMARK    2  A    between atoms: C_4  and  S_1 
REMARK    3  A    between atoms: C_3  and  N_2 
REMARK    4  A    between atoms: N_5  and  C_6 
REMARK       I    between atoms: C_9  and  N_5 
ROOT
ATOM      1  N   UNL d   1     -41.903-122.838 -52.358  0.00  0.00    -0.157 NA
ENDROOT
BRANCH   1   2
ATOM      2  S   UNL d   1     -41.923-122.634 -53.184  0.00  0.00     0.285 S 
ATOM      3  O   UNL d   1     -41.130-122.897 -53.269  0.00  0.00    -0.198 OA
ATOM      4  O   UNL d   1     -42.716-122.370 -53.099  0.00  0.00    -0.198 OA
BRANCH   2   5
ATOM      5  C   UNL d   1     -41.949-122.432 -53.995  0.00  0.00     0.105 A 
ATOM      6  C   UNL d   1     -41.345-122.682 -54.504  0.00  0.00     0.013 A 
ATOM      7  C   UNL d   1     -41.369-122.486 -55.294  0.00  0.00     0.001 A 
ATOM      8  C   UNL d   1     -41.993-122.037 -55.590  0.00  0.00     0.000 A 
ATOM      9  C   UNL d   1     -42.596-121.786 -55.082  0.00  0.00     0.001 A 
ATOM     10  C   UNL d   1     -42.011-121.837 -56.407  0.00  0.00     0.000 C 
ATOM     11  C   UNL d   1     -42.568-121.987 -54.283  0.00  0.00     0.013 A 
ENDBRANCH   2   5
ENDBRANCH   1   2
BRANCH   1  12
ATOM     12  C   UNL d   1     -41.687-122.260 -51.794  0.00  0.00     0.112 A 
ATOM     13  C   UNL d   1     -41.826-122.396 -50.991  0.00  0.00     0.103 A 
ATOM     14  C   UNL d   1     -41.612-121.824 -50.435  0.00  0.00     0.021 A 
ATOM     15  C   UNL d   1     -41.261-121.120 -50.683  0.00  0.00     0.002 A 
ATOM     16  C   UNL d   1     -41.123-120.989 -51.495  0.00  0.00     0.002 A 
ATOM     17  C   UNL d   1     -41.330-121.546 -52.045  0.00  0.00     0.021 A 
BRANCH  13  18
ATOM     18  N   UNL d   1     -42.177-123.096 -50.734  0.00  0.00    -0.206 NA
ATOM     19  C   UNL d   1     -42.525-123.122 -49.986  0.00  0.00     0.280 C 
ATOM     20  O   UNL d   1     -42.517-122.457 -49.512  0.00  0.00    -0.265 OA
ATOM     21  C   UNL d   1     -42.878-123.818 -49.720  0.00  0.00     0.068 C 
ENDBRANCH  13  18
ENDBRANCH   1  12
TORSDOF 4
ENDMDL
