MODEL 1
REMARK VINA RESULT:       5.1      0.000      0.000
REMARK  7 active torsions:
REMARK  status: ('A' for Active; 'I' for Inactive)
REMARK       I    between atoms: C_3  and  N_1 
REMARK    1  A    between atoms: C_4  and  N_2 
REMARK    2  A    between atoms: C_15  and  C_3 
REMARK    3  A    between atoms: C_12  and  C_4 
REMARK    4  A    between atoms: C_13  and  C_4 
REMARK    5  A    between atoms: C_5  and  C_17 
REMARK    6  A    between atoms: C_16  and  C_15 
REMARK    7  A    between atoms: C_17  and  C_16 
ROOT
ATOM      1  N   UNL d   1     -41.756-123.009 -52.254  0.00  0.00    -0.269 N 
ATOM      2  N   UNL d   1     -42.365-123.056 -50.703  0.00  0.00    -0.301 N 
ATOM      3  C   UNL d   1     -41.456-122.978 -53.022  0.00  0.00     0.265 C 
ATOM      4  C   UNL d   1     -42.094-122.325 -51.917  0.00  0.00     0.102 A 
ATOM      5  C   UNL d   1     -41.726-123.713 -51.809  0.00  0.00     0.102 A 
ATOM      6  C   UNL d   1     -42.031-123.734 -51.036  0.00  0.00     0.100 A 
ATOM      7  C   UNL d   1     -42.403-122.346 -51.133  0.00  0.00     0.100 A 
ATOM      8  O   UNL d   1     -41.126-123.655 -53.345  0.00  0.00    -0.267 OA
ENDROOT
BRANCH   2   9
ATOM      9  C   UNL d   1     -42.668-123.077 -49.936  0.00  0.00     0.064 C 
BRANCH   9  10
ATOM     10  C   UNL d   1     -43.492-123.094 -49.808  0.00  0.00     0.016 A 
ATOM     11  C   UNL d   1     -43.935-122.407 -49.917  0.00  0.00     0.001 A 
ATOM     12  C   UNL d   1     -44.744-122.436 -49.788  0.00  0.00     0.000 A 
ATOM     13  C   UNL d   1     -45.114-123.135 -49.553  0.00  0.00     0.000 A 
ATOM     14  C   UNL d   1     -44.662-123.815 -49.447  0.00  0.00     0.000 A 
ATOM     15  C   UNL d   1     -43.843-123.802 -49.573  0.00  0.00     0.001 A 
ENDBRANCH   9  10
BRANCH   9  16
ATOM     16  C   UNL d   1     -42.154-123.080 -49.293  0.00  0.00     0.016 A 
ATOM     17  C   UNL d   1     -42.123-122.436 -48.789  0.00  0.00     0.001 A 
ATOM     18  C   UNL d   1     -41.611-122.432 -48.142  0.00  0.00     0.000 A 
ATOM     19  C   UNL d   1     -41.123-123.091 -48.005  0.00  0.00     0.000 A 
ATOM     20  C   UNL d   1     -41.155-123.745 -48.518  0.00  0.00     0.000 A 
ATOM     21  C   UNL d   1     -41.670-123.734 -49.157  0.00  0.00     0.001 A 
ENDBRANCH   9  16
ENDBRANCH   2   9
BRANCH   3  22
ATOM     22  C   UNL d   1     -41.489-122.284 -53.451  0.00  0.00     0.061 C 
BRANCH  22  23
ATOM     23  C   UNL d   1     -41.619-122.313 -54.259  0.00  0.00     0.011 C 
BRANCH  23  24
ATOM     24  C   UNL d   1     -41.770-121.624 -54.675  0.00  0.00     0.070 C 
BRANCH  24  25
ATOM     25  C   UNL d   1     -42.214-121.649 -55.363  0.00  0.00     0.211 C 
ATOM     26  O   UNL d   1     -41.855-121.557 -56.086  0.00  0.00    -0.644 OA
ATOM     27  O   UNL d   1     -43.032-121.769 -55.317  0.00  0.00    -0.644 OA
ENDBRANCH  24  25
ENDBRANCH  23  24
ENDBRANCH  22  23
ENDBRANCH   3  22
TORSDOF 7
ENDMDL
