MODEL 1
REMARK VINA RESULT:     172.7      0.000      0.000
REMARK  5 active torsions:
REMARK  status: ('A' for Active; 'I' for Inactive)
REMARK    1  A    between atoms: N_3  and  S_1 
REMARK    2  A    between atoms: C_13  and  S_1 
REMARK    3  A    between atoms: C_2  and  N_3 
REMARK    4  A    between atoms: N_9  and  C_4 
REMARK       I    between atoms: C_8  and  N_10 
REMARK    5  A    between atoms: C_19  and  C_8 
ROOT
ATOM      1  C   UNL d   1      61.042  45.069  50.724  0.00  0.00     0.110 A 
ATOM      2  C   UNL d   1      61.290  46.051  50.404  0.00  0.00     0.083 A 
ATOM      3  C   UNL d   1      61.556  44.614  50.275  0.00  0.00     0.020 A 
ATOM      4  C   UNL d   1      61.886  45.925  49.847  0.00  0.00     0.018 A 
ATOM      5  C   UNL d   1      62.000  45.110  49.810  0.00  0.00     0.003 A 
ATOM      6  C   UNL d   1      62.566  44.796  49.298  0.00  0.00     0.000 A 
ATOM      7  C   UNL d   1      61.659  43.790  50.248  0.00  0.00     0.002 A 
ATOM      8  C   UNL d   1      62.330  46.419  49.382  0.00  0.00     0.002 A 
ATOM      9  C   UNL d   1      62.236  43.487  49.726  0.00  0.00     0.000 A 
ATOM     10  C   UNL d   1      62.909  46.119  48.858  0.00  0.00     0.000 A 
ATOM     11  C   UNL d   1      62.685  43.986  49.255  0.00  0.00     0.000 A 
ATOM     12  C   UNL d   1      63.015  45.297  48.828  0.00  0.00     0.000 A 
ENDROOT
BRANCH   2  13
ATOM     13  N   UNL d   1      61.046  46.815  50.569  0.00  0.00    -0.300 N 
ATOM     14  C   UNL d   1      61.582  47.351  50.891  0.00  0.00     0.100 A 
ATOM     15  C   UNL d   1      61.337  48.090  51.048  0.00  0.00     0.102 A 
ATOM     16  N   UNL d   1      60.548  48.360  50.902  0.00  0.00    -0.269 N 
ATOM     17  C   UNL d   1      60.288  49.126  51.064  0.00  0.00     0.265 C 
ATOM     18  C   UNL d   1      60.018  47.828  50.584  0.00  0.00     0.102 A 
ATOM     19  O   UNL d   1      60.782  49.708  51.388  0.00  0.00    -0.267 OA
ATOM     20  C   UNL d   1      60.280  47.016  50.409  0.00  0.00     0.100 A 
BRANCH  17  21
ATOM     21  C   UNL d   1      59.510  49.316  50.897  0.00  0.00     0.057 A 
ATOM     22  C   UNL d   1      58.929  49.327  51.495  0.00  0.00     0.005 A 
ATOM     23  C   UNL d   1      58.141  49.521  51.318  0.00  0.00     0.000 A 
ATOM     24  C   UNL d   1      57.925  49.708  50.533  0.00  0.00     0.000 A 
ATOM     25  C   UNL d   1      58.503  49.697  49.941  0.00  0.00     0.000 A 
ATOM     26  C   UNL d   1      59.289  49.502  50.124  0.00  0.00     0.005 A 
ENDBRANCH  17  21
ENDBRANCH   2  13
BRANCH   1  27
ATOM     27  N   UNL d   1      60.520  44.731  51.250  0.00  0.00    -0.157 NA
BRANCH  27  28
ATOM     28  S   UNL d   1      59.725  44.629  51.062  0.00  0.00     0.285 S 
ATOM     29  O   UNL d   1      59.603  45.436  51.175  0.00  0.00    -0.198 OA
ATOM     30  O   UNL d   1      59.852  43.828  50.951  0.00  0.00    -0.198 OA
BRANCH  28  31
ATOM     31  C   UNL d   1      58.935  44.532  50.876  0.00  0.00     0.105 A 
ATOM     32  C   UNL d   1      58.346  44.817  51.383  0.00  0.00     0.013 A 
ATOM     33  C   UNL d   1      57.557  44.718  51.193  0.00  0.00     0.001 A 
ATOM     34  C   UNL d   1      57.344  44.339  50.502  0.00  0.00     0.000 A 
ATOM     35  C   UNL d   1      57.930  44.044  49.976  0.00  0.00     0.001 A 
ATOM     36  C   UNL d   1      58.722  44.151  50.181  0.00  0.00     0.013 A 
ENDBRANCH  28  31
ENDBRANCH  27  28
ENDBRANCH   1  27
TORSDOF 5
ENDMDL
