MODEL 1
REMARK VINA RESULT:      21.3      0.000      0.000
REMARK  0 active torsions:
REMARK  status: ('A' for Active; 'I' for Inactive)
ROOT
ATOM      1  C   UNL d   1      13.960  13.018  -2.647  0.00  0.00     0.138 A 
ATOM      2  C   UNL d   1      13.948  12.194  -2.642  0.00  0.00     0.102 A 
ATOM      3  N   UNL d   1      14.260  13.432  -1.998  0.00  0.00    -0.239 NA
ATOM      4  C   UNL d   1      13.675  13.431  -3.295  0.00  0.00     0.214 A 
ATOM      5  N   UNL d   1      14.237  11.782  -1.986  0.00  0.00    -0.242 NA
ATOM      6  C   UNL d   1      13.363  12.193  -3.939  0.00  0.00     0.022 A 
ATOM      7  C   UNL d   1      13.375  13.018  -3.945  0.00  0.00     0.042 A 
ATOM      8  C   UNL d   1      14.551  13.019  -1.337  0.00  0.00     0.099 A 
ATOM      9  C   UNL d   1      14.539  12.194  -1.331  0.00  0.00     0.099 A 
ATOM     10  O   UNL d   1      13.687  14.256  -3.301  0.00  0.00    -0.285 OA
ATOM     11  C   UNL d   1      13.067  11.780  -4.581  0.00  0.00     0.002 A 
ATOM     12  C   UNL d   1      13.090  13.430  -4.592  0.00  0.00     0.003 A 
ATOM     13  C   UNL d   1      14.822  11.798  -0.689  0.00  0.00     0.021 A 
ATOM     14  C   UNL d   1      14.845  13.438  -0.701  0.00  0.00     0.021 A 
ATOM     15  C   UNL d   1      12.784  12.192  -5.222  0.00  0.00     0.000 A 
ATOM     16  C   UNL d   1      12.796  13.017  -5.228  0.00  0.00     0.000 A 
ATOM     17  C   UNL d   1      15.133  12.195  -0.015  0.00  0.00     0.002 A 
ATOM     18  C   UNL d   1      15.145  13.020  -0.020  0.00  0.00     0.002 A 
ENDROOT
TORSDOF 0
ENDMDL
MODEL 2
REMARK VINA RESULT:      22.8     10.667     10.695
REMARK  0 active torsions:
REMARK  status: ('A' for Active; 'I' for Inactive)
ROOT
ATOM      1  C   UNL d   1      24.597  13.041  -2.955  0.00  0.00     0.138 A 
ATOM      2  C   UNL d   1      24.659  12.219  -2.965  0.00  0.00     0.102 A 
ATOM      3  N   UNL d   1      24.539  13.442  -2.234  0.00  0.00    -0.239 NA
ATOM      4  C   UNL d   1      24.592  13.464  -3.656  0.00  0.00     0.214 A 
ATOM      5  N   UNL d   1      24.663  11.797  -2.255  0.00  0.00    -0.242 NA
ATOM      6  C   UNL d   1      24.711  12.240  -4.387  0.00  0.00     0.022 A 
ATOM      7  C   UNL d   1      24.649  13.063  -4.377  0.00  0.00     0.042 A 
ATOM      8  C   UNL d   1      24.543  13.020  -1.518  0.00  0.00     0.099 A 
ATOM      9  C   UNL d   1      24.605  12.197  -1.528  0.00  0.00     0.099 A 
ATOM     10  O   UNL d   1      24.530  14.286  -3.646  0.00  0.00    -0.285 OA
ATOM     11  C   UNL d   1      24.768  11.840  -5.098  0.00  0.00     0.002 A 
ATOM     12  C   UNL d   1      24.645  13.485  -5.078  0.00  0.00     0.003 A 
ATOM     13  C   UNL d   1      24.609  11.791  -0.832  0.00  0.00     0.021 A 
ATOM     14  C   UNL d   1      24.486  13.426  -0.813  0.00  0.00     0.021 A 
ATOM     15  C   UNL d   1      24.764  12.261  -5.794  0.00  0.00     0.000 A 
ATOM     16  C   UNL d   1      24.702  13.084  -5.784  0.00  0.00     0.000 A 
ATOM     17  C   UNL d   1      24.552  12.176  -0.085  0.00  0.00     0.002 A 
ATOM     18  C   UNL d   1      24.490  12.998  -0.075  0.00  0.00     0.002 A 
ENDROOT
TORSDOF 0
ENDMDL
