MODEL 1
REMARK VINA RESULT:      -3.7      0.000      0.000
REMARK  5 active torsions:
REMARK  status: ('A' for Active; 'I' for Inactive)
REMARK    1  A    between atoms: C_3  and  C_1 
REMARK       I    between atoms: N_2  and  C_4 
REMARK    2  A    between atoms: C_5  and  N_2 
REMARK       I    between atoms: N_6  and  C_3 
REMARK    3  A    between atoms: C_4  and  C_7 
REMARK    4  A    between atoms: C_7  and  N_6 
REMARK    5  A    between atoms: C_21  and  C_7 
ROOT
ATOM      1  C   UNL d   1      30.919  16.910 -24.243  0.00  0.00     0.263 C 
ATOM      2  N   UNL d   1      31.528  16.831 -23.702  0.00  0.00    -0.206 NA
ATOM      3  O   UNL d   1      31.082  17.244 -24.983  0.00  0.00    -0.270 OA
ENDROOT
BRANCH   2   4
ATOM      4  C   UNL d   1      32.284  17.076 -23.886  0.00  0.00     0.142 C 
BRANCH   4   5
ATOM      5  C   UNL d   1      32.531  17.853 -23.716  0.00  0.00     0.299 C 
ATOM      6  N   UNL d   1      32.615  18.100 -22.948  0.00  0.00    -0.181 NA
ATOM      7  O   UNL d   1      32.687  18.363 -24.344  0.00  0.00    -0.263 OA
BRANCH   6   8
ATOM      8  C   UNL d   1      32.859  18.868 -22.774  0.00  0.00     0.197 A 
ATOM      9  N   UNL d   1      33.009  19.104 -21.983  0.00  0.00    -0.219 NA
ATOM     10  C   UNL d   1      33.241  19.898 -22.006  0.00  0.00     0.108 A 
ATOM     11  C   UNL d   1      33.241  20.157 -22.752  0.00  0.00     0.059 A 
ATOM     12  S   UNL d   1      33.000  19.520 -23.274  0.00  0.00    -0.046 SA
ENDBRANCH   6   8
ENDBRANCH   4   5
BRANCH   4  13
ATOM     13  C   UNL d   1      32.799  16.548 -24.241  0.00  0.00     0.022 C 
ATOM     14  C   UNL d   1      32.938  16.598 -25.054  0.00  0.00     0.002 C 
ATOM     15  C   UNL d   1      33.153  15.996 -23.775  0.00  0.00     0.002 C 
ENDBRANCH   4  13
ENDBRANCH   2   4
BRANCH   1  16
ATOM     16  C   UNL d   1      30.172  16.668 -24.061  0.00  0.00     0.111 A 
ATOM     17  C   UNL d   1      29.904  17.226 -24.419  0.00  0.00     0.026 A 
ATOM     18  C   UNL d   1      29.149  17.326 -24.461  0.00  0.00     0.045 A 
ATOM     19  C   UNL d   1      28.751  16.637 -23.997  0.00  0.00    -0.022 A 
ATOM     20  C   UNL d   1      28.488  16.838 -24.120  0.00  0.00    -0.022 A 
ATOM     21  C   UNL d   1      29.065  15.984 -23.578  0.00  0.00    -0.007 A 
ATOM     22  C   UNL d   1      29.914  16.005 -23.618  0.00  0.00    -0.014 A 
ATOM     23  C   UNL d   1      28.494  15.545 -23.273  0.00  0.00    -0.001 A 
ATOM     24  C   UNL d   1      28.771  16.248 -23.742  0.00  0.00    -0.007 A 
ATOM     25  C   UNL d   1      29.666  16.248 -23.770  0.00  0.00    -0.014 A 
ENDBRANCH   1  16
TORSDOF 5
ENDMDL
MODEL 2
REMARK VINA RESULT:      -3.3      1.386      4.296
REMARK  5 active torsions:
REMARK  status: ('A' for Active; 'I' for Inactive)
REMARK    1  A    between atoms: C_3  and  C_1 
REMARK       I    between atoms: N_2  and  C_4 
REMARK    2  A    between atoms: C_5  and  N_2 
REMARK       I    between atoms: N_6  and  C_3 
REMARK    3  A    between atoms: C_4  and  C_7 
REMARK    4  A    between atoms: C_7  and  N_6 
REMARK    5  A    between atoms: C_21  and  C_7 
ROOT
ATOM      1  C   UNL d   1      32.638  18.040 -23.282  0.00  0.00     0.263 C 
ATOM      2  N   UNL d   1      32.294  17.786 -23.980  0.00  0.00    -0.206 NA
ATOM      3  O   UNL d   1      32.795  17.485 -22.688  0.00  0.00    -0.270 OA
ENDROOT
BRANCH   2   4
ATOM      4  C   UNL d   1      32.108  17.000 -24.091  0.00  0.00     0.142 C 
BRANCH   4   5
ATOM      5  C   UNL d   1      31.330  16.726 -23.965  0.00  0.00     0.299 C 
ATOM      6  N   UNL d   1      30.740  16.903 -24.493  0.00  0.00    -0.181 NA
ATOM      7  O   UNL d   1      31.176  16.274 -23.293  0.00  0.00    -0.263 OA
BRANCH   6   8
ATOM      8  C   UNL d   1      29.970  16.635 -24.373  0.00  0.00     0.197 A 
ATOM      9  N   UNL d   1      29.370  17.155 -24.102  0.00  0.00    -0.219 NA
ATOM     10  C   UNL d   1      28.673  16.713 -24.042  0.00  0.00     0.108 A 
ATOM     11  C   UNL d   1      28.811  15.965 -24.257  0.00  0.00     0.059 A 
ATOM     12  S   UNL d   1      29.635  15.879 -24.476  0.00  0.00    -0.046 SA
ENDBRANCH   6   8
ENDBRANCH   4   5
BRANCH   4  13
ATOM     13  C   UNL d   1      32.693  16.480 -24.328  0.00  0.00     0.022 C 
ATOM     14  C   UNL d   1      32.983  15.920 -23.795  0.00  0.00     0.002 C 
ATOM     15  C   UNL d   1      32.966  16.539 -25.083  0.00  0.00     0.002 C 
ENDBRANCH   4  13
ENDBRANCH   2   4
BRANCH   1  16
ATOM     16  C   UNL d   1      32.823  18.817 -23.172  0.00  0.00     0.111 A 
ATOM     17  C   UNL d   1      32.884  18.703 -22.469  0.00  0.00     0.026 A 
ATOM     18  C   UNL d   1      33.068  19.279 -22.003  0.00  0.00     0.045 A 
ATOM     19  C   UNL d   1      33.170  20.033 -22.521  0.00  0.00    -0.022 A 
ATOM     20  C   UNL d   1      33.233  20.133 -22.188  0.00  0.00    -0.022 A 
ATOM     21  C   UNL d   1      33.098  20.167 -23.345  0.00  0.00    -0.007 A 
ATOM     22  C   UNL d   1      32.890  19.438 -23.731  0.00  0.00    -0.014 A 
ATOM     23  C   UNL d   1      33.241  20.915 -23.522  0.00  0.00    -0.001 A 
ATOM     24  C   UNL d   1      33.168  20.254 -22.932  0.00  0.00    -0.007 A 
ATOM     25  C   UNL d   1      32.949  19.499 -23.362  0.00  0.00    -0.014 A 
ENDBRANCH   1  16
TORSDOF 5
ENDMDL
