MODEL 1
REMARK VINA RESULT:      32.1      0.000      0.000
REMARK  4 active torsions:
REMARK  status: ('A' for Active; 'I' for Inactive)
REMARK    1  A    between atoms: N_2  and  S_1 
REMARK    2  A    between atoms: N_3  and  S_1 
REMARK    3  A    between atoms: C_8  and  N_3 
REMARK    4  A    between atoms: C_6  and  C_8 
ROOT
ATOM      1  S   UNL d   1     -47.372  31.955  34.837  0.00  0.00     0.351 S 
ATOM      2  O   UNL d   1     -47.083  32.518  35.367  0.00  0.00    -0.180 OA
ATOM      3  O   UNL d   1     -47.658  31.392  34.311  0.00  0.00    -0.180 OA
ENDROOT
BRANCH   1   4
ATOM      4  N   UNL d   1     -47.658  32.560  34.355  0.00  0.00    -0.211 N 
ATOM      5  C   UNL d   1     -48.473  32.666  34.285  0.00  0.00     0.120 C 
ATOM      6  C   UNL d   1     -48.757  33.269  33.804  0.00  0.00     0.142 C 
ATOM      7  O   UNL d   1     -48.242  33.688  33.314  0.00  0.00    -0.300 OA
ATOM      8  C   UNL d   1     -47.443  33.502  33.306  0.00  0.00     0.142 C 
ATOM      9  C   UNL d   1     -47.157  32.896  33.788  0.00  0.00     0.120 C 
ENDBRANCH   1   4
BRANCH   1  10
ATOM     10  N   UNL d   1     -47.111  31.309  35.274  0.00  0.00    -0.144 NA
BRANCH  10  11
ATOM     11  C   UNL d   1     -47.656  30.788  35.630  0.00  0.00     0.121 C 
BRANCH  11  12
ATOM     12  C   UNL d   1     -47.507  29.963  35.649  0.00  0.00     0.185 C 
ATOM     13  O   UNL d   1     -47.965  29.432  35.139  0.00  0.00    -0.321 OA
ATOM     14  C   UNL d   1     -47.873  28.672  35.440  0.00  0.00     0.117 C 
ATOM     15  C   UNL d   1     -47.607  28.729  36.220  0.00  0.00     0.025 C 
ATOM     16  C   UNL d   1     -47.534  29.532  36.403  0.00  0.00     0.012 C 
ENDBRANCH  11  12
ENDBRANCH  10  11
ENDBRANCH   1  10
TORSDOF 4
ENDMDL
MODEL 2
REMARK VINA RESULT:      33.5      0.896      3.839
REMARK  4 active torsions:
REMARK  status: ('A' for Active; 'I' for Inactive)
REMARK    1  A    between atoms: N_2  and  S_1 
REMARK    2  A    between atoms: N_3  and  S_1 
REMARK    3  A    between atoms: C_8  and  N_3 
REMARK    4  A    between atoms: C_6  and  C_8 
ROOT
ATOM      1  S   UNL d   1     -47.369  30.854  35.308  0.00  0.00     0.351 S 
ATOM      2  O   UNL d   1     -47.173  31.100  36.072  0.00  0.00    -0.180 OA
ATOM      3  O   UNL d   1     -47.564  30.611  34.548  0.00  0.00    -0.180 OA
ENDROOT
BRANCH   1   4
ATOM      4  N   UNL d   1     -47.504  30.091  35.593  0.00  0.00    -0.211 N 
ATOM      5  C   UNL d   1     -47.993  29.584  35.163  0.00  0.00     0.120 C 
ATOM      6  C   UNL d   1     -48.127  28.825  35.447  0.00  0.00     0.142 C 
ATOM      7  O   UNL d   1     -47.870  28.611  36.202  0.00  0.00    -0.300 OA
ATOM      8  C   UNL d   1     -47.478  29.159  36.671  0.00  0.00     0.142 C 
ATOM      9  C   UNL d   1     -47.343  29.922  36.387  0.00  0.00     0.120 C 
ENDBRANCH   1   4
BRANCH   1  10
ATOM     10  N   UNL d   1     -47.250  31.592  34.965  0.00  0.00    -0.144 NA
BRANCH  10  11
ATOM     11  C   UNL d   1     -47.736  31.853  34.339  0.00  0.00     0.121 C 
BRANCH  11  12
ATOM     12  C   UNL d   1     -47.737  32.659  34.109  0.00  0.00     0.185 C 
ATOM     13  O   UNL d   1     -48.417  32.981  33.677  0.00  0.00    -0.321 OA
ATOM     14  C   UNL d   1     -48.169  33.684  33.329  0.00  0.00     0.117 C 
ATOM     15  C   UNL d   1     -47.343  33.688  33.306  0.00  0.00     0.025 C 
ATOM     16  C   UNL d   1     -47.079  32.981  33.643  0.00  0.00     0.012 C 
ENDBRANCH  11  12
ENDBRANCH  10  11
ENDBRANCH   1  10
TORSDOF 4
ENDMDL
