MODEL 1
REMARK VINA RESULT:      -8.2      0.000      0.000
REMARK  6 active torsions:
REMARK  status: ('A' for Active; 'I' for Inactive)
REMARK    1  A    between atoms: S_9  and  C_4 
REMARK    2  A    between atoms: C_15  and  S_9 
REMARK    3  A    between atoms: C_11  and  C_15 
REMARK    4  A    between atoms: O_14  and  C_11 
REMARK    5  A    between atoms: C_17  and  O_14 
REMARK    6  A    between atoms: C_18  and  C_17 
ROOT
ATOM      1  C   UNL d   1      53.677  32.860  54.162  0.00  0.00     0.104 A 
ATOM      2  N   UNL d   1      52.641  32.447  53.274  0.00  0.00    -0.251 N 
ATOM      3  C   UNL d   1      53.330  32.279  53.710  0.00  0.00     0.274 A 
ATOM      4  C   UNL d   1      52.314  33.204  53.302  0.00  0.00     0.182 A 
ATOM      5  C   UNL d   1      53.351  33.617  54.191  0.00  0.00     0.095 A 
ATOM      6  N   UNL d   1      52.677  33.793  53.768  0.00  0.00    -0.222 NA
ATOM      7  S   UNL d   1      54.346  32.855  54.641  0.00  0.00    -0.081 SA
ATOM      8  C   UNL d   1      53.818  34.080  54.688  0.00  0.00     0.026 A 
ATOM      9  O   UNL d   1      53.656  31.521  53.681  0.00  0.00    -0.266 OA
ATOM     10  C   UNL d   1      54.429  33.614  54.965  0.00  0.00     0.031 A 
ATOM     11  C   UNL d   1      52.283  31.856  52.811  0.00  0.00     0.104 C 
ATOM     12  C   UNL d   1      55.023  33.865  55.479  0.00  0.00     0.007 C 
ENDROOT
BRANCH   4  13
ATOM     13  S   UNL d   1      51.625  33.383  52.869  0.00  0.00    -0.044 SA
BRANCH  13  14
ATOM     14  C   UNL d   1      51.219  34.086  53.021  0.00  0.00     0.107 C 
BRANCH  14  15
ATOM     15  C   UNL d   1      50.603  34.322  52.525  0.00  0.00     0.307 C 
ATOM     16  O   UNL d   1      50.655  34.190  51.712  0.00  0.00    -0.258 OA
BRANCH  15  17
ATOM     17  O   UNL d   1      49.937  34.691  52.841  0.00  0.00    -0.271 OA
BRANCH  17  18
ATOM     18  C   UNL d   1      49.310  34.904  52.348  0.00  0.00     0.126 C 
BRANCH  18  19
ATOM     19  C   UNL d   1      48.707  35.382  52.634  0.00  0.00     0.025 A 
ATOM     20  C   UNL d   1      48.074  35.583  52.144  0.00  0.00     0.002 A 
ATOM     21  C   UNL d   1      47.468  36.064  52.432  0.00  0.00     0.000 A 
ATOM     22  C   UNL d   1      47.496  36.344  53.208  0.00  0.00     0.000 A 
ATOM     23  C   UNL d   1      48.126  36.142  53.689  0.00  0.00     0.000 A 
ATOM     24  C   UNL d   1      48.732  35.661  53.401  0.00  0.00     0.002 A 
ENDBRANCH  18  19
ENDBRANCH  17  18
ENDBRANCH  15  17
ENDBRANCH  14  15
ENDBRANCH  13  14
ENDBRANCH   4  13
TORSDOF 6
ENDMDL
MODEL 2
REMARK VINA RESULT:      -8.1      0.970      1.694
REMARK  6 active torsions:
REMARK  status: ('A' for Active; 'I' for Inactive)
REMARK    1  A    between atoms: S_9  and  C_4 
REMARK    2  A    between atoms: C_15  and  S_9 
REMARK    3  A    between atoms: C_11  and  C_15 
REMARK    4  A    between atoms: O_14  and  C_11 
REMARK    5  A    between atoms: C_17  and  O_14 
REMARK    6  A    between atoms: C_18  and  C_17 
ROOT
ATOM      1  C   UNL d   1      53.224  32.502  53.533  0.00  0.00     0.104 A 
ATOM      2  N   UNL d   1      52.770  33.854  53.528  0.00  0.00    -0.251 N 
ATOM      3  C   UNL d   1      53.328  33.279  53.754  0.00  0.00     0.274 A 
ATOM      4  C   UNL d   1      52.113  33.632  53.081  0.00  0.00     0.182 A 
ATOM      5  C   UNL d   1      52.567  32.280  53.086  0.00  0.00     0.095 A 
ATOM      6  N   UNL d   1      52.014  32.835  52.860  0.00  0.00    -0.222 NA
ATOM      7  S   UNL d   1      53.673  31.828  53.673  0.00  0.00    -0.081 SA
ATOM      8  C   UNL d   1      52.611  31.469  52.950  0.00  0.00     0.026 A 
ATOM      9  O   UNL d   1      53.985  33.501  54.201  0.00  0.00    -0.266 OA
ATOM     10  C   UNL d   1      53.290  31.190  53.309  0.00  0.00     0.031 A 
ATOM     11  C   UNL d   1      52.873  34.648  53.751  0.00  0.00     0.104 C 
ATOM     12  C   UNL d   1      53.541  30.404  53.305  0.00  0.00     0.007 C 
ENDROOT
BRANCH   4  13
ATOM     13  S   UNL d   1      51.548  34.200  52.850  0.00  0.00    -0.044 SA
BRANCH  13  14
ATOM     14  C   UNL d   1      50.744  34.020  52.903  0.00  0.00     0.107 C 
BRANCH  14  15
ATOM     15  C   UNL d   1      50.193  34.462  52.475  0.00  0.00     0.307 C 
ATOM     16  O   UNL d   1      50.206  34.448  51.649  0.00  0.00    -0.258 OA
BRANCH  15  17
ATOM     17  O   UNL d   1      49.631  34.917  52.871  0.00  0.00    -0.271 OA
BRANCH  17  18
ATOM     18  C   UNL d   1      48.897  35.061  52.523  0.00  0.00     0.126 C 
BRANCH  18  19
ATOM     19  C   UNL d   1      48.385  35.609  52.857  0.00  0.00     0.025 A 
ATOM     20  C   UNL d   1      47.806  35.969  52.392  0.00  0.00     0.002 A 
ATOM     21  C   UNL d   1      47.291  36.519  52.727  0.00  0.00     0.000 A 
ATOM     22  C   UNL d   1      47.355  36.709  53.528  0.00  0.00     0.000 A 
ATOM     23  C   UNL d   1      47.931  36.350  53.985  0.00  0.00     0.000 A 
ATOM     24  C   UNL d   1      48.446  35.800  53.649  0.00  0.00     0.002 A 
ENDBRANCH  18  19
ENDBRANCH  17  18
ENDBRANCH  15  17
ENDBRANCH  14  15
ENDBRANCH  13  14
ENDBRANCH   4  13
TORSDOF 6
ENDMDL
MODEL 3
REMARK VINA RESULT:      -7.6      1.912      5.570
REMARK  6 active torsions:
REMARK  status: ('A' for Active; 'I' for Inactive)
REMARK    1  A    between atoms: S_9  and  C_4 
REMARK    2  A    between atoms: C_15  and  S_9 
REMARK    3  A    between atoms: C_11  and  C_15 
REMARK    4  A    between atoms: O_14  and  C_11 
REMARK    5  A    between atoms: C_17  and  O_14 
REMARK    6  A    between atoms: C_18  and  C_17 
ROOT
ATOM      1  C   UNL d   1      47.935  35.597  52.473  0.00  0.00     0.104 A 
ATOM      2  N   UNL d   1      48.797  34.833  51.633  0.00  0.00    -0.251 N 
ATOM      3  C   UNL d   1      48.076  35.229  51.761  0.00  0.00     0.274 A 
ATOM      4  C   UNL d   1      49.365  34.816  52.232  0.00  0.00     0.182 A 
ATOM      5  C   UNL d   1      48.503  35.581  53.071  0.00  0.00     0.095 A 
ATOM      6  N   UNL d   1      49.212  35.196  52.957  0.00  0.00    -0.222 NA
ATOM      7  S   UNL d   1      47.288  36.022  52.751  0.00  0.00    -0.081 SA
ATOM      8  C   UNL d   1      48.206  35.996  53.719  0.00  0.00     0.026 A 
ATOM      9  O   UNL d   1      47.508  35.246  51.163  0.00  0.00    -0.266 OA
ATOM     10  C   UNL d   1      47.461  36.267  53.524  0.00  0.00     0.031 A 
ATOM     11  C   UNL d   1      48.945  34.455  50.908  0.00  0.00     0.104 C 
ATOM     12  C   UNL d   1      46.971  36.709  54.020  0.00  0.00     0.007 C 
ENDROOT
BRANCH   4  13
ATOM     13  S   UNL d   1      50.091  34.422  52.114  0.00  0.00    -0.044 SA
BRANCH  13  14
ATOM     14  C   UNL d   1      50.654  34.416  52.718  0.00  0.00     0.107 C 
BRANCH  14  15
ATOM     15  C   UNL d   1      51.404  34.101  52.580  0.00  0.00     0.307 C 
ATOM     16  O   UNL d   1      51.700  34.062  51.810  0.00  0.00    -0.258 OA
BRANCH  15  17
ATOM     17  O   UNL d   1      51.858  33.824  53.210  0.00  0.00    -0.271 OA
BRANCH  17  18
ATOM     18  C   UNL d   1      52.682  33.865  53.174  0.00  0.00     0.126 C 
BRANCH  18  19
ATOM     19  C   UNL d   1      53.135  33.556  53.785  0.00  0.00     0.025 A 
ATOM     20  C   UNL d   1      53.305  34.019  54.447  0.00  0.00     0.002 A 
ATOM     21  C   UNL d   1      53.760  33.709  55.061  0.00  0.00     0.000 A 
ATOM     22  C   UNL d   1      54.046  32.936  55.013  0.00  0.00     0.000 A 
ATOM     23  C   UNL d   1      53.875  32.481  54.355  0.00  0.00     0.000 A 
ATOM     24  C   UNL d   1      53.419  32.791  53.741  0.00  0.00     0.002 A 
ENDBRANCH  18  19
ENDBRANCH  17  18
ENDBRANCH  15  17
ENDBRANCH  14  15
ENDBRANCH  13  14
ENDBRANCH   4  13
TORSDOF 6
ENDMDL
MODEL 4
REMARK VINA RESULT:      -6.0      3.217      6.579
REMARK  6 active torsions:
REMARK  status: ('A' for Active; 'I' for Inactive)
REMARK    1  A    between atoms: S_9  and  C_4 
REMARK    2  A    between atoms: C_15  and  S_9 
REMARK    3  A    between atoms: C_11  and  C_15 
REMARK    4  A    between atoms: O_14  and  C_11 
REMARK    5  A    between atoms: C_17  and  O_14 
REMARK    6  A    between atoms: C_18  and  C_17 
ROOT
ATOM      1  C   UNL d   1      45.413  36.197  52.938  0.00  0.00     0.104 A 
ATOM      2  N   UNL d   1      46.121  35.818  51.760  0.00  0.00    -0.251 N 
ATOM      3  C   UNL d   1      45.418  36.057  52.136  0.00  0.00     0.274 A 
ATOM      4  C   UNL d   1      46.811  35.726  52.203  0.00  0.00     0.182 A 
ATOM      5  C   UNL d   1      46.103  36.105  53.382  0.00  0.00     0.095 A 
ATOM      6  N   UNL d   1      46.796  35.872  53.024  0.00  0.00    -0.222 NA
ATOM      7  S   UNL d   1      44.814  36.433  53.450  0.00  0.00    -0.081 SA
ATOM      8  C   UNL d   1      45.929  36.284  54.167  0.00  0.00     0.026 A 
ATOM      9  O   UNL d   1      44.728  36.149  51.693  0.00  0.00    -0.266 OA
ATOM     10  C   UNL d   1      45.138  36.486  54.211  0.00  0.00     0.031 A 
ATOM     11  C   UNL d   1      46.130  35.674  50.941  0.00  0.00     0.104 C 
ATOM     12  C   UNL d   1      44.740  36.704  54.900  0.00  0.00     0.007 C 
ENDROOT
BRANCH   4  13
ATOM     13  S   UNL d   1      47.520  35.488  51.836  0.00  0.00    -0.044 SA
BRANCH  13  14
ATOM     14  C   UNL d   1      48.165  35.264  52.301  0.00  0.00     0.107 C 
BRANCH  14  15
ATOM     15  C   UNL d   1      48.813  34.888  51.954  0.00  0.00     0.307 C 
ATOM     16  O   UNL d   1      48.796  34.694  51.152  0.00  0.00    -0.258 OA
BRANCH  15  17
ATOM     17  O   UNL d   1      49.476  34.705  52.410  0.00  0.00    -0.271 OA
BRANCH  17  18
ATOM     18  C   UNL d   1      50.107  34.295  52.072  0.00  0.00     0.126 C 
BRANCH  18  19
ATOM     19  C   UNL d   1      50.777  34.134  52.518  0.00  0.00     0.025 A 
ATOM     20  C   UNL d   1      50.744  33.574  53.123  0.00  0.00     0.002 A 
ATOM     21  C   UNL d   1      51.417  33.412  53.572  0.00  0.00     0.000 A 
ATOM     22  C   UNL d   1      52.124  33.810  53.416  0.00  0.00     0.000 A 
ATOM     23  C   UNL d   1      52.151  34.364  52.815  0.00  0.00     0.000 A 
ATOM     24  C   UNL d   1      51.478  34.526  52.366  0.00  0.00     0.002 A 
ENDBRANCH  18  19
ENDBRANCH  17  18
ENDBRANCH  15  17
ENDBRANCH  14  15
ENDBRANCH  13  14
ENDBRANCH   4  13
TORSDOF 6
ENDMDL
MODEL 5
REMARK VINA RESULT:      -6.0      2.270      5.239
REMARK  6 active torsions:
REMARK  status: ('A' for Active; 'I' for Inactive)
REMARK    1  A    between atoms: S_9  and  C_4 
REMARK    2  A    between atoms: C_15  and  S_9 
REMARK    3  A    between atoms: C_11  and  C_15 
REMARK    4  A    between atoms: O_14  and  C_11 
REMARK    5  A    between atoms: C_17  and  O_14 
REMARK    6  A    between atoms: C_18  and  C_17 
ROOT
ATOM      1  C   UNL d   1      52.298  34.712  53.694  0.00  0.00     0.104 A 
ATOM      2  N   UNL d   1      51.663  33.674  52.951  0.00  0.00    -0.251 N 
ATOM      3  C   UNL d   1      51.672  34.455  53.243  0.00  0.00     0.274 A 
ATOM      4  C   UNL d   1      52.290  33.167  53.123  0.00  0.00     0.182 A 
ATOM      5  C   UNL d   1      52.926  34.205  53.866  0.00  0.00     0.095 A 
ATOM      6  N   UNL d   1      52.927  33.440  53.586  0.00  0.00    -0.222 NA
ATOM      7  S   UNL d   1      52.456  35.437  54.050  0.00  0.00    -0.081 SA
ATOM      8  C   UNL d   1      53.470  34.617  54.328  0.00  0.00     0.026 A 
ATOM      9  O   UNL d   1      51.045  34.962  53.071  0.00  0.00    -0.266 OA
ATOM     10  C   UNL d   1      53.183  35.374  54.441  0.00  0.00     0.031 A 
ATOM     11  C   UNL d   1      51.025  33.407  52.490  0.00  0.00     0.104 C 
ATOM     12  C   UNL d   1      53.562  35.966  54.874  0.00  0.00     0.007 C 
ENDROOT
BRANCH   4  13
ATOM     13  S   UNL d   1      52.291  32.384  52.837  0.00  0.00    -0.044 SA
BRANCH  13  14
ATOM     14  C   UNL d   1      52.905  31.874  53.046  0.00  0.00     0.107 C 
BRANCH  14  15
ATOM     15  C   UNL d   1      52.840  31.065  52.893  0.00  0.00     0.307 C 
ATOM     16  O   UNL d   1      52.819  30.793  52.114  0.00  0.00    -0.258 OA
BRANCH  15  17
ATOM     17  O   UNL d   1      52.796  30.529  53.519  0.00  0.00    -0.271 OA
BRANCH  17  18
ATOM     18  C   UNL d   1      53.271  29.855  53.518  0.00  0.00     0.126 C 
BRANCH  18  19
ATOM     19  C   UNL d   1      53.313  29.382  54.188  0.00  0.00     0.025 A 
ATOM     20  C   UNL d   1      53.676  28.642  54.148  0.00  0.00     0.002 A 
ATOM     21  C   UNL d   1      53.718  28.167  54.821  0.00  0.00     0.000 A 
ATOM     22  C   UNL d   1      53.397  28.432  55.534  0.00  0.00     0.000 A 
ATOM     23  C   UNL d   1      53.038  29.166  55.569  0.00  0.00     0.000 A 
ATOM     24  C   UNL d   1      52.996  29.641  54.896  0.00  0.00     0.002 A 
ENDBRANCH  18  19
ENDBRANCH  17  18
ENDBRANCH  15  17
ENDBRANCH  14  15
ENDBRANCH  13  14
ENDBRANCH   4  13
TORSDOF 6
ENDMDL
