MODEL 1
REMARK VINA RESULT:      44.8      0.000      0.000
REMARK  3 active torsions:
REMARK  status: ('A' for Active; 'I' for Inactive)
REMARK    1  A    between atoms: C_3  and  C_1 
REMARK       I    between atoms: N_4  and  C_1 
REMARK    2  A    between atoms: N_2  and  C_7 
REMARK    3  A    between atoms: C_16  and  N_4 
ROOT
ATOM      1  C   UNL d   1      58.824  49.652  50.646  0.00  0.00     0.064 A 
ATOM      2  C   UNL d   1      58.790  49.619  51.474  0.00  0.00     0.019 A 
ATOM      3  C   UNL d   1      59.569  49.695  50.277  0.00  0.00     0.019 A 
ATOM      4  C   UNL d   1      60.216  49.671  51.553  0.00  0.00     0.085 A 
ATOM      5  C   UNL d   1      59.482  49.628  51.925  0.00  0.00     0.021 A 
ATOM      6  C   UNL d   1      60.261  49.704  50.728  0.00  0.00     0.021 A 
ENDROOT
BRANCH   4   7
ATOM      7  N   UNL d   1      60.907  49.680  52.004  0.00  0.00    -0.208 NA
ATOM      8  C   UNL d   1      61.387  49.020  52.036  0.00  0.00     0.285 C 
ATOM      9  O   UNL d   1      62.079  49.030  52.487  0.00  0.00    -0.265 OA
BRANCH   8  10
ATOM     10  C   UNL d   1      61.178  48.344  51.615  0.00  0.00     0.087 A 
ATOM     11  S   UNL d   1      60.959  48.222  50.835  0.00  0.00    -0.082 SA
ATOM     12  C   UNL d   1      60.813  47.427  50.724  0.00  0.00     0.036 A 
ATOM     13  C   UNL d   1      60.941  47.038  51.444  0.00  0.00     0.008 A 
ATOM     14  C   UNL d   1      61.167  47.610  51.993  0.00  0.00     0.012 A 
ENDBRANCH   8  10
ENDBRANCH   4   7
BRANCH   1  15
ATOM     15  N   UNL d   1      58.132  49.642  50.195  0.00  0.00    -0.301 N 
ATOM     16  C   UNL d   1      58.172  49.583  49.382  0.00  0.00     0.100 A 
ATOM     17  C   UNL d   1      57.481  49.574  48.931  0.00  0.00     0.100 A 
ATOM     18  N   UNL d   1      56.750  49.624  49.294  0.00  0.00    -0.299 N 
ATOM     19  C   UNL d   1      56.707  49.684  50.115  0.00  0.00     0.100 A 
ATOM     20  C   UNL d   1      56.060  49.614  48.845  0.00  0.00     0.100 C 
ATOM     21  C   UNL d   1      57.399  49.693  50.566  0.00  0.00     0.100 A 
ENDBRANCH   1  15
TORSDOF 3
ENDMDL
