MODEL 1
REMARK VINA RESULT:      -7.9      0.000      0.000
REMARK  7 active torsions:
REMARK  status: ('A' for Active; 'I' for Inactive)
REMARK    1  A    between atoms: C_7  and  N_1 
REMARK    2  A    between atoms: C_6  and  C_4 
REMARK    3  A    between atoms: C_9  and  C_6 
REMARK    4  A    between atoms: C_8  and  C_7 
REMARK       I    between atoms: N_12  and  C_8 
REMARK    5  A    between atoms: C_10  and  C_9 
REMARK    6  A    between atoms: C_16  and  C_10 
REMARK    7  A    between atoms: C_15  and  N_12 
ROOT
ATOM      1  N   UNL d   1      51.370  33.619  52.655  0.00  0.00    -0.230 N 
ATOM      2  C   UNL d   1      51.344  34.133  52.007  0.00  0.00     0.299 A 
ATOM      3  C   UNL d   1      50.666  33.706  53.076  0.00  0.00     0.274 A 
ATOM      4  C   UNL d   1      50.203  34.275  52.688  0.00  0.00     0.090 A 
ATOM      5  S   UNL d   1      50.628  34.532  52.031  0.00  0.00    -0.022 SA
ATOM      6  O   UNL d   1      51.940  34.221  51.440  0.00  0.00    -0.259 OA
ATOM      7  O   UNL d   1      50.456  33.297  53.766  0.00  0.00    -0.266 OA
ENDROOT
BRANCH   1   8
ATOM      8  C   UNL d   1      51.986  33.107  52.853  0.00  0.00     0.149 C 
BRANCH   8   9
ATOM      9  C   UNL d   1      52.625  33.376  53.301  0.00  0.00     0.297 C 
ATOM     10  N   UNL d   1      53.112  32.832  53.682  0.00  0.00    -0.207 NA
ATOM     11  O   UNL d   1      52.771  34.182  53.364  0.00  0.00    -0.264 OA
BRANCH  10  12
ATOM     12  C   UNL d   1      53.755  33.102  54.132  0.00  0.00     0.085 A 
ATOM     13  C   UNL d   1      53.638  33.311  54.925  0.00  0.00     0.022 A 
ATOM     14  C   UNL d   1      54.276  33.577  55.367  0.00  0.00     0.044 A 
ATOM     15  C   UNL d   1      55.030  33.638  55.030  0.00  0.00     0.196 A 
ATOM     16  C   UNL d   1      55.138  33.426  54.235  0.00  0.00     0.044 A 
ATOM     17  O   UNL d   1      55.665  33.906  55.479  0.00  0.00    -0.287 OA
ATOM     18  C   UNL d   1      54.499  33.158  53.786  0.00  0.00     0.022 A 
ENDBRANCH  10  12
ENDBRANCH   8   9
ENDBRANCH   1   8
BRANCH   4  19
ATOM     19  C   UNL d   1      49.460  34.529  52.922  0.00  0.00     0.011 C 
BRANCH  19  20
ATOM     20  C   UNL d   1      49.002  34.985  52.412  0.00  0.00     0.001 C 
ATOM     21  C   UNL d   1      48.744  34.669  51.690  0.00  0.00     0.000 C 
BRANCH  20  22
ATOM     22  C   UNL d   1      48.796  35.758  52.612  0.00  0.00     0.000 C 
BRANCH  22  23
ATOM     23  C   UNL d   1      48.020  35.946  52.810  0.00  0.00     0.000 A 
ATOM     24  C   UNL d   1      47.805  36.027  53.614  0.00  0.00     0.000 A 
ATOM     25  C   UNL d   1      47.034  36.213  53.814  0.00  0.00     0.000 A 
ATOM     26  C   UNL d   1      46.472  36.321  53.218  0.00  0.00     0.000 A 
ATOM     27  C   UNL d   1      46.681  36.242  52.426  0.00  0.00     0.000 A 
ATOM     28  C   UNL d   1      47.454  36.055  52.229  0.00  0.00     0.000 A 
ENDBRANCH  22  23
ENDBRANCH  20  22
ENDBRANCH  19  20
ENDBRANCH   4  19
TORSDOF 7
ENDMDL
MODEL 2
REMARK VINA RESULT:      -7.1      1.555      2.083
REMARK  7 active torsions:
REMARK  status: ('A' for Active; 'I' for Inactive)
REMARK    1  A    between atoms: C_7  and  N_1 
REMARK    2  A    between atoms: C_6  and  C_4 
REMARK    3  A    between atoms: C_9  and  C_6 
REMARK    4  A    between atoms: C_8  and  C_7 
REMARK       I    between atoms: N_12  and  C_8 
REMARK    5  A    between atoms: C_10  and  C_9 
REMARK    6  A    between atoms: C_16  and  C_10 
REMARK    7  A    between atoms: C_15  and  N_12 
ROOT
ATOM      1  N   UNL d   1      51.286  34.106  52.733  0.00  0.00    -0.230 N 
ATOM      2  C   UNL d   1      51.206  34.643  53.358  0.00  0.00     0.299 A 
ATOM      3  C   UNL d   1      50.554  34.044  52.358  0.00  0.00     0.274 A 
ATOM      4  C   UNL d   1      50.020  34.544  52.749  0.00  0.00     0.090 A 
ATOM      5  S   UNL d   1      50.430  34.909  53.364  0.00  0.00    -0.022 SA
ATOM      6  O   UNL d   1      51.808  34.866  53.879  0.00  0.00    -0.259 OA
ATOM      7  O   UNL d   1      50.380  33.566  51.702  0.00  0.00    -0.266 OA
ENDROOT
BRANCH   1   8
ATOM      8  C   UNL d   1      51.970  33.700  52.518  0.00  0.00     0.149 C 
BRANCH   8   9
ATOM      9  C   UNL d   1      52.159  32.980  52.877  0.00  0.00     0.297 C 
ATOM     10  N   UNL d   1      52.791  32.537  52.589  0.00  0.00    -0.207 NA
ATOM     11  O   UNL d   1      51.718  32.713  53.516  0.00  0.00    -0.264 OA
BRANCH  10  12
ATOM     12  C   UNL d   1      52.981  31.814  52.949  0.00  0.00     0.085 A 
ATOM     13  C   UNL d   1      53.543  31.797  53.558  0.00  0.00     0.022 A 
ATOM     14  C   UNL d   1      53.729  31.080  53.911  0.00  0.00     0.044 A 
ATOM     15  C   UNL d   1      53.363  30.378  53.666  0.00  0.00     0.196 A 
ATOM     16  C   UNL d   1      52.802  30.404  53.056  0.00  0.00     0.044 A 
ATOM     17  O   UNL d   1      53.554  29.663  54.025  0.00  0.00    -0.287 OA
ATOM     18  C   UNL d   1      52.611  31.123  52.697  0.00  0.00     0.022 A 
ENDBRANCH  10  12
ENDBRANCH   8   9
ENDBRANCH   1   8
BRANCH   4  19
ATOM     19  C   UNL d   1      49.231  34.650  52.555  0.00  0.00     0.011 C 
BRANCH  19  20
ATOM     20  C   UNL d   1      48.847  35.348  52.761  0.00  0.00     0.001 C 
ATOM     21  C   UNL d   1      48.773  35.563  53.559  0.00  0.00     0.000 C 
BRANCH  20  22
ATOM     22  C   UNL d   1      48.532  35.841  52.179  0.00  0.00     0.000 C 
BRANCH  22  23
ATOM     23  C   UNL d   1      47.718  35.942  52.112  0.00  0.00     0.000 A 
ATOM     24  C   UNL d   1      47.292  35.504  51.542  0.00  0.00     0.000 A 
ATOM     25  C   UNL d   1      46.483  35.603  51.473  0.00  0.00     0.000 A 
ATOM     26  C   UNL d   1      46.092  36.136  51.969  0.00  0.00     0.000 A 
ATOM     27  C   UNL d   1      46.511  36.568  52.532  0.00  0.00     0.000 A 
ATOM     28  C   UNL d   1      47.321  36.467  52.598  0.00  0.00     0.000 A 
ENDBRANCH  22  23
ENDBRANCH  20  22
ENDBRANCH  19  20
ENDBRANCH   4  19
TORSDOF 7
ENDMDL
MODEL 3
REMARK VINA RESULT:      -6.9      1.972      2.617
REMARK  7 active torsions:
REMARK  status: ('A' for Active; 'I' for Inactive)
REMARK    1  A    between atoms: C_7  and  N_1 
REMARK    2  A    between atoms: C_6  and  C_4 
REMARK    3  A    between atoms: C_9  and  C_6 
REMARK    4  A    between atoms: C_8  and  C_7 
REMARK       I    between atoms: N_12  and  C_8 
REMARK    5  A    between atoms: C_10  and  C_9 
REMARK    6  A    between atoms: C_16  and  C_10 
REMARK    7  A    between atoms: C_15  and  N_12 
ROOT
ATOM      1  N   UNL d   1      52.657  33.554  53.146  0.00  0.00    -0.230 N 
ATOM      2  C   UNL d   1      52.490  34.084  53.759  0.00  0.00     0.299 A 
ATOM      3  C   UNL d   1      52.069  33.636  52.573  0.00  0.00     0.274 A 
ATOM      4  C   UNL d   1      51.537  34.218  52.830  0.00  0.00     0.090 A 
ATOM      5  S   UNL d   1      51.804  34.489  53.562  0.00  0.00    -0.022 SA
ATOM      6  O   UNL d   1      52.941  34.182  54.445  0.00  0.00    -0.259 OA
ATOM      7  O   UNL d   1      52.018  33.211  51.862  0.00  0.00    -0.266 OA
ENDROOT
BRANCH   1   8
ATOM      8  C   UNL d   1      53.294  33.032  53.106  0.00  0.00     0.149 C 
BRANCH   8   9
ATOM      9  C   UNL d   1      53.239  32.278  53.439  0.00  0.00     0.297 C 
ATOM     10  N   UNL d   1      53.313  31.615  52.957  0.00  0.00    -0.207 NA
ATOM     11  O   UNL d   1      53.111  32.195  54.246  0.00  0.00    -0.264 OA
BRANCH  10  12
ATOM     12  C   UNL d   1      53.257  30.857  53.290  0.00  0.00     0.085 A 
ATOM     13  C   UNL d   1      53.880  30.568  53.753  0.00  0.00     0.022 A 
ATOM     14  C   UNL d   1      53.821  29.819  54.081  0.00  0.00     0.044 A 
ATOM     15  C   UNL d   1      53.149  29.351  53.954  0.00  0.00     0.196 A 
ATOM     16  C   UNL d   1      52.530  29.648  53.489  0.00  0.00     0.044 A 
ATOM     17  O   UNL d   1      53.097  28.600  54.286  0.00  0.00    -0.287 OA
ATOM     18  C   UNL d   1      52.584  30.403  53.157  0.00  0.00     0.022 A 
ENDBRANCH  10  12
ENDBRANCH   8   9
ENDBRANCH   1   8
BRANCH   4  19
ATOM     19  C   UNL d   1      50.871  34.472  52.427  0.00  0.00     0.011 C 
BRANCH  19  20
ATOM     20  C   UNL d   1      50.136  34.462  52.797  0.00  0.00     0.001 C 
ATOM     21  C   UNL d   1      49.836  33.753  53.106  0.00  0.00     0.000 C 
BRANCH  20  22
ATOM     22  C   UNL d   1      49.691  35.153  52.866  0.00  0.00     0.000 C 
BRANCH  22  23
ATOM     23  C   UNL d   1      48.987  35.240  52.450  0.00  0.00     0.000 A 
ATOM     24  C   UNL d   1      48.351  35.656  52.796  0.00  0.00     0.000 A 
ATOM     25  C   UNL d   1      47.649  35.745  52.385  0.00  0.00     0.000 A 
ATOM     26  C   UNL d   1      47.575  35.421  51.628  0.00  0.00     0.000 A 
ATOM     27  C   UNL d   1      48.202  35.011  51.285  0.00  0.00     0.000 A 
ATOM     28  C   UNL d   1      48.902  34.924  51.700  0.00  0.00     0.000 A 
ENDBRANCH  22  23
ENDBRANCH  20  22
ENDBRANCH  19  20
ENDBRANCH   4  19
TORSDOF 7
ENDMDL
MODEL 4
REMARK VINA RESULT:      -6.7      2.105      6.118
REMARK  7 active torsions:
REMARK  status: ('A' for Active; 'I' for Inactive)
REMARK    1  A    between atoms: C_7  and  N_1 
REMARK    2  A    between atoms: C_6  and  C_4 
REMARK    3  A    between atoms: C_9  and  C_6 
REMARK    4  A    between atoms: C_8  and  C_7 
REMARK       I    between atoms: N_12  and  C_8 
REMARK    5  A    between atoms: C_10  and  C_9 
REMARK    6  A    between atoms: C_16  and  C_10 
REMARK    7  A    between atoms: C_15  and  N_12 
ROOT
ATOM      1  N   UNL d   1      51.131  34.155  53.043  0.00  0.00    -0.230 N 
ATOM      2  C   UNL d   1      51.825  34.254  52.603  0.00  0.00     0.299 A 
ATOM      3  C   UNL d   1      51.121  33.382  53.330  0.00  0.00     0.274 A 
ATOM      4  C   UNL d   1      51.809  33.000  53.068  0.00  0.00     0.090 A 
ATOM      5  S   UNL d   1      52.237  33.545  52.620  0.00  0.00    -0.022 SA
ATOM      6  O   UNL d   1      52.053  34.948  52.217  0.00  0.00    -0.259 OA
ATOM      7  O   UNL d   1      50.527  33.043  53.800  0.00  0.00    -0.266 OA
ENDROOT
BRANCH   1   8
ATOM      8  C   UNL d   1      50.548  34.723  53.176  0.00  0.00     0.149 C 
BRANCH   8   9
ATOM      9  C   UNL d   1      49.868  34.742  52.708  0.00  0.00     0.297 C 
ATOM     10  N   UNL d   1      49.298  35.319  52.843  0.00  0.00    -0.207 NA
ATOM     11  O   UNL d   1      49.766  34.186  52.112  0.00  0.00    -0.264 OA
BRANCH  10  12
ATOM     12  C   UNL d   1      48.614  35.339  52.373  0.00  0.00     0.085 A 
ATOM     13  C   UNL d   1      47.898  35.592  52.704  0.00  0.00     0.022 A 
ATOM     14  C   UNL d   1      47.225  35.610  52.236  0.00  0.00     0.044 A 
ATOM     15  C   UNL d   1      47.254  35.379  51.441  0.00  0.00     0.196 A 
ATOM     16  C   UNL d   1      47.975  35.127  51.117  0.00  0.00     0.044 A 
ATOM     17  O   UNL d   1      46.575  35.399  50.977  0.00  0.00    -0.287 OA
ATOM     18  C   UNL d   1      48.656  35.107  51.584  0.00  0.00     0.022 A 
ENDBRANCH  10  12
ENDBRANCH   8   9
ENDBRANCH   1   8
BRANCH   4  19
ATOM     19  C   UNL d   1      52.019  32.225  53.227  0.00  0.00     0.011 C 
BRANCH  19  20
ATOM     20  C   UNL d   1      52.809  31.997  53.196  0.00  0.00     0.001 C 
ATOM     21  C   UNL d   1      53.392  32.465  53.557  0.00  0.00     0.000 C 
BRANCH  20  22
ATOM     22  C   UNL d   1      53.031  31.305  52.806  0.00  0.00     0.000 C 
BRANCH  22  23
ATOM     23  C   UNL d   1      53.094  30.595  53.218  0.00  0.00     0.000 A 
ATOM     24  C   UNL d   1      52.527  29.994  53.095  0.00  0.00     0.000 A 
ATOM     25  C   UNL d   1      52.587  29.287  53.502  0.00  0.00     0.000 A 
ATOM     26  C   UNL d   1      53.210  29.173  54.034  0.00  0.00     0.000 A 
ATOM     27  C   UNL d   1      53.769  29.765  54.156  0.00  0.00     0.000 A 
ATOM     28  C   UNL d   1      53.706  30.471  53.746  0.00  0.00     0.000 A 
ENDBRANCH  22  23
ENDBRANCH  20  22
ENDBRANCH  19  20
ENDBRANCH   4  19
TORSDOF 7
ENDMDL
MODEL 5
REMARK VINA RESULT:      -6.5      1.975      6.327
REMARK  7 active torsions:
REMARK  status: ('A' for Active; 'I' for Inactive)
REMARK    1  A    between atoms: C_7  and  N_1 
REMARK    2  A    between atoms: C_6  and  C_4 
REMARK    3  A    between atoms: C_9  and  C_6 
REMARK    4  A    between atoms: C_8  and  C_7 
REMARK       I    between atoms: N_12  and  C_8 
REMARK    5  A    between atoms: C_10  and  C_9 
REMARK    6  A    between atoms: C_16  and  C_10 
REMARK    7  A    between atoms: C_15  and  N_12 
ROOT
ATOM      1  N   UNL d   1      49.460  34.997  52.215  0.00  0.00    -0.230 N 
ATOM      2  C   UNL d   1      49.746  34.459  51.654  0.00  0.00     0.299 A 
ATOM      3  C   UNL d   1      49.845  34.847  52.929  0.00  0.00     0.274 A 
ATOM      4  C   UNL d   1      50.370  34.216  52.811  0.00  0.00     0.090 A 
ATOM      5  S   UNL d   1      50.302  33.983  52.023  0.00  0.00    -0.022 SA
ATOM      6  O   UNL d   1      49.506  34.418  50.864  0.00  0.00    -0.259 OA
ATOM      7  O   UNL d   1      49.728  35.255  53.642  0.00  0.00    -0.266 OA
ENDROOT
BRANCH   1   8
ATOM      8  C   UNL d   1      48.892  35.582  52.091  0.00  0.00     0.149 C 
BRANCH   8   9
ATOM      9  C   UNL d   1      48.088  35.392  52.101  0.00  0.00     0.297 C 
ATOM     10  N   UNL d   1      47.529  35.996  52.135  0.00  0.00    -0.207 NA
ATOM     11  O   UNL d   1      47.853  34.606  52.076  0.00  0.00    -0.264 OA
BRANCH  10  12
ATOM     12  C   UNL d   1      46.721  35.806  52.145  0.00  0.00     0.085 A 
ATOM     13  C   UNL d   1      46.319  35.770  52.869  0.00  0.00     0.022 A 
ATOM     14  C   UNL d   1      45.520  35.583  52.874  0.00  0.00     0.044 A 
ATOM     15  C   UNL d   1      45.115  35.429  52.168  0.00  0.00     0.196 A 
ATOM     16  C   UNL d   1      45.526  35.467  51.448  0.00  0.00     0.044 A 
ATOM     17  O   UNL d   1      44.315  35.241  52.181  0.00  0.00    -0.287 OA
ATOM     18  C   UNL d   1      46.330  35.656  51.437  0.00  0.00     0.022 A 
ENDBRANCH  10  12
ENDBRANCH   8   9
ENDBRANCH   1   8
BRANCH   4  19
ATOM     19  C   UNL d   1      50.862  33.888  53.378  0.00  0.00     0.011 C 
BRANCH  19  20
ATOM     20  C   UNL d   1      51.534  33.472  53.149  0.00  0.00     0.001 C 
ATOM     21  C   UNL d   1      51.471  32.678  52.916  0.00  0.00     0.000 C 
BRANCH  20  22
ATOM     22  C   UNL d   1      52.273  33.836  53.148  0.00  0.00     0.000 C 
BRANCH  22  23
ATOM     23  C   UNL d   1      52.892  33.528  53.595  0.00  0.00     0.000 A 
ATOM     24  C   UNL d   1      53.059  33.849  54.348  0.00  0.00     0.000 A 
ATOM     25  C   UNL d   1      53.673  33.545  54.795  0.00  0.00     0.000 A 
ATOM     26  C   UNL d   1      54.126  32.921  54.497  0.00  0.00     0.000 A 
ATOM     27  C   UNL d   1      53.963  32.604  53.755  0.00  0.00     0.000 A 
ATOM     28  C   UNL d   1      53.347  32.910  53.310  0.00  0.00     0.000 A 
ENDBRANCH  22  23
ENDBRANCH  20  22
ENDBRANCH  19  20
ENDBRANCH   4  19
TORSDOF 7
ENDMDL
