MODEL 1
REMARK VINA RESULT:      -8.3      0.000      0.000
REMARK  5 active torsions:
REMARK  status: ('A' for Active; 'I' for Inactive)
REMARK    1  A    between atoms: C_4  and  C_1 
REMARK    2  A    between atoms: N_8  and  C_4 
REMARK    3  A    between atoms: C_11  and  N_8 
REMARK    4  A    between atoms: O_17  and  C_12 
REMARK    5  A    between atoms: C_20  and  O_17 
ROOT
ATOM      1  C   UNL d   1      52.076  33.862  53.702  0.00  0.00     0.105 C 
ENDROOT
BRANCH   1   2
ATOM      2  C   UNL d   1      52.823  33.720  54.052  0.00  0.00     0.096 A 
ATOM      3  C   UNL d   1      53.191  32.992  53.961  0.00  0.00     0.196 A 
ATOM      4  C   UNL d   1      53.930  32.862  54.312  0.00  0.00     0.019 A 
ATOM      5  O   UNL d   1      52.827  32.384  53.518  0.00  0.00    -0.287 OA
ATOM      6  C   UNL d   1      54.296  33.461  54.752  0.00  0.00     0.043 A 
ATOM      7  C   UNL d   1      53.916  34.192  54.839  0.00  0.00     0.019 A 
ATOM      8  C   UNL d   1      54.785  32.814  54.758  0.00  0.00     0.009 C 
ATOM      9  C   UNL d   1      54.932  33.726  55.205  0.00  0.00     0.009 C 
ATOM     10  C   UNL d   1      53.183  34.326  54.493  0.00  0.00     0.196 A 
ATOM     11  O   UNL d   1      52.818  35.070  54.592  0.00  0.00    -0.287 OA
ENDBRANCH   1   2
BRANCH   1  12
ATOM     12  N   UNL d   1      52.014  34.214  52.965  0.00  0.00    -0.244 NA
BRANCH  12  13
ATOM     13  C   UNL d   1      51.278  34.280  52.608  0.00  0.00     0.082 A 
ATOM     14  C   UNL d   1      51.221  34.201  51.789  0.00  0.00     0.021 A 
ATOM     15  C   UNL d   1      50.476  34.269  51.432  0.00  0.00     0.026 A 
ATOM     16  C   UNL d   1      49.799  34.412  51.880  0.00  0.00     0.100 A 
ATOM     17  C   UNL d   1      49.870  34.489  52.701  0.00  0.00     0.026 A 
ATOM     18  C   UNL d   1      50.606  34.423  53.062  0.00  0.00     0.021 A 
BRANCH  16  19
ATOM     19  O   UNL d   1      49.040  34.481  51.513  0.00  0.00    -0.305 OA
BRANCH  19  20
ATOM     20  C   UNL d   1      48.516  35.112  51.712  0.00  0.00     0.123 C 
ATOM     21  C   UNL d   1      47.810  35.188  51.292  0.00  0.00     0.029 C 
ENDBRANCH  19  20
ENDBRANCH  16  19
ENDBRANCH  12  13
ENDBRANCH   1  12
TORSDOF 5
ENDMDL
MODEL 2
REMARK VINA RESULT:      -7.1      1.169      5.358
REMARK  5 active torsions:
REMARK  status: ('A' for Active; 'I' for Inactive)
REMARK    1  A    between atoms: C_4  and  C_1 
REMARK    2  A    between atoms: N_8  and  C_4 
REMARK    3  A    between atoms: C_11  and  N_8 
REMARK    4  A    between atoms: O_17  and  C_12 
REMARK    5  A    between atoms: C_20  and  O_17 
ROOT
ATOM      1  C   UNL d   1      49.706  34.923  52.364  0.00  0.00     0.105 C 
ENDROOT
BRANCH   1   2
ATOM      2  C   UNL d   1      48.922  35.198  52.257  0.00  0.00     0.096 A 
ATOM      3  C   UNL d   1      48.569  35.672  52.827  0.00  0.00     0.196 A 
ATOM      4  C   UNL d   1      47.793  35.939  52.712  0.00  0.00     0.019 A 
ATOM      5  O   UNL d   1      48.985  35.885  53.520  0.00  0.00    -0.287 OA
ATOM      6  C   UNL d   1      47.376  35.730  52.027  0.00  0.00     0.043 A 
ATOM      7  C   UNL d   1      47.741  35.252  51.458  0.00  0.00     0.019 A 
ATOM      8  C   UNL d   1      46.891  36.195  52.482  0.00  0.00     0.009 C 
ATOM      9  C   UNL d   1      46.690  35.766  51.571  0.00  0.00     0.009 C 
ATOM     10  C   UNL d   1      48.510  34.984  51.567  0.00  0.00     0.196 A 
ATOM     11  O   UNL d   1      48.860  34.503  50.981  0.00  0.00    -0.287 OA
ENDBRANCH   1   2
BRANCH   1  12
ATOM     12  N   UNL d   1      49.881  34.349  52.921  0.00  0.00    -0.244 NA
BRANCH  12  13
ATOM     13  C   UNL d   1      50.642  34.044  52.964  0.00  0.00     0.082 A 
ATOM     14  C   UNL d   1      50.746  33.257  53.189  0.00  0.00     0.021 A 
ATOM     15  C   UNL d   1      51.516  32.953  53.231  0.00  0.00     0.026 A 
ATOM     16  C   UNL d   1      52.171  33.422  53.054  0.00  0.00     0.100 A 
ATOM     17  C   UNL d   1      52.052  34.209  52.830  0.00  0.00     0.026 A 
ATOM     18  C   UNL d   1      51.290  34.518  52.786  0.00  0.00     0.021 A 
BRANCH  16  19
ATOM     19  O   UNL d   1      52.956  33.108  53.099  0.00  0.00    -0.305 OA
BRANCH  19  20
ATOM     20  C   UNL d   1      53.344  33.012  53.842  0.00  0.00     0.123 C 
ATOM     21  C   UNL d   1      54.112  32.714  53.852  0.00  0.00     0.029 C 
ENDBRANCH  19  20
ENDBRANCH  16  19
ENDBRANCH  12  13
ENDBRANCH   1  12
TORSDOF 5
ENDMDL
MODEL 3
REMARK VINA RESULT:      -7.0      1.172      5.270
REMARK  5 active torsions:
REMARK  status: ('A' for Active; 'I' for Inactive)
REMARK    1  A    between atoms: C_4  and  C_1 
REMARK    2  A    between atoms: N_8  and  C_4 
REMARK    3  A    between atoms: C_11  and  N_8 
REMARK    4  A    between atoms: O_17  and  C_12 
REMARK    5  A    between atoms: C_20  and  O_17 
ROOT
ATOM      1  C   UNL d   1      49.694  34.945  52.385  0.00  0.00     0.105 C 
ENDROOT
BRANCH   1   2
ATOM      2  C   UNL d   1      48.910  35.216  52.278  0.00  0.00     0.096 A 
ATOM      3  C   UNL d   1      48.490  35.012  51.603  0.00  0.00     0.196 A 
ATOM      4  C   UNL d   1      47.714  35.286  51.506  0.00  0.00     0.019 A 
ATOM      5  O   UNL d   1      48.839  34.531  51.014  0.00  0.00    -0.287 OA
ATOM      6  C   UNL d   1      47.364  35.763  52.085  0.00  0.00     0.043 A 
ATOM      7  C   UNL d   1      47.795  35.964  52.763  0.00  0.00     0.019 A 
ATOM      8  C   UNL d   1      46.822  35.655  51.490  0.00  0.00     0.009 C 
ATOM      9  C   UNL d   1      46.715  36.193  52.359  0.00  0.00     0.009 C 
ATOM     10  C   UNL d   1      48.565  35.695  52.864  0.00  0.00     0.196 A 
ATOM     11  O   UNL d   1      48.982  35.908  53.554  0.00  0.00    -0.287 OA
ENDBRANCH   1   2
BRANCH   1  12
ATOM     12  N   UNL d   1      49.868  34.357  52.928  0.00  0.00    -0.244 NA
BRANCH  12  13
ATOM     13  C   UNL d   1      50.630  34.054  52.968  0.00  0.00     0.082 A 
ATOM     14  C   UNL d   1      50.737  33.266  53.188  0.00  0.00     0.021 A 
ATOM     15  C   UNL d   1      51.507  32.964  53.227  0.00  0.00     0.026 A 
ATOM     16  C   UNL d   1      52.161  33.435  53.051  0.00  0.00     0.100 A 
ATOM     17  C   UNL d   1      52.040  34.223  52.832  0.00  0.00     0.026 A 
ATOM     18  C   UNL d   1      51.277  34.530  52.791  0.00  0.00     0.021 A 
BRANCH  16  19
ATOM     19  O   UNL d   1      52.946  33.123  53.092  0.00  0.00    -0.305 OA
BRANCH  19  20
ATOM     20  C   UNL d   1      53.337  33.025  53.834  0.00  0.00     0.123 C 
ATOM     21  C   UNL d   1      54.107  32.728  53.840  0.00  0.00     0.029 C 
ENDBRANCH  19  20
ENDBRANCH  16  19
ENDBRANCH  12  13
ENDBRANCH   1  12
TORSDOF 5
ENDMDL
MODEL 4
REMARK VINA RESULT:      -6.6      2.333      4.447
REMARK  5 active torsions:
REMARK  status: ('A' for Active; 'I' for Inactive)
REMARK    1  A    between atoms: C_4  and  C_1 
REMARK    2  A    between atoms: N_8  and  C_4 
REMARK    3  A    between atoms: C_11  and  N_8 
REMARK    4  A    between atoms: O_17  and  C_12 
REMARK    5  A    between atoms: C_20  and  O_17 
ROOT
ATOM      1  C   UNL d   1      52.568  32.774  53.710  0.00  0.00     0.105 C 
ENDROOT
BRANCH   1   2
ATOM      2  C   UNL d   1      52.710  33.593  53.807  0.00  0.00     0.096 A 
ATOM      3  C   UNL d   1      53.072  33.872  54.489  0.00  0.00     0.196 A 
ATOM      4  C   UNL d   1      53.207  34.685  54.575  0.00  0.00     0.019 A 
ATOM      5  O   UNL d   1      53.303  33.344  55.095  0.00  0.00    -0.287 OA
ATOM      6  C   UNL d   1      52.981  35.212  53.979  0.00  0.00     0.043 A 
ATOM      7  C   UNL d   1      52.617  34.921  53.294  0.00  0.00     0.019 A 
ATOM      8  C   UNL d   1      53.319  35.644  54.577  0.00  0.00     0.009 C 
ATOM      9  C   UNL d   1      52.930  35.983  53.689  0.00  0.00     0.009 C 
ATOM     10  C   UNL d   1      52.480  34.116  53.203  0.00  0.00     0.196 A 
ATOM     11  O   UNL d   1      52.112  33.843  52.506  0.00  0.00    -0.287 OA
ENDBRANCH   1   2
BRANCH   1  12
ATOM     12  N   UNL d   1      53.044  32.316  53.225  0.00  0.00    -0.244 NA
BRANCH  12  13
ATOM     13  C   UNL d   1      53.108  31.509  53.364  0.00  0.00     0.082 A 
ATOM     14  C   UNL d   1      53.837  31.200  53.593  0.00  0.00     0.021 A 
ATOM     15  C   UNL d   1      53.898  30.385  53.732  0.00  0.00     0.026 A 
ATOM     16  C   UNL d   1      53.247  29.886  53.645  0.00  0.00     0.100 A 
ATOM     17  C   UNL d   1      52.522  30.210  53.414  0.00  0.00     0.026 A 
ATOM     18  C   UNL d   1      52.454  31.019  53.274  0.00  0.00     0.021 A 
BRANCH  16  19
ATOM     19  O   UNL d   1      53.313  29.055  53.788  0.00  0.00    -0.305 OA
BRANCH  19  20
ATOM     20  C   UNL d   1      53.257  28.742  54.570  0.00  0.00     0.123 C 
ATOM     21  C   UNL d   1      53.625  28.023  54.736  0.00  0.00     0.029 C 
ENDBRANCH  19  20
ENDBRANCH  16  19
ENDBRANCH  12  13
ENDBRANCH   1  12
TORSDOF 5
ENDMDL
