MODEL 1
REMARK VINA RESULT:      -4.4      0.000      0.000
REMARK  2 active torsions:
REMARK  status: ('A' for Active; 'I' for Inactive)
REMARK    1  A    between atoms: C_10  and  N_1 
REMARK    2  A    between atoms: C_13  and  C_10 
ROOT
ATOM      1  N   UNL d   1      57.545   0.680  31.587  0.00  0.00    -0.260 N 
ATOM      2  C   UNL d   1      58.235   0.681  32.026  0.00  0.00     0.174 A 
ATOM      3  C   UNL d   1      57.372   0.679  30.786  0.00  0.00     0.348 A 
ATOM      4  N   UNL d   1      57.809   0.678  30.107  0.00  0.00    -0.216 NA
ATOM      5  C   UNL d   1      58.613   0.679  29.932  0.00  0.00     0.137 A 
ATOM      6  O   UNL d   1      59.031   0.681  31.857  0.00  0.00    -0.316 OA
ATOM      7  C   UNL d   1      58.076   0.679  30.871  0.00  0.00     0.079 A 
ATOM      8  C   UNL d   1      59.294   0.680  30.373  0.00  0.00     0.022 A 
ATOM      9  C   UNL d   1      59.466   0.681  31.165  0.00  0.00     0.094 A 
ATOM     10  O   UNL d   1      56.576   0.678  30.648  0.00  0.00    -0.245 OA
ATOM     11  C   UNL d   1      58.251   0.682  32.848  0.00  0.00     0.055 C 
ATOM     12  C   UNL d   1      59.891   0.680  29.815  0.00  0.00    -0.001 A 
ATOM     13  C   UNL d   1      60.255   0.682  31.406  0.00  0.00     0.024 A 
ATOM     14  C   UNL d   1      60.671   0.681  30.058  0.00  0.00    -0.000 A 
ATOM     15  C   UNL d   1      60.854   0.682  30.856  0.00  0.00     0.002 A 
ENDROOT
BRANCH   1  16
ATOM     16  C   UNL d   1      56.767   0.679  31.887  0.00  0.00     0.082 C 
BRANCH  16  17
ATOM     17  C   UNL d   1      56.483   0.001  32.315  0.00  0.00     0.017 A 
ATOM     18  C   UNL d   1      56.170   0.093  33.093  0.00  0.00     0.002 A 
ATOM     19  C   UNL d   1      55.886  -0.585  33.522  0.00  0.00     0.000 A 
ATOM     20  C   UNL d   1      55.918  -1.351  33.169  0.00  0.00     0.000 A 
ATOM     21  C   UNL d   1      56.237  -1.446  32.379  0.00  0.00     0.000 A 
ATOM     22  C   UNL d   1      56.516  -0.766  31.962  0.00  0.00     0.002 A 
ENDBRANCH  16  17
ENDBRANCH   1  16
TORSDOF 2
ENDMDL
MODEL 2
REMARK VINA RESULT:      -4.0      9.113     10.026
REMARK  2 active torsions:
REMARK  status: ('A' for Active; 'I' for Inactive)
REMARK    1  A    between atoms: C_10  and  N_1 
REMARK    2  A    between atoms: C_13  and  C_10 
ROOT
ATOM      1  N   UNL d   1      59.728  -9.162  34.627  0.00  0.00    -0.260 N 
ATOM      2  C   UNL d   1      60.389  -9.100  34.151  0.00  0.00     0.174 A 
ATOM      3  C   UNL d   1      58.943  -9.360  34.502  0.00  0.00     0.348 A 
ATOM      4  N   UNL d   1      58.504  -9.575  33.858  0.00  0.00    -0.216 NA
ATOM      5  C   UNL d   1      58.660  -9.685  33.057  0.00  0.00     0.137 A 
ATOM      6  O   UNL d   1      60.548  -9.208  33.360  0.00  0.00    -0.316 OA
ATOM      7  C   UNL d   1      59.293  -9.393  33.885  0.00  0.00     0.079 A 
ATOM      8  C   UNL d   1      59.320  -9.621  32.590  0.00  0.00     0.022 A 
ATOM      9  C   UNL d   1      60.096  -9.425  32.714  0.00  0.00     0.094 A 
ATOM     10  O   UNL d   1      58.510  -9.334  35.183  0.00  0.00    -0.245 OA
ATOM     11  C   UNL d   1      61.132  -8.884  34.429  0.00  0.00     0.055 C 
ATOM     12  C   UNL d   1      59.052  -9.816  31.842  0.00  0.00    -0.001 A 
ATOM     13  C   UNL d   1      60.619  -9.424  32.075  0.00  0.00     0.024 A 
ATOM     14  C   UNL d   1      59.573  -9.813  31.213  0.00  0.00    -0.000 A 
ATOM     15  C   UNL d   1      60.359  -9.617  31.330  0.00  0.00     0.002 A 
ENDROOT
BRANCH   1  16
ATOM     16  C   UNL d   1      59.694  -9.021  35.449  0.00  0.00     0.082 C 
BRANCH  16  17
ATOM     17  C   UNL d   1      59.798  -8.229  35.743  0.00  0.00     0.017 A 
ATOM     18  C   UNL d   1      59.149  -7.690  35.745  0.00  0.00     0.002 A 
ATOM     19  C   UNL d   1      59.252  -6.898  36.038  0.00  0.00     0.000 A 
ATOM     20  C   UNL d   1      60.006  -6.651  36.329  0.00  0.00     0.000 A 
ATOM     21  C   UNL d   1      60.666  -7.198  36.328  0.00  0.00     0.000 A 
ATOM     22  C   UNL d   1      60.552  -7.982  36.034  0.00  0.00     0.002 A 
ENDBRANCH  16  17
ENDBRANCH   1  16
TORSDOF 2
ENDMDL
MODEL 3
REMARK VINA RESULT:      -3.9      1.421      2.250
REMARK  2 active torsions:
REMARK  status: ('A' for Active; 'I' for Inactive)
REMARK    1  A    between atoms: C_10  and  N_1 
REMARK    2  A    between atoms: C_13  and  C_10 
ROOT
ATOM      1  N   UNL d   1      56.643  -0.555  32.928  0.00  0.00    -0.260 N 
ATOM      2  C   UNL d   1      57.226   0.018  32.936  0.00  0.00     0.174 A 
ATOM      3  C   UNL d   1      56.345  -1.067  32.362  0.00  0.00     0.348 A 
ATOM      4  N   UNL d   1      56.506  -1.214  31.584  0.00  0.00    -0.216 NA
ATOM      5  C   UNL d   1      57.036  -0.912  31.031  0.00  0.00     0.137 A 
ATOM      6  O   UNL d   1      57.752   0.319  32.393  0.00  0.00    -0.316 OA
ATOM      7  C   UNL d   1      56.862  -0.675  32.073  0.00  0.00     0.079 A 
ATOM      8  C   UNL d   1      57.613  -0.342  31.046  0.00  0.00     0.022 A 
ATOM      9  C   UNL d   1      57.907   0.164  31.605  0.00  0.00     0.094 A 
ATOM     10  O   UNL d   1      55.753  -1.532  32.655  0.00  0.00    -0.245 OA
ATOM     11  C   UNL d   1      57.418   0.464  33.600  0.00  0.00     0.055 C 
ATOM     12  C   UNL d   1      57.913  -0.346  30.285  0.00  0.00    -0.001 A 
ATOM     13  C   UNL d   1      58.518   0.681  31.400  0.00  0.00     0.024 A 
ATOM     14  C   UNL d   1      58.517   0.167  30.086  0.00  0.00    -0.000 A 
ATOM     15  C   UNL d   1      58.820   0.682  30.645  0.00  0.00     0.002 A 
ENDROOT
BRANCH   1  16
ATOM     16  C   UNL d   1      56.159  -0.778  33.570  0.00  0.00     0.082 C 
BRANCH  16  17
ATOM     17  C   UNL d   1      55.495  -0.290  33.783  0.00  0.00     0.017 A 
ATOM     18  C   UNL d   1      54.903  -0.108  33.209  0.00  0.00     0.002 A 
ATOM     19  C   UNL d   1      54.239   0.380  33.421  0.00  0.00     0.000 A 
ATOM     20  C   UNL d   1      54.171   0.682  34.207  0.00  0.00     0.000 A 
ATOM     21  C   UNL d   1      54.771   0.498  34.790  0.00  0.00     0.000 A 
ATOM     22  C   UNL d   1      55.427   0.012  34.569  0.00  0.00     0.002 A 
ENDBRANCH  16  17
ENDBRANCH   1  16
TORSDOF 2
ENDMDL
MODEL 4
REMARK VINA RESULT:      -3.9      1.547      3.985
REMARK  2 active torsions:
REMARK  status: ('A' for Active; 'I' for Inactive)
REMARK    1  A    between atoms: C_10  and  N_1 
REMARK    2  A    between atoms: C_13  and  C_10 
ROOT
ATOM      1  N   UNL d   1      58.197  -0.596  29.872  0.00  0.00    -0.260 N 
ATOM      2  C   UNL d   1      57.878  -1.254  30.236  0.00  0.00     0.174 A 
ATOM      3  C   UNL d   1      58.175   0.210  30.015  0.00  0.00     0.348 A 
ATOM      4  N   UNL d   1      57.829   0.682  30.573  0.00  0.00    -0.216 NA
ATOM      5  C   UNL d   1      57.354   0.552  31.233  0.00  0.00     0.137 A 
ATOM      6  O   UNL d   1      57.408  -1.387  30.887  0.00  0.00    -0.316 OA
ATOM      7  C   UNL d   1      57.794  -0.125  30.512  0.00  0.00     0.079 A 
ATOM      8  C   UNL d   1      57.040  -0.106  31.590  0.00  0.00     0.022 A 
ATOM      9  C   UNL d   1      57.062  -0.903  31.448  0.00  0.00     0.094 A 
ATOM     10  O   UNL d   1      58.598   0.628  29.469  0.00  0.00    -0.245 OA
ATOM     11  C   UNL d   1      57.991  -2.023  29.968  0.00  0.00     0.055 C 
ATOM     12  C   UNL d   1      56.623   0.195  32.226  0.00  0.00    -0.001 A 
ATOM     13  C   UNL d   1      56.657  -1.414  31.954  0.00  0.00     0.024 A 
ATOM     14  C   UNL d   1      56.224  -0.314  32.724  0.00  0.00    -0.000 A 
ATOM     15  C   UNL d   1      56.241  -1.121  32.588  0.00  0.00     0.002 A 
ENDROOT
BRANCH   1  16
ATOM     16  C   UNL d   1      58.676  -0.591  29.189  0.00  0.00     0.082 C 
BRANCH  16  17
ATOM     17  C   UNL d   1      59.497  -0.806  29.252  0.00  0.00     0.017 A 
ATOM     18  C   UNL d   1      59.740  -1.600  29.098  0.00  0.00     0.002 A 
ATOM     19  C   UNL d   1      60.560  -1.815  29.161  0.00  0.00     0.000 A 
ATOM     20  C   UNL d   1      61.133  -1.234  29.377  0.00  0.00     0.000 A 
ATOM     21  C   UNL d   1      60.889  -0.428  29.534  0.00  0.00     0.000 A 
ATOM     22  C   UNL d   1      60.071  -0.225  29.468  0.00  0.00     0.002 A 
ENDBRANCH  16  17
ENDBRANCH   1  16
TORSDOF 2
ENDMDL
MODEL 5
REMARK VINA RESULT:      -2.8      2.372      3.152
REMARK  2 active torsions:
REMARK  status: ('A' for Active; 'I' for Inactive)
REMARK    1  A    between atoms: C_10  and  N_1 
REMARK    2  A    between atoms: C_13  and  C_10 
ROOT
ATOM      1  N   UNL d   1      58.757  -0.533  29.588  0.00  0.00    -0.260 N 
ATOM      2  C   UNL d   1      58.562  -1.325  29.638  0.00  0.00     0.174 A 
ATOM      3  C   UNL d   1      59.420  -0.117  29.349  0.00  0.00     0.348 A 
ATOM      4  N   UNL d   1      60.151  -0.318  29.067  0.00  0.00    -0.216 NA
ATOM      5  C   UNL d   1      60.536  -1.026  28.901  0.00  0.00     0.137 A 
ATOM      6  O   UNL d   1      58.939  -2.028  29.475  0.00  0.00    -0.316 OA
ATOM      7  C   UNL d   1      59.546  -0.812  29.281  0.00  0.00     0.079 A 
ATOM      8  C   UNL d   1      60.336  -1.811  28.953  0.00  0.00     0.022 A 
ATOM      9  C   UNL d   1      59.680  -2.223  29.190  0.00  0.00     0.094 A 
ATOM     10  O   UNL d   1      59.317   0.682  29.411  0.00  0.00    -0.245 OA
ATOM     11  C   UNL d   1      57.834  -1.600  29.906  0.00  0.00     0.055 C 
ATOM     12  C   UNL d   1      61.004  -2.202  28.690  0.00  0.00    -0.001 A 
ATOM     13  C   UNL d   1      59.690  -3.048  29.162  0.00  0.00     0.024 A 
ATOM     14  C   UNL d   1      61.010  -3.019  28.664  0.00  0.00    -0.000 A 
ATOM     15  C   UNL d   1      60.351  -3.443  28.901  0.00  0.00     0.002 A 
ENDROOT
BRANCH   1  16
ATOM     16  C   UNL d   1      58.267   0.111  29.791  0.00  0.00     0.082 C 
BRANCH  16  17
ATOM     17  C   UNL d   1      58.070   0.246  30.608  0.00  0.00     0.017 A 
ATOM     18  C   UNL d   1      57.292   0.081  30.888  0.00  0.00     0.002 A 
ATOM     19  C   UNL d   1      57.094   0.216  31.704  0.00  0.00     0.000 A 
ATOM     20  C   UNL d   1      57.678   0.514  32.236  0.00  0.00     0.000 A 
ATOM     21  C   UNL d   1      58.469   0.682  31.954  0.00  0.00     0.000 A 
ATOM     22  C   UNL d   1      58.655   0.545  31.140  0.00  0.00     0.002 A 
ENDBRANCH  16  17
ENDBRANCH   1  16
TORSDOF 2
ENDMDL
MODEL 6
REMARK VINA RESULT:      -2.7      1.146      3.412
REMARK  2 active torsions:
REMARK  status: ('A' for Active; 'I' for Inactive)
REMARK    1  A    between atoms: C_10  and  N_1 
REMARK    2  A    between atoms: C_13  and  C_10 
ROOT
ATOM      1  N   UNL d   1      58.165   0.656  30.793  0.00  0.00    -0.260 N 
ATOM      2  C   UNL d   1      58.501   0.657  31.538  0.00  0.00     0.174 A 
ATOM      3  C   UNL d   1      57.398   0.635  30.506  0.00  0.00     0.348 A 
ATOM      4  N   UNL d   1      56.663   0.607  30.842  0.00  0.00    -0.216 NA
ATOM      5  C   UNL d   1      56.375   0.588  31.613  0.00  0.00     0.137 A 
ATOM      6  O   UNL d   1      58.220   0.638  32.302  0.00  0.00    -0.316 OA
ATOM      7  C   UNL d   1      57.381   0.625  31.216  0.00  0.00     0.079 A 
ATOM      8  C   UNL d   1      56.715   0.589  32.349  0.00  0.00     0.022 A 
ATOM      9  C   UNL d   1      57.473   0.610  32.633  0.00  0.00     0.094 A 
ATOM     10  O   UNL d   1      57.375   0.645  29.699  0.00  0.00    -0.245 OA
ATOM     11  C   UNL d   1      59.312   0.681  31.672  0.00  0.00     0.055 C 
ATOM     12  C   UNL d   1      56.077   0.562  32.861  0.00  0.00    -0.001 A 
ATOM     13  C   UNL d   1      57.599   0.603  33.449  0.00  0.00     0.024 A 
ATOM     14  C   UNL d   1      56.207   0.556  33.667  0.00  0.00    -0.000 A 
ATOM     15  C   UNL d   1      56.969   0.576  33.962  0.00  0.00     0.002 A 
ENDROOT
BRANCH   1  16
ATOM     16  C   UNL d   1      58.573   0.678  30.065  0.00  0.00     0.082 C 
BRANCH  16  17
ATOM     17  C   UNL d   1      58.771  -0.051  29.674  0.00  0.00     0.017 A 
ATOM     18  C   UNL d   1      59.286  -0.605  30.048  0.00  0.00     0.002 A 
ATOM     19  C   UNL d   1      59.485  -1.334  29.657  0.00  0.00     0.000 A 
ATOM     20  C   UNL d   1      59.167  -1.503  28.893  0.00  0.00     0.000 A 
ATOM     21  C   UNL d   1      58.644  -0.942  28.512  0.00  0.00     0.000 A 
ATOM     22  C   UNL d   1      58.453  -0.220  28.910  0.00  0.00     0.002 A 
ENDBRANCH  16  17
ENDBRANCH   1  16
TORSDOF 2
ENDMDL
MODEL 7
REMARK VINA RESULT:      -2.1      2.403      4.213
REMARK  2 active torsions:
REMARK  status: ('A' for Active; 'I' for Inactive)
REMARK    1  A    between atoms: C_10  and  N_1 
REMARK    2  A    between atoms: C_13  and  C_10 
ROOT
ATOM      1  N   UNL d   1      58.510  -1.269  29.260  0.00  0.00    -0.260 N 
ATOM      2  C   UNL d   1      58.603  -0.485  29.471  0.00  0.00     0.174 A 
ATOM      3  C   UNL d   1      58.105  -1.907  29.575  0.00  0.00     0.348 A 
ATOM      4  N   UNL d   1      57.632  -2.021  30.221  0.00  0.00    -0.216 NA
ATOM      5  C   UNL d   1      57.360  -1.545  30.834  0.00  0.00     0.137 A 
ATOM      6  O   UNL d   1      58.336  -0.011  30.076  0.00  0.00    -0.316 OA
ATOM      7  C   UNL d   1      57.998  -1.338  29.985  0.00  0.00     0.079 A 
ATOM      8  C   UNL d   1      57.456  -0.766  31.039  0.00  0.00     0.022 A 
ATOM      9  C   UNL d   1      57.857  -0.135  30.727  0.00  0.00     0.094 A 
ATOM     10  O   UNL d   1      58.202  -2.577  29.134  0.00  0.00    -0.245 OA
ATOM     11  C   UNL d   1      59.055   0.052  29.043  0.00  0.00     0.055 C 
ATOM     12  C   UNL d   1      57.016  -0.686  31.723  0.00  0.00    -0.001 A 
ATOM     13  C   UNL d   1      57.818   0.596  31.109  0.00  0.00     0.024 A 
ATOM     14  C   UNL d   1      56.980   0.039  32.098  0.00  0.00    -0.000 A 
ATOM     15  C   UNL d   1      57.382   0.682  31.790  0.00  0.00     0.002 A 
ENDROOT
BRANCH   1  16
ATOM     16  C   UNL d   1      58.847  -1.646  28.596  0.00  0.00     0.082 C 
BRANCH  16  17
ATOM     17  C   UNL d   1      59.611  -2.015  28.666  0.00  0.00     0.017 A 
ATOM     18  C   UNL d   1      59.672  -2.855  28.711  0.00  0.00     0.002 A 
ATOM     19  C   UNL d   1      60.435  -3.224  28.781  0.00  0.00     0.000 A 
ATOM     20  C   UNL d   1      61.133  -2.749  28.806  0.00  0.00     0.000 A 
ATOM     21  C   UNL d   1      61.072  -1.896  28.761  0.00  0.00     0.000 A 
ATOM     22  C   UNL d   1      60.309  -1.539  28.691  0.00  0.00     0.002 A 
ENDBRANCH  16  17
ENDBRANCH   1  16
TORSDOF 2
ENDMDL
