MODEL 1
REMARK VINA RESULT:       1.2      0.000      0.000
REMARK  2 active torsions:
REMARK  status: ('A' for Active; 'I' for Inactive)
REMARK    1  A    between atoms: C_7  and  C_1 
REMARK    2  A    between atoms: C_9  and  C_1 
ROOT
ATOM      1  C   UNL d   1     -41.701-122.397 -52.415  0.00  0.00     0.240 A 
ATOM      2  S   UNL d   1     -41.598-121.654 -52.756  0.00  0.00    -0.043 SA
ATOM      3  N   UNL d   1     -41.624-122.491 -51.599  0.00  0.00    -0.199 NA
ATOM      4  C   UNL d   1     -41.417-121.011 -52.281  0.00  0.00     0.181 A 
ATOM      5  N   UNL d   1     -41.336-121.095 -51.452  0.00  0.00    -0.236 N 
ATOM      6  C   UNL d   1     -41.442-121.843 -51.125  0.00  0.00     0.352 A 
ATOM      7  N   UNL d   1     -41.283-120.209 -52.467  0.00  0.00    -0.219 NA
ATOM      8  O   UNL d   1     -41.365-121.943 -50.309  0.00  0.00    -0.244 OA
ATOM      9  C   UNL d   1     -41.155-120.355 -51.139  0.00  0.00     0.107 A 
ATOM     10  C   UNL d   1     -41.123-119.810 -51.762  0.00  0.00     0.120 A 
ENDROOT
BRANCH   1  11
ATOM     11  C   UNL d   1     -41.805-123.139 -52.074  0.00  0.00     0.429 C 
ATOM     12  F   UNL d   1     -41.903-123.817 -51.763  0.00  0.00    -0.167 F 
ATOM     13  F   UNL d   1     -41.252-123.785 -52.003  0.00  0.00    -0.167 F 
ATOM     14  F   UNL d   1     -42.507-123.464 -51.697  0.00  0.00    -0.167 F 
ENDBRANCH   1  11
BRANCH   1  15
ATOM     15  C   UNL d   1     -41.778-122.295 -53.230  0.00  0.00     0.016 A 
ATOM     16  C   UNL d   1     -41.125-122.397 -53.715  0.00  0.00    -0.001 A 
ATOM     17  C   UNL d   1     -41.201-122.295 -54.530  0.00  0.00    -0.000 A 
ATOM     18  C   UNL d   1     -41.931-122.090 -54.860  0.00  0.00    -0.000 A 
ATOM     19  C   UNL d   1     -42.583-121.989 -54.363  0.00  0.00    -0.000 A 
ATOM     20  C   UNL d   1     -42.007-121.987 -55.675  0.00  0.00    -0.000 C 
ATOM     21  C   UNL d   1     -42.507-122.090 -53.557  0.00  0.00    -0.001 A 
ENDBRANCH   1  15
TORSDOF 2
ENDMDL
MODEL 2
REMARK VINA RESULT:       1.5      3.005      4.031
REMARK  2 active torsions:
REMARK  status: ('A' for Active; 'I' for Inactive)
REMARK    1  A    between atoms: C_7  and  C_1 
REMARK    2  A    between atoms: C_9  and  C_1 
ROOT
ATOM      1  C   UNL d   1     -42.133-123.173 -49.102  0.00  0.00     0.240 A 
ATOM      2  S   UNL d   1     -42.661-123.203 -49.734  0.00  0.00    -0.043 SA
ATOM      3  N   UNL d   1     -42.388-123.365 -48.341  0.00  0.00    -0.199 NA
ATOM      4  C   UNL d   1     -43.439-123.425 -49.603  0.00  0.00     0.181 A 
ATOM      5  N   UNL d   1     -43.709-123.622 -48.835  0.00  0.00    -0.236 N 
ATOM      6  C   UNL d   1     -43.171-123.587 -48.213  0.00  0.00     0.352 A 
ATOM      7  N   UNL d   1     -44.085-123.503 -50.125  0.00  0.00    -0.219 NA
ATOM      8  O   UNL d   1     -43.421-123.779 -47.450  0.00  0.00    -0.244 OA
ATOM      9  C   UNL d   1     -44.507-123.817 -48.890  0.00  0.00     0.107 A 
ATOM     10  C   UNL d   1     -44.739-123.745 -49.681  0.00  0.00     0.120 A 
ENDROOT
BRANCH   1  11
ATOM     11  C   UNL d   1     -41.605-123.143 -48.471  0.00  0.00     0.429 C 
ATOM     12  F   UNL d   1     -41.123-123.119 -47.894  0.00  0.00    -0.167 F 
ATOM     13  F   UNL d   1     -41.336-122.469 -48.021  0.00  0.00    -0.167 F 
ATOM     14  F   UNL d   1     -41.182-123.789 -48.094  0.00  0.00    -0.167 F 
ENDBRANCH   1  11
BRANCH   1  15
ATOM     15  C   UNL d   1     -41.886-122.983 -49.866  0.00  0.00     0.016 A 
ATOM     16  C   UNL d   1     -41.884-122.200 -50.109  0.00  0.00    -0.001 A 
ATOM     17  C   UNL d   1     -41.637-122.009 -50.872  0.00  0.00    -0.000 A 
ATOM     18  C   UNL d   1     -41.390-122.602 -51.393  0.00  0.00    -0.000 A 
ATOM     19  C   UNL d   1     -41.395-123.388 -51.139  0.00  0.00    -0.000 A 
ATOM     20  C   UNL d   1     -41.143-122.412 -52.156  0.00  0.00    -0.000 C 
ATOM     21  C   UNL d   1     -41.640-123.577 -50.384  0.00  0.00    -0.001 A 
ENDBRANCH   1  15
TORSDOF 2
ENDMDL
MODEL 3
REMARK VINA RESULT:       1.6      2.528      3.447
REMARK  2 active torsions:
REMARK  status: ('A' for Active; 'I' for Inactive)
REMARK    1  A    between atoms: C_7  and  C_1 
REMARK    2  A    between atoms: C_9  and  C_1 
ROOT
ATOM      1  C   UNL d   1     -43.030-122.713 -50.023  0.00  0.00     0.240 A 
ATOM      2  S   UNL d   1     -42.241-122.948 -49.998  0.00  0.00    -0.043 SA
ATOM      3  N   UNL d   1     -43.495-122.751 -49.343  0.00  0.00    -0.199 NA
ATOM      4  C   UNL d   1     -41.921-123.219 -49.293  0.00  0.00     0.181 A 
ATOM      5  N   UNL d   1     -42.384-123.262 -48.597  0.00  0.00    -0.236 N 
ATOM      6  C   UNL d   1     -43.171-123.024 -48.637  0.00  0.00     0.352 A 
ATOM      7  N   UNL d   1     -41.155-123.489 -49.103  0.00  0.00    -0.219 NA
ATOM      8  O   UNL d   1     -43.640-123.061 -47.959  0.00  0.00    -0.244 OA
ATOM      9  C   UNL d   1     -41.905-123.554 -47.993  0.00  0.00     0.107 A 
ATOM     10  C   UNL d   1     -41.151-123.694 -48.303  0.00  0.00     0.120 A 
ENDROOT
BRANCH   1  11
ATOM     11  C   UNL d   1     -43.819-122.478 -50.050  0.00  0.00     0.429 C 
ATOM     12  F   UNL d   1     -44.541-122.266 -50.073  0.00  0.00    -0.167 F 
ATOM     13  F   UNL d   1     -44.152-121.724 -50.271  0.00  0.00    -0.167 F 
ATOM     14  F   UNL d   1     -44.522-122.935 -49.861  0.00  0.00    -0.167 F 
ENDBRANCH   1  11
BRANCH   1  15
ATOM     15  C   UNL d   1     -42.559-122.678 -50.700  0.00  0.00     0.016 A 
ATOM     16  C   UNL d   1     -42.491-123.337 -51.182  0.00  0.00    -0.001 A 
ATOM     17  C   UNL d   1     -42.020-123.301 -51.859  0.00  0.00    -0.000 A 
ATOM     18  C   UNL d   1     -41.616-122.606 -52.052  0.00  0.00    -0.000 A 
ATOM     19  C   UNL d   1     -41.690-121.948 -51.559  0.00  0.00    -0.000 A 
ATOM     20  C   UNL d   1     -41.144-122.571 -52.728  0.00  0.00    -0.000 C 
ATOM     21  C   UNL d   1     -42.156-121.983 -50.890  0.00  0.00    -0.001 A 
ENDBRANCH   1  15
TORSDOF 2
ENDMDL
MODEL 4
REMARK VINA RESULT:       2.6      2.237      3.518
REMARK  2 active torsions:
REMARK  status: ('A' for Active; 'I' for Inactive)
REMARK    1  A    between atoms: C_7  and  C_1 
REMARK    2  A    between atoms: C_9  and  C_1 
ROOT
ATOM      1  C   UNL d   1     -42.066-121.934 -53.564  0.00  0.00     0.240 A 
ATOM      2  S   UNL d   1     -41.672-122.657 -53.578  0.00  0.00    -0.043 SA
ATOM      3  N   UNL d   1     -42.297-121.575 -54.271  0.00  0.00    -0.199 NA
ATOM      4  C   UNL d   1     -41.510-123.018 -54.297  0.00  0.00     0.181 A 
ATOM      5  N   UNL d   1     -41.740-122.663 -55.019  0.00  0.00    -0.236 N 
ATOM      6  C   UNL d   1     -42.133-121.940 -54.991  0.00  0.00     0.352 A 
ATOM      7  N   UNL d   1     -41.127-123.736 -54.480  0.00  0.00    -0.219 NA
ATOM      8  O   UNL d   1     -42.366-121.577 -55.694  0.00  0.00    -0.244 OA
ATOM      9  C   UNL d   1     -41.499-123.158 -55.632  0.00  0.00     0.107 A 
ATOM     10  C   UNL d   1     -41.123-123.817 -55.301  0.00  0.00     0.120 A 
ENDROOT
BRANCH   1  11
ATOM     11  C   UNL d   1     -42.460-121.211 -53.550  0.00  0.00     0.429 C 
ATOM     12  F   UNL d   1     -42.823-120.552 -53.536  0.00  0.00    -0.167 F 
ATOM     13  F   UNL d   1     -42.150-120.423 -53.650  0.00  0.00    -0.167 F 
ATOM     14  F   UNL d   1     -43.298-121.059 -53.428  0.00  0.00    -0.167 F 
ENDBRANCH   1  11
BRANCH   1  15
ATOM     15  C   UNL d   1     -41.832-122.299 -52.862  0.00  0.00     0.016 A 
ATOM     16  C   UNL d   1     -41.361-121.891 -52.330  0.00  0.00    -0.001 A 
ATOM     17  C   UNL d   1     -41.127-122.256 -51.628  0.00  0.00    -0.000 A 
ATOM     18  C   UNL d   1     -41.365-123.029 -51.459  0.00  0.00    -0.000 A 
ATOM     19  C   UNL d   1     -41.839-123.432 -52.001  0.00  0.00    -0.000 A 
ATOM     20  C   UNL d   1     -41.131-123.394 -50.757  0.00  0.00    -0.000 C 
ATOM     21  C   UNL d   1     -42.071-123.071 -52.696  0.00  0.00    -0.001 A 
ENDBRANCH   1  15
TORSDOF 2
ENDMDL
MODEL 5
REMARK VINA RESULT:       3.1      1.534      2.158
REMARK  2 active torsions:
REMARK  status: ('A' for Active; 'I' for Inactive)
REMARK    1  A    between atoms: C_7  and  C_1 
REMARK    2  A    between atoms: C_9  and  C_1 
ROOT
ATOM      1  C   UNL d   1     -41.541-121.566 -52.211  0.00  0.00     0.240 A 
ATOM      2  S   UNL d   1     -41.674-122.377 -52.271  0.00  0.00    -0.043 SA
ATOM      3  N   UNL d   1     -41.405-121.222 -51.474  0.00  0.00    -0.199 NA
ATOM      4  C   UNL d   1     -41.671-122.839 -51.594  0.00  0.00     0.181 A 
ATOM      5  N   UNL d   1     -41.534-122.501 -50.841  0.00  0.00    -0.236 N 
ATOM      6  C   UNL d   1     -41.403-121.690 -50.796  0.00  0.00     0.352 A 
ATOM      7  N   UNL d   1     -41.786-123.659 -51.486  0.00  0.00    -0.219 NA
ATOM      8  O   UNL d   1     -41.267-121.342 -50.060  0.00  0.00    -0.244 OA
ATOM      9  C   UNL d   1     -41.566-123.107 -50.282  0.00  0.00     0.107 A 
ATOM     10  C   UNL d   1     -41.721-123.817 -50.678  0.00  0.00     0.120 A 
ENDROOT
BRANCH   1  11
ATOM     11  C   UNL d   1     -41.408-120.755 -52.153  0.00  0.00     0.429 C 
ATOM     12  F   UNL d   1     -41.287-120.015 -52.096  0.00  0.00    -0.167 F 
ATOM     13  F   UNL d   1     -41.123-120.209 -52.743  0.00  0.00    -0.167 F 
ATOM     14  F   UNL d   1     -41.523-120.240 -51.474  0.00  0.00    -0.167 F 
ENDBRANCH   1  11
BRANCH   1  15
ATOM     15  C   UNL d   1     -41.677-121.917 -52.946  0.00  0.00     0.016 A 
ATOM     16  C   UNL d   1     -41.126-122.438 -53.255  0.00  0.00    -0.001 A 
ATOM     17  C   UNL d   1     -41.262-122.789 -53.989  0.00  0.00    -0.000 A 
ATOM     18  C   UNL d   1     -41.950-122.618 -54.414  0.00  0.00    -0.000 A 
ATOM     19  C   UNL d   1     -42.500-122.091 -54.094  0.00  0.00    -0.000 A 
ATOM     20  C   UNL d   1     -42.087-122.968 -55.148  0.00  0.00    -0.000 C 
ATOM     21  C   UNL d   1     -42.365-121.744 -53.368  0.00  0.00    -0.001 A 
ENDBRANCH   1  15
TORSDOF 2
ENDMDL
MODEL 6
REMARK VINA RESULT:       4.2      2.263      2.993
REMARK  2 active torsions:
REMARK  status: ('A' for Active; 'I' for Inactive)
REMARK    1  A    between atoms: C_7  and  C_1 
REMARK    2  A    between atoms: C_9  and  C_1 
ROOT
ATOM      1  C   UNL d   1     -42.110-122.743 -49.996  0.00  0.00     0.240 A 
ATOM      2  S   UNL d   1     -42.621-122.512 -50.600  0.00  0.00    -0.043 SA
ATOM      3  N   UNL d   1     -42.362-122.723 -49.211  0.00  0.00    -0.199 NA
ATOM      4  C   UNL d   1     -43.380-122.263 -50.416  0.00  0.00     0.181 A 
ATOM      5  N   UNL d   1     -43.646-122.239 -49.623  0.00  0.00    -0.236 N 
ATOM      6  C   UNL d   1     -43.125-122.472 -49.029  0.00  0.00     0.352 A 
ATOM      7  N   UNL d   1     -44.007-122.001 -50.900  0.00  0.00    -0.219 NA
ATOM      8  O   UNL d   1     -43.373-122.454 -48.242  0.00  0.00    -0.244 OA
ATOM      9  C   UNL d   1     -44.424-121.967 -49.625  0.00  0.00     0.107 A 
ATOM     10  C   UNL d   1     -44.646-121.821 -50.409  0.00  0.00     0.120 A 
ENDROOT
BRANCH   1  11
ATOM     11  C   UNL d   1     -41.598-122.974 -49.393  0.00  0.00     0.429 C 
ATOM     12  F   UNL d   1     -41.131-123.182 -48.842  0.00  0.00    -0.167 F 
ATOM     13  F   UNL d   1     -41.397-123.758 -49.124  0.00  0.00    -0.167 F 
ATOM     14  F   UNL d   1     -41.127-122.480 -48.870  0.00  0.00    -0.167 F 
ENDBRANCH   1  11
BRANCH   1  15
ATOM     15  C   UNL d   1     -41.865-122.760 -50.784  0.00  0.00     0.016 A 
ATOM     16  C   UNL d   1     -41.893-123.463 -51.203  0.00  0.00    -0.001 A 
ATOM     17  C   UNL d   1     -41.648-123.480 -51.990  0.00  0.00    -0.000 A 
ATOM     18  C   UNL d   1     -41.374-122.792 -52.359  0.00  0.00    -0.000 A 
ATOM     19  C   UNL d   1     -41.350-122.088 -51.928  0.00  0.00    -0.000 A 
ATOM     20  C   UNL d   1     -41.129-122.809 -53.146  0.00  0.00    -0.000 C 
ATOM     21  C   UNL d   1     -41.592-122.072 -51.149  0.00  0.00    -0.001 A 
ENDBRANCH   1  15
TORSDOF 2
ENDMDL
