MODEL 1
REMARK VINA RESULT:      75.4      0.000      0.000
REMARK  9 active torsions:
REMARK  status: ('A' for Active; 'I' for Inactive)
REMARK    1  A    between atoms: C_9  and  N_1 
REMARK    2  A    between atoms: C_6  and  C_2 
REMARK    3  A    between atoms: S_11  and  C_3 
REMARK    4  A    between atoms: C_7  and  C_6 
REMARK    5  A    between atoms: C_20  and  C_9 
REMARK       I    between atoms: N_10  and  C_12 
REMARK    6  A    between atoms: C_13  and  N_10 
REMARK    7  A    between atoms: C_19  and  S_11 
REMARK    8  A    between atoms: C_12  and  C_19 
REMARK    9  A    between atoms: C_23  and  C_20 
ROOT
ATOM      1  N   UNL d   1     -50.783  26.531  34.519  0.00  0.00    -0.268 N 
ATOM      2  C   UNL d   1     -50.995  25.992  33.930  0.00  0.00     0.172 A 
ATOM      3  C   UNL d   1     -50.119  26.946  34.263  0.00  0.00     0.201 A 
ATOM      4  N   UNL d   1     -50.464  26.074  33.309  0.00  0.00    -0.128 NA
ATOM      5  N   UNL d   1     -49.920  26.662  33.508  0.00  0.00    -0.121 NA
ENDROOT
BRANCH   3   6
ATOM      6  S   UNL d   1     -49.724  27.535  34.674  0.00  0.00    -0.043 SA
BRANCH   6   7
ATOM      7  C   UNL d   1     -49.149  27.990  34.298  0.00  0.00     0.101 C 
BRANCH   7   8
ATOM      8  C   UNL d   1     -48.574  28.382  34.744  0.00  0.00     0.286 C 
ATOM      9  N   UNL d   1     -48.626  29.201  34.839  0.00  0.00    -0.205 NA
ATOM     10  O   UNL d   1     -47.958  27.965  35.091  0.00  0.00    -0.265 OA
BRANCH   9  11
ATOM     11  C   UNL d   1     -48.065  29.589  35.277  0.00  0.00     0.112 A 
ATOM     12  C   UNL d   1     -47.844  30.354  35.062  0.00  0.00     0.158 A 
ATOM     13  F   UNL d   1     -48.190  30.725  34.407  0.00  0.00    -0.203 F 
ATOM     14  C   UNL d   1     -47.275  30.762  35.496  0.00  0.00     0.031 A 
ATOM     15  C   UNL d   1     -46.927  30.391  36.154  0.00  0.00     0.002 A 
ATOM     16  C   UNL d   1     -47.150  29.625  36.367  0.00  0.00     0.002 A 
ATOM     17  C   UNL d   1     -47.723  29.225  35.922  0.00  0.00     0.021 A 
ENDBRANCH   9  11
ENDBRANCH   7   8
ENDBRANCH   6   7
ENDBRANCH   3   6
BRANCH   1  18
ATOM     18  C   UNL d   1     -51.171  26.634  35.241  0.00  0.00     0.084 C 
BRANCH  18  19
ATOM     19  C   UNL d   1     -50.728  26.691  35.945  0.00  0.00     0.019 C 
BRANCH  19  20
ATOM     20  C   UNL d   1     -51.106  26.627  36.680  0.00  0.00     0.002 A 
ATOM     21  C   UNL d   1     -51.877  26.353  36.714  0.00  0.00     0.000 A 
ATOM     22  C   UNL d   1     -52.248  26.291  37.447  0.00  0.00     0.000 A 
ATOM     23  C   UNL d   1     -51.842  26.506  38.138  0.00  0.00     0.000 A 
ATOM     24  C   UNL d   1     -51.063  26.782  38.095  0.00  0.00     0.000 A 
ATOM     25  C   UNL d   1     -50.701  26.840  37.356  0.00  0.00     0.000 A 
ENDBRANCH  19  20
ENDBRANCH  18  19
ENDBRANCH   1  18
BRANCH   2  26
ATOM     26  C   UNL d   1     -51.631  25.464  33.958  0.00  0.00     0.057 C 
BRANCH  26  27
ATOM     27  C   UNL d   1     -51.534  24.687  33.706  0.00  0.00     0.067 A 
ATOM     28  N   UNL d   1     -52.136  24.143  33.553  0.00  0.00    -0.303 N 
ATOM     29  C   UNL d   1     -51.788  23.434  33.314  0.00  0.00     0.080 A 
ATOM     30  C   UNL d   1     -52.944  24.288  33.628  0.00  0.00     0.100 C 
ATOM     31  C   UNL d   1     -50.971  23.535  33.317  0.00  0.00     0.021 A 
ATOM     32  C   UNL d   1     -50.811  24.305  33.559  0.00  0.00     0.019 A 
ENDBRANCH  26  27
ENDBRANCH   2  26
TORSDOF 9
ENDMDL
