MODEL 1
REMARK VINA RESULT:      20.4      0.000      0.000
REMARK  6 active torsions:
REMARK  status: ('A' for Active; 'I' for Inactive)
REMARK    1  A    between atoms: O_8  and  C_1 
REMARK    2  A    between atoms: C_2  and  C_3 
REMARK    3  A    between atoms: C_3  and  O_8 
REMARK    4  A    between atoms: C_4  and  S_17 
REMARK    5  A    between atoms: C_23  and  C_14 
REMARK    6  A    between atoms: S_17  and  C_23 
ROOT
ATOM      1  C   UNL d   1      46.326 -18.557  43.791  0.00  0.00     0.167 A 
ATOM      2  C   UNL d   1      46.052 -18.629  44.570  0.00  0.00     0.222 A 
ATOM      3  C   UNL d   1      45.764 -17.950  44.951  0.00  0.00     0.069 A 
ATOM      4  C   UNL d   1      46.314 -17.829  43.404  0.00  0.00     0.151 A 
ATOM      5  C   UNL d   1      45.751 -17.222  44.563  0.00  0.00     0.110 A 
ATOM      6  O   UNL d   1      46.026 -17.166  43.791  0.00  0.00    -0.302 OA
ATOM      7  O   UNL d   1      46.065 -19.350  44.954  0.00  0.00    -0.284 OA
ENDROOT
BRANCH   5   8
ATOM      8  C   UNL d   1      45.464 -16.554  44.949  0.00  0.00     0.063 C 
BRANCH   8   9
ATOM      9  S   UNL d   1      45.926 -15.931  44.664  0.00  0.00    -0.046 SA
BRANCH   9  10
ATOM     10  C   UNL d   1      45.663 -15.158  44.735  0.00  0.00     0.194 A 
ATOM     11  N   UNL d   1      44.857 -15.008  44.807  0.00  0.00    -0.221 NA
ATOM     12  C   UNL d   1      44.594 -14.241  44.878  0.00  0.00     0.085 A 
ATOM     13  C   UNL d   1      43.788 -14.091  44.949  0.00  0.00     0.021 C 
ATOM     14  C   UNL d   1      45.131 -13.613  44.878  0.00  0.00     0.038 A 
ATOM     15  C   UNL d   1      45.937 -13.779  44.805  0.00  0.00     0.085 A 
ATOM     16  N   UNL d   1      46.193 -14.549  44.734  0.00  0.00    -0.221 NA
ATOM     17  C   UNL d   1      46.473 -13.150  44.805  0.00  0.00     0.021 C 
ENDBRANCH   9  10
ENDBRANCH   8   9
ENDBRANCH   5   8
BRANCH   1  18
ATOM     18  O   UNL d   1      46.645 -19.090  43.242  0.00  0.00    -0.266 OA
BRANCH  18  19
ATOM     19  C   UNL d   1      46.148 -19.527  42.752  0.00  0.00     0.323 C 
ATOM     20  O   UNL d   1      45.496 -19.894  43.064  0.00  0.00    -0.257 OA
BRANCH  19  21
ATOM     21  C   UNL d   1      46.307 -19.596  41.939  0.00  0.00     0.164 A 
ATOM     22  O   UNL d   1      46.218 -18.994  41.400  0.00  0.00    -0.295 OA
ATOM     23  C   UNL d   1      46.435 -19.303  40.669  0.00  0.00     0.134 A 
ATOM     24 BR   UNL d   1      46.429 -18.884  39.965  0.00  0.00    -0.022 Br
ATOM     25  C   UNL d   1      46.647 -20.067  40.767  0.00  0.00     0.034 A 
ATOM     26  C   UNL d   1      46.567 -20.248  41.556  0.00  0.00     0.033 A 
ENDBRANCH  19  21
ENDBRANCH  18  19
ENDBRANCH   1  18
TORSDOF 6
ENDMDL
MODEL 2
REMARK VINA RESULT:      22.8      2.677      5.439
REMARK  6 active torsions:
REMARK  status: ('A' for Active; 'I' for Inactive)
REMARK    1  A    between atoms: O_8  and  C_1 
REMARK    2  A    between atoms: C_2  and  C_3 
REMARK    3  A    between atoms: C_3  and  O_8 
REMARK    4  A    between atoms: C_4  and  S_17 
REMARK    5  A    between atoms: C_23  and  C_14 
REMARK    6  A    between atoms: S_17  and  C_23 
ROOT
ATOM      1  C   UNL d   1      45.221 -14.792  43.994  0.00  0.00     0.167 A 
ATOM      2  C   UNL d   1      45.888 -14.883  44.478  0.00  0.00     0.222 A 
ATOM      3  C   UNL d   1      46.285 -15.612  44.469  0.00  0.00     0.069 A 
ATOM      4  C   UNL d   1      44.959 -15.410  43.515  0.00  0.00     0.151 A 
ATOM      5  C   UNL d   1      46.022 -16.230  43.990  0.00  0.00     0.110 A 
ATOM      6  O   UNL d   1      45.360 -16.125  43.515  0.00  0.00    -0.302 OA
ATOM      7  O   UNL d   1      46.148 -14.271  44.952  0.00  0.00    -0.284 OA
ENDROOT
BRANCH   5   8
ATOM      8  C   UNL d   1      46.423 -16.949  43.988  0.00  0.00     0.063 C 
BRANCH   8   9
ATOM      9  S   UNL d   1      45.873 -17.495  43.699  0.00  0.00    -0.046 SA
BRANCH   9  10
ATOM     10  C   UNL d   1      46.124 -18.226  43.428  0.00  0.00     0.194 A 
ATOM     11  N   UNL d   1      46.241 -18.840  43.963  0.00  0.00    -0.221 NA
ATOM     12  C   UNL d   1      46.491 -19.567  43.695  0.00  0.00     0.085 A 
ATOM     13  C   UNL d   1      46.608 -20.181  44.229  0.00  0.00     0.021 C 
ATOM     14  C   UNL d   1      46.627 -19.692  42.890  0.00  0.00     0.038 A 
ATOM     15  C   UNL d   1      46.505 -19.066  42.364  0.00  0.00     0.085 A 
ATOM     16  N   UNL d   1      46.255 -18.341  42.640  0.00  0.00    -0.221 NA
ATOM     17  C   UNL d   1      46.641 -19.191  41.559  0.00  0.00     0.021 C 
ENDBRANCH   9  10
ENDBRANCH   8   9
ENDBRANCH   5   8
BRANCH   1  18
ATOM     18  O   UNL d   1      44.693 -14.168  43.853  0.00  0.00    -0.266 OA
BRANCH  18  19
ATOM     19  C   UNL d   1      44.963 -13.390  43.848  0.00  0.00     0.323 C 
ATOM     20  O   UNL d   1      45.284 -13.071  44.520  0.00  0.00    -0.257 OA
BRANCH  19  21
ATOM     21  C   UNL d   1      44.911 -12.927  43.160  0.00  0.00     0.164 A 
ATOM     22  O   UNL d   1      45.468 -12.919  42.567  0.00  0.00    -0.295 OA
ATOM     23  C   UNL d   1      45.195 -12.389  42.001  0.00  0.00     0.134 A 
ATOM     24 BR   UNL d   1      45.586 -12.208  41.303  0.00  0.00    -0.022 Br
ATOM     25  C   UNL d   1      44.497 -12.088  42.246  0.00  0.00     0.034 A 
ATOM     26  C   UNL d   1      44.321 -12.423  42.966  0.00  0.00     0.033 A 
ENDBRANCH  19  21
ENDBRANCH  18  19
ENDBRANCH   1  18
TORSDOF 6
ENDMDL
