MODEL 1
REMARK VINA RESULT:      -3.2      0.000      0.000
REMARK  6 active torsions:
REMARK  status: ('A' for Active; 'I' for Inactive)
REMARK    1  A    between atoms: C_7  and  S_1 
REMARK    2  A    between atoms: N_11  and  S_1 
REMARK    3  A    between atoms: C_5  and  C_2 
REMARK    4  A    between atoms: C_6  and  C_15 
REMARK    5  A    between atoms: C_18  and  N_11 
REMARK    6  A    between atoms: C_15  and  C_18 
ROOT
ATOM      1  C   UNL d   1     -41.687-121.710 -51.390  0.00  0.00     0.041 C 
ENDROOT
BRANCH   1   2
ATOM      2  C   UNL d   1     -41.688-122.249 -50.759  0.00  0.00     0.090 A 
ATOM      3  N   UNL d   1     -42.241-122.262 -50.141  0.00  0.00    -0.238 NA
ATOM      4  C   UNL d   1     -42.035-122.888 -49.636  0.00  0.00     0.112 A 
ATOM      5  S   UNL d   1     -41.359-123.259 -49.939  0.00  0.00    -0.066 SA
ATOM      6  C   UNL d   1     -41.145-122.860 -50.639  0.00  0.00     0.056 A 
BRANCH   4   7
ATOM      7  C   UNL d   1     -42.435-123.113 -48.937  0.00  0.00     0.043 A 
ATOM      8  C   UNL d   1     -43.248-123.249 -48.953  0.00  0.00     0.101 A 
ATOM      9  N   UNL d   1     -43.638-123.468 -48.272  0.00  0.00    -0.242 NA
ATOM     10  C   UNL d   1     -43.219-123.552 -47.570  0.00  0.00     0.099 A 
ATOM     11  C   UNL d   1     -42.389-123.412 -47.557  0.00  0.00     0.021 A 
ATOM     12  C   UNL d   1     -42.000-123.192 -48.242  0.00  0.00     0.005 A 
ENDBRANCH   4   7
ENDBRANCH   1   2
BRANCH   1  13
ATOM     13  C   UNL d   1     -41.546-121.966 -52.160  0.00  0.00     0.114 C 
BRANCH  13  14
ATOM     14  N   UNL d   1     -41.520-121.406 -52.788  0.00  0.00    -0.157 NA
BRANCH  14  15
ATOM     15  S   UNL d   1     -41.782-121.629 -53.541  0.00  0.00     0.285 S 
ATOM     16  O   UNL d   1     -41.158-122.182 -53.587  0.00  0.00    -0.198 OA
ATOM     17  O   UNL d   1     -42.404-121.079 -53.497  0.00  0.00    -0.198 OA
BRANCH  15  18
ATOM     18  C   UNL d   1     -42.036-121.859 -54.293  0.00  0.00     0.105 A 
ATOM     19  C   UNL d   1     -42.054-122.659 -54.482  0.00  0.00     0.015 A 
ATOM     20  C   UNL d   1     -42.311-122.893 -55.240  0.00  0.00     0.030 A 
ATOM     21  C   UNL d   1     -42.542-122.331 -55.788  0.00  0.00     0.140 A 
ATOM     22  C   UNL d   1     -42.521-121.535 -55.591  0.00  0.00     0.030 A 
ATOM     23  F   UNL d   1     -42.796-122.560 -56.540  0.00  0.00    -0.204 F 
ATOM     24  C   UNL d   1     -42.271-121.286 -54.849  0.00  0.00     0.015 A 
ENDBRANCH  15  18
ENDBRANCH  14  15
ENDBRANCH  13  14
ENDBRANCH   1  13
TORSDOF 6
ENDMDL
MODEL 2
REMARK VINA RESULT:      -1.9      2.582      5.869
REMARK  6 active torsions:
REMARK  status: ('A' for Active; 'I' for Inactive)
REMARK    1  A    between atoms: C_7  and  S_1 
REMARK    2  A    between atoms: N_11  and  S_1 
REMARK    3  A    between atoms: C_5  and  C_2 
REMARK    4  A    between atoms: C_6  and  C_15 
REMARK    5  A    between atoms: C_18  and  N_11 
REMARK    6  A    between atoms: C_15  and  C_18 
ROOT
ATOM      1  C   UNL d   1     -42.277-123.462 -52.035  0.00  0.00     0.041 C 
ENDROOT
BRANCH   1   2
ATOM      2  C   UNL d   1     -42.001-123.341 -52.808  0.00  0.00     0.090 A 
ATOM      3  N   UNL d   1     -42.230-122.720 -53.308  0.00  0.00    -0.238 NA
ATOM      4  C   UNL d   1     -41.820-122.813 -54.024  0.00  0.00     0.112 A 
ATOM      5  S   UNL d   1     -41.341-123.486 -53.967  0.00  0.00    -0.066 SA
ATOM      6  C   UNL d   1     -41.454-123.814 -53.210  0.00  0.00     0.056 A 
BRANCH   4   7
ATOM      7  C   UNL d   1     -41.876-122.316 -54.694  0.00  0.00     0.043 A 
ATOM      8  C   UNL d   1     -42.491-122.416 -55.232  0.00  0.00     0.101 A 
ATOM      9  N   UNL d   1     -42.545-121.932 -55.885  0.00  0.00    -0.242 NA
ATOM     10  C   UNL d   1     -41.984-121.343 -56.004  0.00  0.00     0.099 A 
ATOM     11  C   UNL d   1     -41.357-121.242 -55.453  0.00  0.00     0.021 A 
ATOM     12  C   UNL d   1     -41.305-121.730 -54.798  0.00  0.00     0.005 A 
ENDBRANCH   4   7
ENDBRANCH   1   2
BRANCH   1  13
ATOM     13  C   UNL d   1     -41.826-123.228 -51.387  0.00  0.00     0.114 C 
BRANCH  13  14
ATOM     14  N   UNL d   1     -42.144-122.677 -50.835  0.00  0.00    -0.157 NA
BRANCH  14  15
ATOM     15  S   UNL d   1     -42.087-122.838 -50.025  0.00  0.00     0.285 S 
ATOM     16  O   UNL d   1     -42.900-123.025 -50.010  0.00  0.00    -0.198 OA
ATOM     17  O   UNL d   1     -41.276-122.652 -50.036  0.00  0.00    -0.198 OA
BRANCH  15  18
ATOM     18  C   UNL d   1     -42.039-123.001 -49.216  0.00  0.00     0.105 A 
ATOM     19  C   UNL d   1     -42.563-122.631 -48.702  0.00  0.00     0.015 A 
ATOM     20  C   UNL d   1     -42.517-122.793 -47.885  0.00  0.00     0.030 A 
ATOM     21  C   UNL d   1     -41.955-123.315 -47.601  0.00  0.00     0.140 A 
ATOM     22  C   UNL d   1     -41.436-123.680 -48.120  0.00  0.00     0.030 A 
ATOM     23  F   UNL d   1     -41.907-123.478 -46.792  0.00  0.00    -0.204 F 
ATOM     24  C   UNL d   1     -41.467-123.532 -48.928  0.00  0.00     0.015 A 
ENDBRANCH  15  18
ENDBRANCH  14  15
ENDBRANCH  13  14
ENDBRANCH   1  13
TORSDOF 6
ENDMDL
