MODEL 1
REMARK VINA RESULT:      -2.8      0.000      0.000
REMARK  2 active torsions:
REMARK  status: ('A' for Active; 'I' for Inactive)
REMARK    1  A    between atoms: S_2  and  N_1 
REMARK    2  A    between atoms: C_8  and  S_2 
ROOT
ATOM      1  S   UNL d   1      30.814  16.807 -24.061  0.00  0.00     0.273 S 
ATOM      2  O   UNL d   1      30.501  17.373 -24.565  0.00  0.00    -0.200 OA
ATOM      3  O   UNL d   1      31.137  16.242 -23.554  0.00  0.00    -0.200 OA
ENDROOT
BRANCH   1   4
ATOM      4  N   UNL d   1      31.560  17.136 -24.185  0.00  0.00    -0.207 N 
ATOM      5  C   UNL d   1      31.789  17.695 -23.617  0.00  0.00     0.148 A 
ATOM      6  N   UNL d   1      32.500  18.125 -23.580  0.00  0.00    -0.198 NA
ATOM      7  C   UNL d   1      33.135  18.105 -24.082  0.00  0.00     0.066 A 
ATOM      8  C   UNL d   1      32.221  17.457 -24.256  0.00  0.00     0.169 A 
ATOM      9  C   UNL d   1      33.241  17.653 -24.758  0.00  0.00     0.066 A 
ATOM     10  N   UNL d   1      32.724  17.104 -25.097  0.00  0.00    -0.198 NA
ATOM     11  C   UNL d   1      31.979  16.877 -24.840  0.00  0.00     0.148 A 
ENDBRANCH   1   4
BRANCH   1  12
ATOM     12  C   UNL d   1      30.065  16.485 -23.942  0.00  0.00     0.104 A 
ATOM     13  C   UNL d   1      29.969  15.834 -23.445  0.00  0.00     0.014 A 
ATOM     14  C   UNL d   1      29.220  15.511 -23.327  0.00  0.00     0.012 A 
ATOM     15  C   UNL d   1      28.566  15.841 -23.705  0.00  0.00     0.058 A 
ATOM     16  C   UNL d   1      28.660  16.492 -24.202  0.00  0.00     0.012 A 
ATOM     17 CL   UNL d   1      27.819  15.512 -23.580  0.00  0.00    -0.082 Cl
ATOM     18  C   UNL d   1      29.409  16.814 -24.321  0.00  0.00     0.014 A 
ENDBRANCH   1  12
TORSDOF 2
ENDMDL
MODEL 2
REMARK VINA RESULT:      -2.7      4.928      6.069
REMARK  2 active torsions:
REMARK  status: ('A' for Active; 'I' for Inactive)
REMARK    1  A    between atoms: S_2  and  N_1 
REMARK    2  A    between atoms: C_8  and  S_2 
ROOT
ATOM      1  S   UNL d   1      32.827  21.279 -21.524  0.00  0.00     0.273 S 
ATOM      2  O   UNL d   1      32.415  20.920 -20.912  0.00  0.00    -0.200 OA
ATOM      3  O   UNL d   1      33.240  21.649 -22.134  0.00  0.00    -0.200 OA
ENDROOT
BRANCH   1   4
ATOM      4  N   UNL d   1      32.719  22.005 -21.146  0.00  0.00    -0.207 N 
ATOM      5  C   UNL d   1      32.126  22.481 -21.479  0.00  0.00     0.148 A 
ATOM      6  N   UNL d   1      31.880  23.236 -21.234  0.00  0.00    -0.198 NA
ATOM      7  C   UNL d   1      32.153  23.688 -20.620  0.00  0.00     0.066 A 
ATOM      8  C   UNL d   1      32.586  22.664 -20.841  0.00  0.00     0.169 A 
ATOM      9  C   UNL d   1      32.746  23.516 -20.079  0.00  0.00     0.066 A 
ATOM     10  N   UNL d   1      33.213  22.835 -20.027  0.00  0.00    -0.198 NA
ATOM     11  C   UNL d   1      33.198  22.167 -20.502  0.00  0.00     0.148 A 
ENDBRANCH   1   4
BRANCH   1  12
ATOM     12  C   UNL d   1      32.930  20.551 -21.894  0.00  0.00     0.104 A 
ATOM     13  C   UNL d   1      32.932  20.503 -22.717  0.00  0.00     0.014 A 
ATOM     14  C   UNL d   1      33.036  19.774 -23.088  0.00  0.00     0.012 A 
ATOM     15  C   UNL d   1      33.138  19.092 -22.635  0.00  0.00     0.058 A 
ATOM     16  C   UNL d   1      33.136  19.139 -21.812  0.00  0.00     0.012 A 
ATOM     17 CL   UNL d   1      33.241  18.367 -23.014  0.00  0.00    -0.082 Cl
ATOM     18  C   UNL d   1      33.033  19.868 -21.441  0.00  0.00     0.014 A 
ENDBRANCH   1  12
TORSDOF 2
ENDMDL
MODEL 3
REMARK VINA RESULT:      -2.6      2.026      3.657
REMARK  2 active torsions:
REMARK  status: ('A' for Active; 'I' for Inactive)
REMARK    1  A    between atoms: S_2  and  N_1 
REMARK    2  A    between atoms: C_8  and  S_2 
ROOT
ATOM      1  S   UNL d   1      30.387  16.957 -24.324  0.00  0.00     0.273 S 
ATOM      2  O   UNL d   1      30.030  17.482 -24.843  0.00  0.00    -0.200 OA
ATOM      3  O   UNL d   1      30.738  16.424 -23.801  0.00  0.00    -0.200 OA
ENDROOT
BRANCH   1   4
ATOM      4  N   UNL d   1      29.669  16.554 -24.267  0.00  0.00    -0.207 N 
ATOM      5  C   UNL d   1      29.167  16.830 -23.668  0.00  0.00     0.148 A 
ATOM      6  N   UNL d   1      28.411  16.548 -23.464  0.00  0.00    -0.198 NA
ATOM      7  C   UNL d   1      27.985  15.944 -23.796  0.00  0.00     0.066 A 
ATOM      8  C   UNL d   1      29.015  16.223 -24.178  0.00  0.00     0.169 A 
ATOM      9  C   UNL d   1      28.191  15.453 -24.419  0.00  0.00     0.066 A 
ATOM     10  N   UNL d   1      28.886  15.453 -24.867  0.00  0.00    -0.198 NA
ATOM     11  C   UNL d   1      29.540  15.942 -24.797  0.00  0.00     0.148 A 
ENDBRANCH   1   4
BRANCH   1  12
ATOM     12  C   UNL d   1      31.100  17.365 -24.387  0.00  0.00     0.104 A 
ATOM     13  C   UNL d   1      31.236  17.860 -25.033  0.00  0.00     0.014 A 
ATOM     14  C   UNL d   1      31.949  18.269 -25.096  0.00  0.00     0.012 A 
ATOM     15  C   UNL d   1      32.526  18.183 -24.513  0.00  0.00     0.058 A 
ATOM     16  C   UNL d   1      32.390  17.688 -23.867  0.00  0.00     0.012 A 
ATOM     17 CL   UNL d   1      33.237  18.595 -24.584  0.00  0.00    -0.082 Cl
ATOM     18  C   UNL d   1      31.678  17.280 -23.804  0.00  0.00     0.014 A 
ENDBRANCH   1  12
TORSDOF 2
ENDMDL
MODEL 4
REMARK VINA RESULT:      -2.2      2.641      3.848
REMARK  2 active torsions:
REMARK  status: ('A' for Active; 'I' for Inactive)
REMARK    1  A    between atoms: S_2  and  N_1 
REMARK    2  A    between atoms: C_8  and  S_2 
ROOT
ATOM      1  S   UNL d   1      32.658  17.905 -23.524  0.00  0.00     0.273 S 
ATOM      2  O   UNL d   1      32.226  18.216 -24.148  0.00  0.00    -0.200 OA
ATOM      3  O   UNL d   1      33.090  17.583 -22.900  0.00  0.00    -0.200 OA
ENDROOT
BRANCH   1   4
ATOM      4  N   UNL d   1      32.507  17.150 -23.821  0.00  0.00    -0.207 N 
ATOM      5  C   UNL d   1      33.121  16.831 -24.278  0.00  0.00     0.148 A 
ATOM      6  N   UNL d   1      33.147  16.090 -24.654  0.00  0.00    -0.198 NA
ATOM      7  C   UNL d   1      32.587  15.504 -24.667  0.00  0.00     0.066 A 
ATOM      8  C   UNL d   1      32.417  16.475 -24.107  0.00  0.00     0.169 A 
ATOM      9  C   UNL d   1      31.849  15.492 -24.311  0.00  0.00     0.066 A 
ATOM     10  N   UNL d   1      31.490  16.076 -23.849  0.00  0.00    -0.198 NA
ATOM     11  C   UNL d   1      31.785  16.811 -23.633  0.00  0.00     0.148 A 
ENDBRANCH   1   4
BRANCH   1  12
ATOM     12  C   UNL d   1      32.803  18.662 -23.235  0.00  0.00     0.104 A 
ATOM     13  C   UNL d   1      32.899  19.293 -23.758  0.00  0.00     0.014 A 
ATOM     14  C   UNL d   1      33.045  20.050 -23.469  0.00  0.00     0.012 A 
ATOM     15  C   UNL d   1      33.095  20.178 -22.656  0.00  0.00     0.058 A 
ATOM     16  C   UNL d   1      32.999  19.549 -22.132  0.00  0.00     0.012 A 
ATOM     17 CL   UNL d   1      33.241  20.940 -22.375  0.00  0.00    -0.082 Cl
ATOM     18  C   UNL d   1      32.854  18.791 -22.421  0.00  0.00     0.014 A 
ENDBRANCH   1  12
TORSDOF 2
ENDMDL
MODEL 5
REMARK VINA RESULT:      -2.0      5.149      6.227
REMARK  2 active torsions:
REMARK  status: ('A' for Active; 'I' for Inactive)
REMARK    1  A    between atoms: S_2  and  N_1 
REMARK    2  A    between atoms: C_8  and  S_2 
ROOT
ATOM      1  S   UNL d   1      32.867  21.310 -21.238  0.00  0.00     0.273 S 
ATOM      2  O   UNL d   1      32.497  21.778 -21.800  0.00  0.00    -0.200 OA
ATOM      3  O   UNL d   1      33.241  20.832 -20.679  0.00  0.00    -0.200 OA
ENDROOT
BRANCH   1   4
ATOM      4  N   UNL d   1      32.953  20.722 -21.811  0.00  0.00    -0.207 N 
ATOM      5  C   UNL d   1      32.848  19.949 -21.529  0.00  0.00     0.148 A 
ATOM      6  N   UNL d   1      32.896  19.238 -21.957  0.00  0.00    -0.198 NA
ATOM      7  C   UNL d   1      33.055  19.126 -22.744  0.00  0.00     0.066 A 
ATOM      8  C   UNL d   1      33.020  20.163 -22.289  0.00  0.00     0.169 A 
ATOM      9  C   UNL d   1      33.209  19.686 -23.322  0.00  0.00     0.066 A 
ATOM     10  N   UNL d   1      33.241  20.509 -23.246  0.00  0.00    -0.198 NA
ATOM     11  C   UNL d   1      33.127  20.966 -22.574  0.00  0.00     0.148 A 
ENDBRANCH   1   4
BRANCH   1  12
ATOM     12  C   UNL d   1      32.778  21.902 -20.672  0.00  0.00     0.104 A 
ATOM     13  C   UNL d   1      33.212  21.872 -19.971  0.00  0.00     0.014 A 
ATOM     14  C   UNL d   1      33.122  22.464 -19.405  0.00  0.00     0.012 A 
ATOM     15  C   UNL d   1      32.599  23.087 -19.540  0.00  0.00     0.058 A 
ATOM     16  C   UNL d   1      32.164  23.118 -20.240  0.00  0.00     0.012 A 
ATOM     17 CL   UNL d   1      32.515  23.676 -18.968  0.00  0.00    -0.082 Cl
ATOM     18  C   UNL d   1      32.253  22.526 -20.806  0.00  0.00     0.014 A 
ENDBRANCH   1  12
TORSDOF 2
ENDMDL
MODEL 6
REMARK VINA RESULT:      -1.9      6.801      7.830
REMARK  2 active torsions:
REMARK  status: ('A' for Active; 'I' for Inactive)
REMARK    1  A    between atoms: S_2  and  N_1 
REMARK    2  A    between atoms: C_8  and  S_2 
ROOT
ATOM      1  S   UNL d   1      32.769  22.746 -20.002  0.00  0.00     0.273 S 
ATOM      2  O   UNL d   1      32.393  22.034 -19.849  0.00  0.00    -0.200 OA
ATOM      3  O   UNL d   1      33.149  23.460 -20.165  0.00  0.00    -0.200 OA
ENDROOT
BRANCH   1   4
ATOM      4  N   UNL d   1      32.817  22.529 -20.797  0.00  0.00    -0.207 N 
ATOM      5  C   UNL d   1      33.067  21.749 -20.926  0.00  0.00     0.148 A 
ATOM      6  N   UNL d   1      33.172  21.360 -21.653  0.00  0.00    -0.198 NA
ATOM      7  C   UNL d   1      33.058  21.641 -22.404  0.00  0.00     0.066 A 
ATOM      8  C   UNL d   1      32.874  22.290 -21.493  0.00  0.00     0.169 A 
ATOM      9  C   UNL d   1      32.809  22.386 -22.641  0.00  0.00     0.066 A 
ATOM     10  N   UNL d   1      32.611  23.036 -22.170  0.00  0.00    -0.198 NA
ATOM     11  C   UNL d   1      32.616  23.097 -21.352  0.00  0.00     0.148 A 
ENDBRANCH   1   4
BRANCH   1  12
ATOM     12  C   UNL d   1      32.718  22.955 -19.207  0.00  0.00     0.104 A 
ATOM     13  C   UNL d   1      32.145  23.492 -18.957  0.00  0.00     0.014 A 
ATOM     14  C   UNL d   1      32.093  23.701 -18.162  0.00  0.00     0.012 A 
ATOM     15  C   UNL d   1      32.615  23.373 -17.615  0.00  0.00     0.058 A 
ATOM     16  C   UNL d   1      33.190  22.835 -17.863  0.00  0.00     0.012 A 
ATOM     17 CL   UNL d   1      32.557  23.587 -16.820  0.00  0.00    -0.082 Cl
ATOM     18  C   UNL d   1      33.241  22.626 -18.659  0.00  0.00     0.014 A 
ENDBRANCH   1  12
TORSDOF 2
ENDMDL
MODEL 7
REMARK VINA RESULT:      -1.7      6.534      7.496
REMARK  2 active torsions:
REMARK  status: ('A' for Active; 'I' for Inactive)
REMARK    1  A    between atoms: S_2  and  N_1 
REMARK    2  A    between atoms: C_8  and  S_2 
ROOT
ATOM      1  S   UNL d   1      32.813  22.974 -21.636  0.00  0.00     0.273 S 
ATOM      2  O   UNL d   1      32.426  22.252 -21.633  0.00  0.00    -0.200 OA
ATOM      3  O   UNL d   1      33.203  23.702 -21.629  0.00  0.00    -0.200 OA
ENDROOT
BRANCH   1   4
ATOM      4  N   UNL d   1      32.720  23.006 -20.816  0.00  0.00    -0.207 N 
ATOM      5  C   UNL d   1      32.129  23.528 -20.558  0.00  0.00     0.148 A 
ATOM      6  N   UNL d   1      31.896  23.689 -19.776  0.00  0.00    -0.198 NA
ATOM      7  C   UNL d   1      32.184  23.382 -19.084  0.00  0.00     0.066 A 
ATOM      8  C   UNL d   1      32.601  23.068 -20.091  0.00  0.00     0.169 A 
ATOM      9  C   UNL d   1      32.782  22.831 -18.976  0.00  0.00     0.066 A 
ATOM     10  N   UNL d   1      33.241  22.450 -19.549  0.00  0.00    -0.198 NA
ATOM     11  C   UNL d   1      33.211  22.530 -20.365  0.00  0.00     0.148 A 
ENDBRANCH   1   4
BRANCH   1  12
ATOM     12  C   UNL d   1      32.902  22.935 -22.454  0.00  0.00     0.104 A 
ATOM     13  C   UNL d   1      32.785  23.608 -22.915  0.00  0.00     0.014 A 
ATOM     14  C   UNL d   1      32.874  23.568 -23.734  0.00  0.00     0.012 A 
ATOM     15  C   UNL d   1      33.080  22.855 -24.091  0.00  0.00     0.058 A 
ATOM     16  C   UNL d   1      33.198  22.180 -23.631  0.00  0.00     0.012 A 
ATOM     17 CL   UNL d   1      33.167  22.824 -24.911  0.00  0.00    -0.082 Cl
ATOM     18  C   UNL d   1      33.109  22.220 -22.812  0.00  0.00     0.014 A 
ENDBRANCH   1  12
TORSDOF 2
ENDMDL
