MODEL 1
REMARK VINA RESULT:      43.0      0.000      0.000
REMARK  7 active torsions:
REMARK  status: ('A' for Active; 'I' for Inactive)
REMARK    1  A    between atoms: C_6  and  N_1 
REMARK    2  A    between atoms: C_7  and  C_2 
REMARK    3  A    between atoms: C_11  and  C_6 
REMARK    4  A    between atoms: N_8  and  C_12 
REMARK    5  A    between atoms: C_9  and  N_8 
REMARK    6  A    between atoms: C_17  and  C_9 
REMARK    7  A    between atoms: C_12  and  C_11 
ROOT
ATOM      1  N   UNL d   1     -50.977  26.132  33.461  0.00  0.00    -0.301 N 
ATOM      2  C   UNL d   1     -51.005  24.803  33.359  0.00  0.00     0.061 A 
ATOM      3  C   UNL d   1     -50.507  25.452  33.423  0.00  0.00     0.084 A 
ATOM      4  C   UNL d   1     -51.770  25.892  33.420  0.00  0.00     0.064 A 
ATOM      5  C   UNL d   1     -51.787  25.065  33.357  0.00  0.00     0.021 A 
ATOM      6  C   UNL d   1     -52.479  26.318  33.432  0.00  0.00     0.018 A 
ATOM      7  C   UNL d   1     -52.503  24.671  33.306  0.00  0.00     0.002 A 
ATOM      8  C   UNL d   1     -53.208  25.095  33.318  0.00  0.00     0.000 A 
ATOM      9  C   UNL d   1     -53.192  25.913  33.381  0.00  0.00     0.002 A 
ENDROOT
BRANCH   1  10
ATOM     10  C   UNL d   1     -50.712  26.910  33.528  0.00  0.00     0.124 C 
BRANCH  10  11
ATOM     11  C   UNL d   1     -49.927  27.062  33.730  0.00  0.00     0.232 C 
ATOM     12  O   UNL d   1     -49.314  26.687  33.311  0.00  0.00    -0.283 OA
BRANCH  11  13
ATOM     13  C   UNL d   1     -49.743  27.585  34.349  0.00  0.00     0.137 C 
BRANCH  13  14
ATOM     14  N   UNL d   1     -48.962  27.793  34.500  0.00  0.00    -0.262 NA
BRANCH  14  15
ATOM     15  C   UNL d   1     -48.776  28.260  35.151  0.00  0.00     0.143 C 
ATOM     16  C   UNL d   1     -48.068  28.684  35.172  0.00  0.00     0.032 C 
ATOM     17  C   UNL d   1     -48.131  28.354  34.639  0.00  0.00     0.032 C 
BRANCH  15  18
ATOM     18  C   UNL d   1     -49.303  28.306  35.792  0.00  0.00     0.229 C 
ATOM     19  O   UNL d   1     -49.012  28.282  36.565  0.00  0.00    -0.286 OA
ENDBRANCH  15  18
ENDBRANCH  14  15
ENDBRANCH  13  14
ENDBRANCH  11  13
ENDBRANCH  10  11
ENDBRANCH   1  10
BRANCH   2  20
ATOM     20  C   UNL d   1     -50.683  24.046  33.311  0.00  0.00     0.236 C 
ATOM     21  O   UNL d   1     -50.029  23.838  33.770  0.00  0.00    -0.283 OA
ENDBRANCH   2  20
TORSDOF 7
ENDMDL
