MODEL 1
REMARK VINA RESULT:      74.1      0.000      0.000
REMARK  5 active torsions:
REMARK  status: ('A' for Active; 'I' for Inactive)
REMARK    1  A    between atoms: C_7  and  C_1 
REMARK    2  A    between atoms: C_10  and  C_3 
REMARK    3  A    between atoms: C_8  and  C_4 
REMARK    4  A    between atoms: O_14  and  C_7 
REMARK    5  A    between atoms: C_20  and  O_14 
ROOT
ATOM      1  C   UNL d   1      60.559  49.427  51.887  0.00  0.00     0.102 A 
ATOM      2  C   UNL d   1      59.903  49.576  52.376  0.00  0.00     0.201 A 
ATOM      3  C   UNL d   1      60.463  49.294  51.077  0.00  0.00     0.008 A 
ATOM      4  C   UNL d   1      59.060  49.452  51.218  0.00  0.00     0.003 A 
ATOM      5  C   UNL d   1      59.156  49.585  52.028  0.00  0.00     0.042 A 
ATOM      6  C   UNL d   1      59.709  49.307  50.747  0.00  0.00     0.000 A 
ATOM      7  O   UNL d   1      59.999  49.708  53.177  0.00  0.00    -0.286 OA
ENDROOT
BRANCH   4   8
ATOM      8  C   UNL d   1      58.297  49.466  50.889  0.00  0.00     0.000 A 
ATOM      9  C   UNL d   1      58.198  49.690  50.095  0.00  0.00     0.000 A 
ATOM     10  C   UNL d   1      57.457  49.707  49.764  0.00  0.00     0.000 A 
ATOM     11  C   UNL d   1      56.799  49.498  50.233  0.00  0.00     0.000 A 
ATOM     12  C   UNL d   1      56.907  49.280  51.010  0.00  0.00     0.000 A 
ATOM     13  C   UNL d   1      56.039  49.514  49.899  0.00  0.00     0.000 C 
ATOM     14  C   UNL d   1      57.653  49.263  51.340  0.00  0.00     0.000 A 
ENDBRANCH   4   8
BRANCH   3  15
ATOM     15  C   UNL d   1      61.121  49.148  50.605  0.00  0.00     0.000 A 
ATOM     16  C   UNL d   1      61.275  49.650  49.966  0.00  0.00     0.000 A 
ATOM     17  C   UNL d   1      61.938  49.498  49.495  0.00  0.00     0.000 A 
ATOM     18  C   UNL d   1      62.431  48.877  49.647  0.00  0.00     0.000 A 
ATOM     19  C   UNL d   1      62.265  48.374  50.298  0.00  0.00     0.000 A 
ATOM     20  C   UNL d   1      61.607  48.517  50.773  0.00  0.00     0.000 A 
ENDBRANCH   3  15
BRANCH   1  21
ATOM     21  C   UNL d   1      61.322  49.414  52.220  0.00  0.00     0.303 C 
ATOM     22  O   UNL d   1      61.975  49.647  51.770  0.00  0.00    -0.259 OA
BRANCH  21  23
ATOM     23  O   UNL d   1      61.432  49.166  53.003  0.00  0.00    -0.271 OA
BRANCH  23  24
ATOM     24  C   UNL d   1      61.669  49.708  53.578  0.00  0.00     0.126 C 
ATOM     25  C   UNL d   1      62.440  49.685  53.872  0.00  0.00     0.029 C 
ENDBRANCH  23  24
ENDBRANCH  21  23
ENDBRANCH   1  21
TORSDOF 5
ENDMDL
MODEL 2
REMARK VINA RESULT:      76.4      0.882      1.054
REMARK  5 active torsions:
REMARK  status: ('A' for Active; 'I' for Inactive)
REMARK    1  A    between atoms: C_7  and  C_1 
REMARK    2  A    between atoms: C_10  and  C_3 
REMARK    3  A    between atoms: C_8  and  C_4 
REMARK    4  A    between atoms: O_14  and  C_7 
REMARK    5  A    between atoms: C_20  and  O_14 
ROOT
ATOM      1  C   UNL d   1      60.261  49.065  51.572  0.00  0.00     0.102 A 
ATOM      2  C   UNL d   1      59.604  49.425  51.934  0.00  0.00     0.201 A 
ATOM      3  C   UNL d   1      60.214  48.780  50.798  0.00  0.00     0.008 A 
ATOM      4  C   UNL d   1      58.861  49.202  50.724  0.00  0.00     0.003 A 
ATOM      5  C   UNL d   1      58.908  49.488  51.499  0.00  0.00     0.042 A 
ATOM      6  C   UNL d   1      59.510  48.851  50.378  0.00  0.00     0.000 A 
ATOM      7  O   UNL d   1      59.651  49.707  52.701  0.00  0.00    -0.286 OA
ENDROOT
BRANCH   4   8
ATOM      8  C   UNL d   1      58.148  49.276  50.303  0.00  0.00     0.000 A 
ATOM      9  C   UNL d   1      58.152  49.631  49.552  0.00  0.00     0.000 A 
ATOM     10  C   UNL d   1      57.461  49.708  49.133  0.00  0.00     0.000 A 
ATOM     11  C   UNL d   1      56.750  49.426  49.468  0.00  0.00     0.000 A 
ATOM     12  C   UNL d   1      56.759  49.080  50.205  0.00  0.00     0.000 A 
ATOM     13  C   UNL d   1      56.042  49.503  49.043  0.00  0.00     0.000 C 
ATOM     14  C   UNL d   1      57.454  49.004  50.624  0.00  0.00     0.000 A 
ENDBRANCH   4   8
BRANCH   3  15
ATOM     15  C   UNL d   1      60.871  48.426  50.452  0.00  0.00     0.000 A 
ATOM     16  C   UNL d   1      60.818  47.639  50.202  0.00  0.00     0.000 A 
ATOM     17  C   UNL d   1      61.483  47.289  49.855  0.00  0.00     0.000 A 
ATOM     18  C   UNL d   1      62.172  47.697  49.757  0.00  0.00     0.000 A 
ATOM     19  C   UNL d   1      62.215  48.495  50.014  0.00  0.00     0.000 A 
ATOM     20  C   UNL d   1      61.558  48.853  50.361  0.00  0.00     0.000 A 
ENDBRANCH   3  15
BRANCH   1  21
ATOM     21  C   UNL d   1      60.972  48.993  51.997  0.00  0.00     0.303 C 
ATOM     22  O   UNL d   1      61.482  49.641  52.066  0.00  0.00    -0.259 OA
BRANCH  21  23
ATOM     23  O   UNL d   1      61.177  48.272  52.353  0.00  0.00    -0.271 OA
BRANCH  23  24
ATOM     24  C   UNL d   1      61.694  48.261  52.995  0.00  0.00     0.126 C 
ATOM     25  C   UNL d   1      61.960  47.540  53.296  0.00  0.00     0.029 C 
ENDBRANCH  23  24
ENDBRANCH  21  23
ENDBRANCH   1  21
TORSDOF 5
ENDMDL
