MODEL 1
REMARK VINA RESULT:      -6.8      0.000      0.000
REMARK  5 active torsions:
REMARK  status: ('A' for Active; 'I' for Inactive)
REMARK    1  A    between atoms: C_6  and  N_1 
REMARK    2  A    between atoms: C_7  and  C_6 
REMARK    3  A    between atoms: C_8  and  C_7 
REMARK       I    between atoms: N_11  and  C_8 
REMARK    4  A    between atoms: C_13  and  N_11 
REMARK    5  A    between atoms: C_16  and  C_13 
ROOT
ATOM      1  C   UNL d   1     -47.393  13.680  22.257  0.00  0.00     0.091 C 
ENDROOT
BRANCH   1   2
ATOM      2  N   UNL d   1     -48.247  13.704  22.199  0.00  0.00    -0.240 N 
ATOM      3  C   UNL d   1     -48.708  13.288  21.689  0.00  0.00     0.267 A 
ATOM      4  C   UNL d   1     -49.473  13.488  21.836  0.00  0.00     0.061 A 
ATOM      5  O   UNL d   1     -48.370  12.742  21.113  0.00  0.00    -0.267 OA
ATOM      6  C   UNL d   1     -50.198  13.223  21.468  0.00  0.00     0.005 A 
ATOM      7  C   UNL d   1     -49.499  14.026  22.433  0.00  0.00     0.061 A 
ATOM      8  C   UNL d   1     -50.933  13.529  21.737  0.00  0.00     0.000 A 
ATOM      9  C   UNL d   1     -50.959  14.067  22.334  0.00  0.00     0.000 A 
ATOM     10  C   UNL d   1     -50.251  14.334  22.702  0.00  0.00     0.005 A 
ATOM     11  C   UNL d   1     -48.750  14.184  22.684  0.00  0.00     0.267 A 
ATOM     12  O   UNL d   1     -48.464  14.712  23.302  0.00  0.00    -0.267 OA
ENDBRANCH   1   2
BRANCH   1  13
ATOM     13  C   UNL d   1     -47.067  13.226  22.818  0.00  0.00     0.082 C 
BRANCH  13  14
ATOM     14  C   UNL d   1     -46.225  13.072  22.778  0.00  0.00     0.281 C 
ATOM     15  N   UNL d   1     -45.961  12.276  22.981  0.00  0.00    -0.206 NA
ATOM     16  O   UNL d   1     -45.727  13.659  22.558  0.00  0.00    -0.265 OA
BRANCH  15  17
ATOM     17  C   UNL d   1     -45.119  12.122  22.941  0.00  0.00     0.102 C 
BRANCH  17  18
ATOM     18  C   UNL d   1     -44.853  11.376  23.179  0.00  0.00     0.019 A 
ATOM     19  C   UNL d   1     -45.332  10.819  23.463  0.00  0.00     0.002 A 
ATOM     20  C   UNL d   1     -45.065  10.081  23.698  0.00  0.00     0.000 A 
ATOM     21  C   UNL d   1     -44.227   9.916  23.629  0.00  0.00     0.000 A 
ATOM     22  C   UNL d   1     -43.734  10.505  23.331  0.00  0.00     0.000 A 
ATOM     23  C   UNL d   1     -44.015  11.211  23.110  0.00  0.00     0.002 A 
ENDBRANCH  17  18
ENDBRANCH  15  17
ENDBRANCH  13  14
ENDBRANCH   1  13
TORSDOF 5
ENDMDL
MODEL 2
REMARK VINA RESULT:      -6.6      1.088      5.316
REMARK  5 active torsions:
REMARK  status: ('A' for Active; 'I' for Inactive)
REMARK    1  A    between atoms: C_6  and  N_1 
REMARK    2  A    between atoms: C_7  and  C_6 
REMARK    3  A    between atoms: C_8  and  C_7 
REMARK       I    between atoms: N_11  and  C_8 
REMARK    4  A    between atoms: C_13  and  N_11 
REMARK    5  A    between atoms: C_16  and  C_13 
ROOT
ATOM      1  C   UNL d   1     -46.486  12.966  22.570  0.00  0.00     0.091 C 
ENDROOT
BRANCH   1   2
ATOM      2  N   UNL d   1     -45.948  12.338  22.795  0.00  0.00    -0.240 N 
ATOM      3  C   UNL d   1     -45.162  12.297  22.636  0.00  0.00     0.267 A 
ATOM      4  C   UNL d   1     -44.888  11.610  22.955  0.00  0.00     0.061 A 
ATOM      5  O   UNL d   1     -44.753  12.916  22.197  0.00  0.00    -0.267 OA
ATOM      6  C   UNL d   1     -44.100  11.275  22.960  0.00  0.00     0.005 A 
ATOM      7  C   UNL d   1     -45.493  11.220  23.312  0.00  0.00     0.061 A 
ATOM      8  C   UNL d   1     -43.969  10.537  23.340  0.00  0.00     0.000 A 
ATOM      9  C   UNL d   1     -44.575  10.147  23.698  0.00  0.00     0.000 A 
ATOM     10  C   UNL d   1     -45.352  10.469  23.698  0.00  0.00     0.005 A 
ATOM     11  C   UNL d   1     -46.171  11.647  23.232  0.00  0.00     0.267 A 
ATOM     12  O   UNL d   1     -46.972  11.487  23.506  0.00  0.00    -0.267 OA
ENDBRANCH   1   2
BRANCH   1  13
ATOM     13  C   UNL d   1     -46.704  13.491  23.122  0.00  0.00     0.082 C 
BRANCH  13  14
ATOM     14  C   UNL d   1     -47.108  14.203  22.869  0.00  0.00     0.281 C 
ATOM     15  N   UNL d   1     -47.968  14.211  22.933  0.00  0.00    -0.206 NA
ATOM     16  O   UNL d   1     -46.680  14.819  22.591  0.00  0.00    -0.265 OA
BRANCH  15  17
ATOM     17  C   UNL d   1     -48.372  14.923  22.680  0.00  0.00     0.102 C 
BRANCH  17  18
ATOM     18  C   UNL d   1     -49.197  14.937  22.735  0.00  0.00     0.019 A 
ATOM     19  C   UNL d   1     -49.666  14.504  22.275  0.00  0.00     0.002 A 
ATOM     20  C   UNL d   1     -50.483  14.520  22.332  0.00  0.00     0.000 A 
ATOM     21  C   UNL d   1     -50.834  15.034  22.921  0.00  0.00     0.000 A 
ATOM     22  C   UNL d   1     -50.335  15.483  23.398  0.00  0.00     0.000 A 
ATOM     23  C   UNL d   1     -49.548  15.450  23.325  0.00  0.00     0.002 A 
ENDBRANCH  17  18
ENDBRANCH  15  17
ENDBRANCH  13  14
ENDBRANCH   1  13
TORSDOF 5
ENDMDL
MODEL 3
REMARK VINA RESULT:      -6.1      8.168      9.820
REMARK  5 active torsions:
REMARK  status: ('A' for Active; 'I' for Inactive)
REMARK    1  A    between atoms: C_6  and  N_1 
REMARK    2  A    between atoms: C_7  and  C_6 
REMARK    3  A    between atoms: C_8  and  C_7 
REMARK       I    between atoms: N_11  and  C_8 
REMARK    4  A    between atoms: C_13  and  N_11 
REMARK    5  A    between atoms: C_16  and  C_13 
ROOT
ATOM      1  C   UNL d   1     -39.930  14.259  18.357  0.00  0.00     0.091 C 
ENDROOT
BRANCH   1   2
ATOM      2  N   UNL d   1     -39.470  14.238  17.634  0.00  0.00    -0.240 N 
ATOM      3  C   UNL d   1     -39.329  14.852  17.135  0.00  0.00     0.267 A 
ATOM      4  C   UNL d   1     -38.872  14.574  16.534  0.00  0.00     0.061 A 
ATOM      5  O   UNL d   1     -39.643  15.641  17.284  0.00  0.00    -0.267 OA
ATOM      6  C   UNL d   1     -38.552  14.973  15.847  0.00  0.00     0.005 A 
ATOM      7  C   UNL d   1     -38.726  13.792  16.649  0.00  0.00     0.061 A 
ATOM      8  C   UNL d   1     -38.086  14.539  15.299  0.00  0.00     0.000 A 
ATOM      9  C   UNL d   1     -37.940  13.757  15.414  0.00  0.00     0.000 A 
ATOM     10  C   UNL d   1     -38.249  13.357  16.086  0.00  0.00     0.005 A 
ATOM     11  C   UNL d   1     -39.084  13.549  17.327  0.00  0.00     0.267 A 
ATOM     12  O   UNL d   1     -39.106  12.775  17.707  0.00  0.00    -0.267 OA
ENDBRANCH   1   2
BRANCH   1  13
ATOM     13  C   UNL d   1     -39.603  14.581  19.002  0.00  0.00     0.082 C 
BRANCH  13  14
ATOM     14  C   UNL d   1     -40.001  14.479  19.754  0.00  0.00     0.281 C 
ATOM     15  N   UNL d   1     -39.505  14.454  20.460  0.00  0.00    -0.206 NA
ATOM     16  O   UNL d   1     -40.798  14.411  19.772  0.00  0.00    -0.265 OA
BRANCH  15  17
ATOM     17  C   UNL d   1     -39.903  14.351  21.212  0.00  0.00     0.102 C 
BRANCH  17  18
ATOM     18  C   UNL d   1     -39.435  14.331  21.894  0.00  0.00     0.019 A 
ATOM     19  C   UNL d   1     -39.216  14.978  22.284  0.00  0.00     0.002 A 
ATOM     20  C   UNL d   1     -38.752  14.954  22.960  0.00  0.00     0.000 A 
ATOM     21  C   UNL d   1     -38.500  14.187  23.247  0.00  0.00     0.000 A 
ATOM     22  C   UNL d   1     -38.735  13.515  22.831  0.00  0.00     0.000 A 
ATOM     23  C   UNL d   1     -39.183  13.564  22.181  0.00  0.00     0.002 A 
ENDBRANCH  17  18
ENDBRANCH  15  17
ENDBRANCH  13  14
ENDBRANCH   1  13
TORSDOF 5
ENDMDL
MODEL 4
REMARK VINA RESULT:      -5.9      1.188      1.631
REMARK  5 active torsions:
REMARK  status: ('A' for Active; 'I' for Inactive)
REMARK    1  A    between atoms: C_6  and  N_1 
REMARK    2  A    between atoms: C_7  and  C_6 
REMARK    3  A    between atoms: C_8  and  C_7 
REMARK       I    between atoms: N_11  and  C_8 
REMARK    4  A    between atoms: C_13  and  N_11 
REMARK    5  A    between atoms: C_16  and  C_13 
ROOT
ATOM      1  C   UNL d   1     -47.949  12.887  23.047  0.00  0.00     0.091 C 
ENDROOT
BRANCH   1   2
ATOM      2  N   UNL d   1     -48.682  13.164  22.701  0.00  0.00    -0.240 N 
ATOM      3  C   UNL d   1     -49.168  12.754  22.209  0.00  0.00     0.267 A 
ATOM      4  C   UNL d   1     -49.787  13.236  22.026  0.00  0.00     0.061 A 
ATOM      5  O   UNL d   1     -48.992  11.947  21.964  0.00  0.00    -0.267 OA
ATOM      6  C   UNL d   1     -50.470  13.099  21.528  0.00  0.00     0.005 A 
ATOM      7  C   UNL d   1     -49.695  13.943  22.397  0.00  0.00     0.061 A 
ATOM      8  C   UNL d   1     -51.039  13.709  21.434  0.00  0.00     0.000 A 
ATOM      9  C   UNL d   1     -50.947  14.416  21.805  0.00  0.00     0.000 A 
ATOM     10  C   UNL d   1     -50.280  14.560  22.296  0.00  0.00     0.005 A 
ATOM     11  C   UNL d   1     -49.015  13.933  22.828  0.00  0.00     0.267 A 
ATOM     12  O   UNL d   1     -48.656  14.538  23.326  0.00  0.00    -0.267 OA
ENDBRANCH   1   2
BRANCH   1  13
ATOM     13  C   UNL d   1     -47.267  13.169  22.761  0.00  0.00     0.082 C 
BRANCH  13  14
ATOM     14  C   UNL d   1     -46.537  12.794  23.006  0.00  0.00     0.281 C 
ATOM     15  N   UNL d   1     -45.858  12.875  22.480  0.00  0.00    -0.206 NA
ATOM     16  O   UNL d   1     -46.513  12.393  23.698  0.00  0.00    -0.265 OA
BRANCH  15  17
ATOM     17  C   UNL d   1     -45.127  12.501  22.725  0.00  0.00     0.102 C 
BRANCH  17  18
ATOM     18  C   UNL d   1     -44.467  12.588  22.234  0.00  0.00     0.019 A 
ATOM     19  C   UNL d   1     -44.412  13.149  21.685  0.00  0.00     0.002 A 
ATOM     20  C   UNL d   1     -43.756  13.233  21.200  0.00  0.00     0.000 A 
ATOM     21  C   UNL d   1     -43.107  12.682  21.303  0.00  0.00     0.000 A 
ATOM     22  C   UNL d   1     -43.175  12.099  21.881  0.00  0.00     0.000 A 
ATOM     23  C   UNL d   1     -43.819  12.038  22.337  0.00  0.00     0.002 A 
ENDBRANCH  17  18
ENDBRANCH  15  17
ENDBRANCH  13  14
ENDBRANCH   1  13
TORSDOF 5
ENDMDL
MODEL 5
REMARK VINA RESULT:      -5.5      1.374      5.324
REMARK  5 active torsions:
REMARK  status: ('A' for Active; 'I' for Inactive)
REMARK    1  A    between atoms: C_6  and  N_1 
REMARK    2  A    between atoms: C_7  and  C_6 
REMARK    3  A    between atoms: C_8  and  C_7 
REMARK       I    between atoms: N_11  and  C_8 
REMARK    4  A    between atoms: C_13  and  N_11 
REMARK    5  A    between atoms: C_16  and  C_13 
ROOT
ATOM      1  C   UNL d   1     -46.749  12.599  23.216  0.00  0.00     0.091 C 
ENDROOT
BRANCH   1   2
ATOM      2  N   UNL d   1     -45.972  12.594  22.854  0.00  0.00    -0.240 N 
ATOM      3  C   UNL d   1     -45.684  13.124  22.323  0.00  0.00     0.267 A 
ATOM      4  C   UNL d   1     -44.934  12.898  22.140  0.00  0.00     0.061 A 
ATOM      5  O   UNL d   1     -46.154  13.792  22.047  0.00  0.00    -0.267 OA
ATOM      6  C   UNL d   1     -44.361  13.249  21.609  0.00  0.00     0.005 A 
ATOM      7  C   UNL d   1     -44.747  12.232  22.549  0.00  0.00     0.061 A 
ATOM      8  C   UNL d   1     -43.606  12.890  21.522  0.00  0.00     0.000 A 
ATOM      9  C   UNL d   1     -43.420  12.224  21.932  0.00  0.00     0.000 A 
ATOM     10  C   UNL d   1     -43.976  11.872  22.455  0.00  0.00     0.005 A 
ATOM     11  C   UNL d   1     -45.373  12.014  23.006  0.00  0.00     0.267 A 
ATOM     12  O   UNL d   1     -45.470  11.350  23.547  0.00  0.00    -0.267 OA
ENDBRANCH   1   2
BRANCH   1  13
ATOM     13  C   UNL d   1     -47.371  12.394  22.771  0.00  0.00     0.082 C 
BRANCH  13  14
ATOM     14  C   UNL d   1     -48.151  12.418  23.127  0.00  0.00     0.281 C 
ATOM     15  N   UNL d   1     -48.695  13.024  22.841  0.00  0.00    -0.206 NA
ATOM     16  O   UNL d   1     -48.338  11.890  23.698  0.00  0.00    -0.265 OA
BRANCH  15  17
ATOM     17  C   UNL d   1     -49.474  13.047  23.197  0.00  0.00     0.102 C 
BRANCH  17  18
ATOM     18  C   UNL d   1     -50.016  13.595  22.898  0.00  0.00     0.019 A 
ATOM     19  C   UNL d   1     -50.506  13.434  22.303  0.00  0.00     0.002 A 
ATOM     20  C   UNL d   1     -51.042  13.980  22.009  0.00  0.00     0.000 A 
ATOM     21  C   UNL d   1     -51.064  14.756  22.371  0.00  0.00     0.000 A 
ATOM     22  C   UNL d   1     -50.548  14.915  22.993  0.00  0.00     0.000 A 
ATOM     23  C   UNL d   1     -50.039  14.372  23.260  0.00  0.00     0.002 A 
ENDBRANCH  17  18
ENDBRANCH  15  17
ENDBRANCH  13  14
ENDBRANCH   1  13
TORSDOF 5
ENDMDL
MODEL 6
REMARK VINA RESULT:      -5.0      2.628      3.610
REMARK  5 active torsions:
REMARK  status: ('A' for Active; 'I' for Inactive)
REMARK    1  A    between atoms: C_6  and  N_1 
REMARK    2  A    between atoms: C_7  and  C_6 
REMARK    3  A    between atoms: C_8  and  C_7 
REMARK       I    between atoms: N_11  and  C_8 
REMARK    4  A    between atoms: C_13  and  N_11 
REMARK    5  A    between atoms: C_16  and  C_13 
ROOT
ATOM      1  C   UNL d   1     -45.193  12.977  22.603  0.00  0.00     0.091 C 
ENDROOT
BRANCH   1   2
ATOM      2  N   UNL d   1     -45.995  13.274  22.657  0.00  0.00    -0.240 N 
ATOM      3  C   UNL d   1     -46.223  14.044  22.681  0.00  0.00     0.267 A 
ATOM      4  C   UNL d   1     -47.026  14.056  22.731  0.00  0.00     0.061 A 
ATOM      5  O   UNL d   1     -45.651  14.689  22.653  0.00  0.00    -0.267 OA
ATOM      6  C   UNL d   1     -47.571  14.714  22.773  0.00  0.00     0.005 A 
ATOM      7  C   UNL d   1     -47.305  13.302  22.738  0.00  0.00     0.061 A 
ATOM      8  C   UNL d   1     -48.396  14.564  22.822  0.00  0.00     0.000 A 
ATOM      9  C   UNL d   1     -48.675  13.810  22.830  0.00  0.00     0.000 A 
ATOM     10  C   UNL d   1     -48.147  13.157  22.789  0.00  0.00     0.005 A 
ATOM     11  C   UNL d   1     -46.688  12.787  22.693  0.00  0.00     0.267 A 
ATOM     12  O   UNL d   1     -46.673  11.926  22.682  0.00  0.00    -0.267 OA
ENDBRANCH   1   2
BRANCH   1  13
ATOM     13  C   UNL d   1     -44.819  13.028  21.907  0.00  0.00     0.082 C 
BRANCH  13  14
ATOM     14  C   UNL d   1     -44.017  12.729  21.853  0.00  0.00     0.281 C 
ATOM     15  N   UNL d   1     -43.441  13.223  21.443  0.00  0.00    -0.206 NA
ATOM     16  O   UNL d   1     -43.839  12.020  22.178  0.00  0.00    -0.265 OA
BRANCH  15  17
ATOM     17  C   UNL d   1     -42.639  12.925  21.390  0.00  0.00     0.102 C 
BRANCH  17  18
ATOM     18  C   UNL d   1     -42.059  13.434  21.093  0.00  0.00     0.019 A 
ATOM     19  C   UNL d   1     -42.083  13.737  20.367  0.00  0.00     0.002 A 
ATOM     20  C   UNL d   1     -41.506  14.241  20.077  0.00  0.00     0.000 A 
ATOM     21  C   UNL d   1     -40.852  14.442  20.592  0.00  0.00     0.000 A 
ATOM     22  C   UNL d   1     -40.835  14.119  21.350  0.00  0.00     0.000 A 
ATOM     23  C   UNL d   1     -41.404  13.634  21.608  0.00  0.00     0.002 A 
ENDBRANCH  17  18
ENDBRANCH  15  17
ENDBRANCH  13  14
ENDBRANCH   1  13
TORSDOF 5
ENDMDL
