MODEL 1
REMARK VINA RESULT:      46.2      0.000      0.000
REMARK  6 active torsions:
REMARK  status: ('A' for Active; 'I' for Inactive)
REMARK    1  A    between atoms: C_9  and  N_1 
REMARK    2  A    between atoms: S_10  and  C_6 
REMARK    3  A    between atoms: C_16  and  C_9 
REMARK    4  A    between atoms: C_15  and  S_10 
REMARK    5  A    between atoms: C_12  and  C_15 
REMARK       I    between atoms: N_13  and  C_12 
REMARK    6  A    between atoms: C_19  and  N_13 
ROOT
ATOM      1  N   UNL d   1      13.590  14.579  -4.818  0.00  0.00    -0.192 N 
ATOM      2  N   UNL d   1      13.465  14.731  -4.022  0.00  0.00    -0.058 NA
ATOM      3  C   UNL d   1      13.454  13.776  -4.944  0.00  0.00     0.189 A 
ATOM      4  C   UNL d   1      13.245  13.442  -4.216  0.00  0.00     0.164 A 
ATOM      5  N   UNL d   1      13.255  14.044  -3.653  0.00  0.00    -0.125 NA
ATOM      6  C   UNL d   1      13.075  12.645  -4.160  0.00  0.00     0.135 A 
ATOM      7  N   UNL d   1      13.493  13.314  -5.616  0.00  0.00    -0.203 NA
ATOM      8  N   UNL d   1      13.112  12.167  -4.839  0.00  0.00    -0.216 NA
ATOM      9  C   UNL d   1      13.321  12.502  -5.567  0.00  0.00     0.201 A 
ENDROOT
BRANCH   6  10
ATOM     10  S   UNL d   1      12.866  12.311  -3.432  0.00  0.00    -0.061 SA
BRANCH  10  11
ATOM     11  C   UNL d   1      13.363  11.779  -3.062  0.00  0.00     0.099 C 
BRANCH  11  12
ATOM     12  C   UNL d   1      13.569  11.891  -2.268  0.00  0.00     0.286 C 
ATOM     13  N   UNL d   1      14.351  12.098  -2.075  0.00  0.00    -0.208 NA
ATOM     14  O   UNL d   1      13.010  11.800  -1.669  0.00  0.00    -0.265 OA
BRANCH  13  15
ATOM     15  C   UNL d   1      14.565  12.212  -1.283  0.00  0.00     0.085 A 
ATOM     16  C   UNL d   1      14.264  12.716  -0.686  0.00  0.00     0.019 A 
ATOM     17  C   UNL d   1      14.705  12.578  -0.014  0.00  0.00     0.002 A 
ATOM     18  C   UNL d   1      15.251  12.018  -0.186  0.00  0.00     0.002 A 
ATOM     19  C   UNL d   1      15.185  11.779  -0.956  0.00  0.00     0.019 A 
ENDBRANCH  13  15
ENDBRANCH  11  12
ENDBRANCH  10  11
ENDBRANCH   6  10
BRANCH   1  20
ATOM     20  C   UNL d   1      13.816  15.144  -5.398  0.00  0.00     0.104 C 
BRANCH  20  21
ATOM     21  C   UNL d   1      14.426  15.695  -5.238  0.00  0.00     0.019 A 
ATOM     22  C   UNL d   1      15.128  15.672  -5.675  0.00  0.00     0.004 A 
ATOM     23  C   UNL d   1      15.727  16.207  -5.522  0.00  0.00     0.030 A 
ATOM     24  C   UNL d   1      15.628  16.775  -4.926  0.00  0.00     0.140 A 
ATOM     25  C   UNL d   1      14.922  16.803  -4.482  0.00  0.00     0.030 A 
ATOM     26  F   UNL d   1      16.251  17.321  -4.777  0.00  0.00    -0.204 F 
ATOM     27  C   UNL d   1      14.337  16.263  -4.647  0.00  0.00     0.004 A 
ENDBRANCH  20  21
ENDBRANCH   1  20
TORSDOF 6
ENDMDL
MODEL 2
REMARK VINA RESULT:      46.3      2.205      5.189
REMARK  6 active torsions:
REMARK  status: ('A' for Active; 'I' for Inactive)
REMARK    1  A    between atoms: C_9  and  N_1 
REMARK    2  A    between atoms: S_10  and  C_6 
REMARK    3  A    between atoms: C_16  and  C_9 
REMARK    4  A    between atoms: C_15  and  S_10 
REMARK    5  A    between atoms: C_12  and  C_15 
REMARK       I    between atoms: N_13  and  C_12 
REMARK    6  A    between atoms: C_19  and  N_13 
ROOT
ATOM      1  N   UNL d   1      13.285  12.484  -3.381  0.00  0.00    -0.192 N 
ATOM      2  N   UNL d   1      13.141  13.236  -3.086  0.00  0.00    -0.058 NA
ATOM      3  C   UNL d   1      13.301  12.538  -4.203  0.00  0.00     0.189 A 
ATOM      4  C   UNL d   1      13.165  13.329  -4.404  0.00  0.00     0.164 A 
ATOM      5  N   UNL d   1      13.067  13.751  -3.702  0.00  0.00    -0.125 NA
ATOM      6  C   UNL d   1      13.147  13.561  -5.187  0.00  0.00     0.135 A 
ATOM      7  N   UNL d   1      13.420  11.978  -4.786  0.00  0.00    -0.203 NA
ATOM      8  N   UNL d   1      13.267  12.997  -5.786  0.00  0.00    -0.216 NA
ATOM      9  C   UNL d   1      13.403  12.205  -5.585  0.00  0.00     0.201 A 
ENDROOT
BRANCH   6  10
ATOM     10  S   UNL d   1      13.011  14.353  -5.387  0.00  0.00    -0.061 SA
BRANCH  10  11
ATOM     11  C   UNL d   1      13.625  14.827  -5.641  0.00  0.00     0.099 C 
BRANCH  11  12
ATOM     12  C   UNL d   1      13.538  15.650  -5.640  0.00  0.00     0.286 C 
ATOM     13  N   UNL d   1      13.628  16.071  -6.352  0.00  0.00    -0.208 NA
ATOM     14  O   UNL d   1      13.363  16.056  -4.944  0.00  0.00    -0.265 OA
BRANCH  13  15
ATOM     15  C   UNL d   1      13.543  16.894  -6.360  0.00  0.00     0.085 A 
ATOM     16  C   UNL d   1      12.867  17.390  -6.344  0.00  0.00     0.019 A 
ATOM     17  C   UNL d   1      13.136  18.159  -6.362  0.00  0.00     0.002 A 
ATOM     18  C   UNL d   1      13.937  18.142  -6.387  0.00  0.00     0.002 A 
ATOM     19  C   UNL d   1      14.207  17.380  -6.387  0.00  0.00     0.019 A 
ENDBRANCH  13  15
ENDBRANCH  11  12
ENDBRANCH  10  11
ENDBRANCH   6  10
BRANCH   1  20
ATOM     20  C   UNL d   1      13.397  11.788  -2.923  0.00  0.00     0.104 C 
BRANCH  20  21
ATOM     21  C   UNL d   1      13.806  11.821  -2.195  0.00  0.00     0.019 A 
ATOM     22  C   UNL d   1      13.383  11.869  -1.485  0.00  0.00     0.004 A 
ATOM     23  C   UNL d   1      13.778  11.902  -0.770  0.00  0.00     0.030 A 
ATOM     24  C   UNL d   1      14.608  11.886  -0.758  0.00  0.00     0.140 A 
ATOM     25  C   UNL d   1      15.039  11.837  -1.470  0.00  0.00     0.030 A 
ATOM     26  F   UNL d   1      15.004  11.920  -0.016  0.00  0.00    -0.204 F 
ATOM     27  C   UNL d   1      14.630  11.806  -2.173  0.00  0.00     0.004 A 
ENDBRANCH  20  21
ENDBRANCH   1  20
TORSDOF 6
ENDMDL
