MODEL 1
REMARK VINA RESULT:      17.4      0.000      0.000
REMARK  2 active torsions:
REMARK  status: ('A' for Active; 'I' for Inactive)
REMARK    1  A    between atoms: C_8  and  C_6 
REMARK    2  A    between atoms: C_9  and  C_8 
ROOT
ATOM      1  N   UNL d   1      46.092 -18.290  44.463  0.00  0.00    -0.207 NA
ATOM      2  N   UNL d   1      46.224 -17.387  43.062  0.00  0.00    -0.240 NA
ATOM      3  C   UNL d   1      46.029 -17.484  44.313  0.00  0.00     0.297 A 
ATOM      4  C   UNL d   1      46.244 -18.904  43.936  0.00  0.00     0.086 A 
ATOM      5  C   UNL d   1      46.357 -18.130  42.736  0.00  0.00     0.083 A 
ATOM      6  C   UNL d   1      46.075 -17.193  43.844  0.00  0.00     0.144 A 
ATOM      7  C   UNL d   1      46.374 -18.863  43.119  0.00  0.00     0.035 A 
ATOM      8  O   UNL d   1      45.880 -17.069  44.953  0.00  0.00    -0.264 OA
ATOM      9  C   UNL d   1      46.518 -19.548  42.690  0.00  0.00     0.003 A 
ATOM     10  C   UNL d   1      46.485 -18.086  41.926  0.00  0.00     0.019 A 
ATOM     11  C   UNL d   1      46.261 -19.641  44.321  0.00  0.00     0.019 A 
ATOM     12  C   UNL d   1      46.407 -20.330  43.884  0.00  0.00     0.002 A 
ATOM     13  C   UNL d   1      46.629 -18.771  41.497  0.00  0.00     0.002 A 
ATOM     14  C   UNL d   1      46.646 -19.504  41.879  0.00  0.00     0.000 A 
ATOM     15  C   UNL d   1      46.535 -20.278  43.070  0.00  0.00     0.000 A 
ENDROOT
BRANCH   6  16
ATOM     16  C   UNL d   1      45.930 -16.505  44.277  0.00  0.00     0.088 C 
BRANCH  16  17
ATOM     17  C   UNL d   1      45.803 -15.775  43.891  0.00  0.00     0.299 C 
ATOM     18  O   UNL d   1      46.432 -15.411  43.508  0.00  0.00    -0.264 OA
ATOM     19  N   UNL d   1      45.055 -15.420  43.894  0.00  0.00    -0.102 N 
ENDBRANCH  16  17
ENDBRANCH   6  16
TORSDOF 2
ENDMDL
MODEL 2
REMARK VINA RESULT:      18.5      2.807      5.195
REMARK  2 active torsions:
REMARK  status: ('A' for Active; 'I' for Inactive)
REMARK    1  A    between atoms: C_8  and  C_6 
REMARK    2  A    between atoms: C_9  and  C_8 
ROOT
ATOM      1  N   UNL d   1      44.636 -14.519  43.719  0.00  0.00    -0.207 NA
ATOM      2  N   UNL d   1      45.855 -14.420  44.859  0.00  0.00    -0.240 NA
ATOM      3  C   UNL d   1      44.945 -15.065  44.251  0.00  0.00     0.297 A 
ATOM      4  C   UNL d   1      44.854 -13.735  43.595  0.00  0.00     0.086 A 
ATOM      5  C   UNL d   1      45.899 -13.651  44.572  0.00  0.00     0.083 A 
ATOM      6  C   UNL d   1      45.350 -15.022  44.626  0.00  0.00     0.144 A 
ATOM      7  C   UNL d   1      45.443 -13.297  43.980  0.00  0.00     0.035 A 
ATOM      8  O   UNL d   1      44.597 -15.758  44.209  0.00  0.00    -0.264 OA
ATOM      9  C   UNL d   1      45.575 -12.513  43.772  0.00  0.00     0.003 A 
ATOM     10  C   UNL d   1      46.483 -13.219  44.955  0.00  0.00     0.019 A 
ATOM     11  C   UNL d   1      44.397 -13.379  43.000  0.00  0.00     0.019 A 
ATOM     12  C   UNL d   1      44.532 -12.588  42.793  0.00  0.00     0.002 A 
ATOM     13  C   UNL d   1      46.615 -12.435  44.748  0.00  0.00     0.002 A 
ATOM     14  C   UNL d   1      46.160 -12.081  44.156  0.00  0.00     0.000 A 
ATOM     15  C   UNL d   1      45.122 -12.160  43.182  0.00  0.00     0.000 A 
ENDROOT
BRANCH   6  16
ATOM     16  C   UNL d   1      45.217 -15.810  44.833  0.00  0.00     0.088 C 
BRANCH  16  17
ATOM     17  C   UNL d   1      45.841 -16.365  44.830  0.00  0.00     0.299 C 
ATOM     18  O   UNL d   1      46.612 -16.102  44.940  0.00  0.00    -0.264 OA
ATOM     19  N   UNL d   1      45.689 -17.172  44.718  0.00  0.00    -0.102 N 
ENDBRANCH  16  17
ENDBRANCH   6  16
TORSDOF 2
ENDMDL
