MODEL 1
REMARK VINA RESULT:      -7.1      0.000      0.000
REMARK  3 active torsions:
REMARK  status: ('A' for Active; 'I' for Inactive)
REMARK    1  A    between atoms: C_4  and  C_1 
REMARK    2  A    between atoms: N_7  and  C_4 
REMARK    3  A    between atoms: C_9  and  N_7 
ROOT
ATOM      1  C   UNL d   1     -47.927  13.486  22.749  0.00  0.00     0.159 C 
ATOM      2  S   UNL d   1     -47.841  13.122  22.013  0.00  0.00    -0.055 SA
ENDROOT
BRANCH   1   3
ATOM      3  C   UNL d   1     -48.612  13.913  22.918  0.00  0.00     0.139 A 
ATOM      4  N   UNL d   1     -49.346  13.587  23.112  0.00  0.00    -0.236 NA
ATOM      5  C   UNL d   1     -49.875  14.212  23.237  0.00  0.00     0.088 A 
ATOM      6  C   UNL d   1     -50.675  14.232  23.443  0.00  0.00     0.020 A 
ATOM      7  C   UNL d   1     -49.462  14.921  23.119  0.00  0.00     0.049 A 
ATOM      8  C   UNL d   1     -51.060  14.950  23.529  0.00  0.00     0.002 A 
ATOM      9  C   UNL d   1     -50.647  15.659  23.411  0.00  0.00     0.001 A 
ATOM     10  C   UNL d   1     -49.853  15.644  23.208  0.00  0.00     0.008 A 
ATOM     11  S   UNL d   1     -48.682  14.729  22.922  0.00  0.00    -0.064 SA
ENDBRANCH   1   3
BRANCH   1  12
ATOM     12  N   UNL d   1     -47.332  13.424  23.314  0.00  0.00    -0.233 NA
BRANCH  12  13
ATOM     13  C   UNL d   1     -46.833  12.763  23.318  0.00  0.00     0.082 A 
ATOM     14  C   UNL d   1     -46.098  12.801  22.949  0.00  0.00     0.020 A 
ATOM     15  C   UNL d   1     -45.597  12.151  22.948  0.00  0.00     0.013 A 
ATOM     16  C   UNL d   1     -45.840  11.450  23.325  0.00  0.00     0.058 A 
ATOM     17  C   UNL d   1     -46.577  11.409  23.696  0.00  0.00     0.013 A 
ATOM     18 CL   UNL d   1     -45.345  10.795  23.328  0.00  0.00    -0.082 Cl
ATOM     19  C   UNL d   1     -47.069  12.071  23.688  0.00  0.00     0.020 A 
ENDBRANCH  12  13
ENDBRANCH   1  12
TORSDOF 3
ENDMDL
MODEL 2
REMARK VINA RESULT:      -6.1      1.870      4.441
REMARK  3 active torsions:
REMARK  status: ('A' for Active; 'I' for Inactive)
REMARK    1  A    between atoms: C_4  and  C_1 
REMARK    2  A    between atoms: N_7  and  C_4 
REMARK    3  A    between atoms: C_9  and  N_7 
ROOT
ATOM      1  C   UNL d   1     -47.915  13.447  22.630  0.00  0.00     0.159 C 
ATOM      2  S   UNL d   1     -48.263  13.427  21.881  0.00  0.00    -0.055 SA
ENDROOT
BRANCH   1   3
ATOM      3  C   UNL d   1     -47.360  12.873  22.838  0.00  0.00     0.139 A 
ATOM      4  N   UNL d   1     -47.522  12.173  23.247  0.00  0.00    -0.236 NA
ATOM      5  C   UNL d   1     -46.809  11.763  23.338  0.00  0.00     0.088 A 
ATOM      6  C   UNL d   1     -46.623  11.041  23.694  0.00  0.00     0.020 A 
ATOM      7  C   UNL d   1     -46.210  12.213  22.983  0.00  0.00     0.049 A 
ATOM      8  C   UNL d   1     -45.850  10.771  23.698  0.00  0.00     0.002 A 
ATOM      9  C   UNL d   1     -45.251  11.221  23.343  0.00  0.00     0.001 A 
ATOM     10  C   UNL d   1     -45.431  11.938  22.988  0.00  0.00     0.008 A 
ATOM     11  S   UNL d   1     -46.557  12.899  22.676  0.00  0.00    -0.064 SA
ENDBRANCH   1   3
BRANCH   1  12
ATOM     12  N   UNL d   1     -48.118  14.035  23.167  0.00  0.00    -0.233 NA
BRANCH  12  13
ATOM     13  C   UNL d   1     -48.841  14.433  23.091  0.00  0.00     0.082 A 
ATOM     14  C   UNL d   1     -48.889  15.115  22.634  0.00  0.00     0.020 A 
ATOM     15  C   UNL d   1     -49.601  15.515  22.553  0.00  0.00     0.013 A 
ATOM     16  C   UNL d   1     -50.278  15.222  22.939  0.00  0.00     0.058 A 
ATOM     17  C   UNL d   1     -50.233  14.537  23.398  0.00  0.00     0.013 A 
ATOM     18 CL   UNL d   1     -50.994  15.616  22.864  0.00  0.00    -0.082 Cl
ATOM     19  C   UNL d   1     -49.510  14.147  23.470  0.00  0.00     0.020 A 
ENDBRANCH  12  13
ENDBRANCH   1  12
TORSDOF 3
ENDMDL
MODEL 3
REMARK VINA RESULT:      -5.6      9.076     10.038
REMARK  3 active torsions:
REMARK  status: ('A' for Active; 'I' for Inactive)
REMARK    1  A    between atoms: C_4  and  C_1 
REMARK    2  A    between atoms: N_7  and  C_4 
REMARK    3  A    between atoms: C_9  and  N_7 
ROOT
ATOM      1  C   UNL d   1     -39.690  14.964  19.763  0.00  0.00     0.159 C 
ATOM      2  S   UNL d   1     -39.359  15.683  19.526  0.00  0.00    -0.055 SA
ENDROOT
BRANCH   1   3
ATOM      3  C   UNL d   1     -39.349  14.541  20.384  0.00  0.00     0.139 A 
ATOM      4  N   UNL d   1     -38.680  14.060  20.328  0.00  0.00    -0.236 NA
ATOM      5  C   UNL d   1     -38.532  13.744  21.079  0.00  0.00     0.088 A 
ATOM      6  C   UNL d   1     -37.948  13.233  21.363  0.00  0.00     0.020 A 
ATOM      7  C   UNL d   1     -39.113  14.034  21.594  0.00  0.00     0.049 A 
ATOM      8  C   UNL d   1     -37.943  13.013  22.152  0.00  0.00     0.002 A 
ATOM      9  C   UNL d   1     -38.524  13.303  22.668  0.00  0.00     0.001 A 
ATOM     10  C   UNL d   1     -39.105  13.810  22.390  0.00  0.00     0.008 A 
ATOM     11  S   UNL d   1     -39.615  14.526  21.158  0.00  0.00    -0.064 SA
ENDBRANCH   1   3
BRANCH   1  12
ATOM     12  N   UNL d   1     -40.356  14.668  19.382  0.00  0.00    -0.233 NA
BRANCH  12  13
ATOM     13  C   UNL d   1     -40.552  14.937  18.623  0.00  0.00     0.082 A 
ATOM     14  C   UNL d   1     -40.955  15.648  18.530  0.00  0.00     0.020 A 
ATOM     15  C   UNL d   1     -41.153  15.922  17.782  0.00  0.00     0.013 A 
ATOM     16  C   UNL d   1     -40.941  15.470  17.115  0.00  0.00     0.058 A 
ATOM     17  C   UNL d   1     -40.537  14.756  17.205  0.00  0.00     0.013 A 
ATOM     18 CL   UNL d   1     -41.135  15.737  16.363  0.00  0.00    -0.082 Cl
ATOM     19  C   UNL d   1     -40.346  14.495  17.964  0.00  0.00     0.020 A 
ENDBRANCH  12  13
ENDBRANCH   1  12
TORSDOF 3
ENDMDL
MODEL 4
REMARK VINA RESULT:      -5.5      8.639     10.231
REMARK  3 active torsions:
REMARK  status: ('A' for Active; 'I' for Inactive)
REMARK    1  A    between atoms: C_4  and  C_1 
REMARK    2  A    between atoms: N_7  and  C_4 
REMARK    3  A    between atoms: C_9  and  N_7 
ROOT
ATOM      1  C   UNL d   1     -39.768  14.769  18.011  0.00  0.00     0.159 C 
ATOM      2  S   UNL d   1     -40.329  14.643  17.418  0.00  0.00    -0.055 SA
ENDROOT
BRANCH   1   3
ATOM      3  C   UNL d   1     -40.015  14.899  18.787  0.00  0.00     0.139 A 
ATOM      4  N   UNL d   1     -39.869  14.400  19.429  0.00  0.00    -0.236 NA
ATOM      5  C   UNL d   1     -40.214  14.741  20.099  0.00  0.00     0.088 A 
ATOM      6  C   UNL d   1     -40.252  14.504  20.889  0.00  0.00     0.020 A 
ATOM      7  C   UNL d   1     -40.572  15.452  19.865  0.00  0.00     0.049 A 
ATOM      8  C   UNL d   1     -40.641  14.967  21.441  0.00  0.00     0.002 A 
ATOM      9  C   UNL d   1     -40.999  15.678  21.207  0.00  0.00     0.001 A 
ATOM     10  C   UNL d   1     -40.964  15.918  20.424  0.00  0.00     0.008 A 
ATOM     11  S   UNL d   1     -40.445  15.544  19.053  0.00  0.00    -0.064 SA
ENDBRANCH   1   3
BRANCH   1  12
ATOM     12  N   UNL d   1     -38.966  14.764  17.831  0.00  0.00    -0.233 NA
BRANCH  12  13
ATOM     13  C   UNL d   1     -38.711  14.506  17.086  0.00  0.00     0.082 A 
ATOM     14  C   UNL d   1     -38.615  15.049  16.474  0.00  0.00     0.020 A 
ATOM     15  C   UNL d   1     -38.363  14.802  15.732  0.00  0.00     0.013 A 
ATOM     16  C   UNL d   1     -38.204  13.996  15.605  0.00  0.00     0.058 A 
ATOM     17  C   UNL d   1     -38.299  13.449  16.217  0.00  0.00     0.013 A 
ATOM     18 CL   UNL d   1     -37.951  13.741  14.867  0.00  0.00    -0.082 Cl
ATOM     19  C   UNL d   1     -38.553  13.713  16.956  0.00  0.00     0.020 A 
ENDBRANCH  12  13
ENDBRANCH   1  12
TORSDOF 3
ENDMDL
MODEL 5
REMARK VINA RESULT:      -5.1      8.935     10.797
REMARK  3 active torsions:
REMARK  status: ('A' for Active; 'I' for Inactive)
REMARK    1  A    between atoms: C_4  and  C_1 
REMARK    2  A    between atoms: N_7  and  C_4 
REMARK    3  A    between atoms: C_9  and  N_7 
ROOT
ATOM      1  C   UNL d   1     -39.721  14.833  18.639  0.00  0.00     0.159 C 
ATOM      2  S   UNL d   1     -40.335  14.385  18.962  0.00  0.00    -0.055 SA
ENDROOT
BRANCH   1   3
ATOM      3  C   UNL d   1     -39.339  14.572  17.956  0.00  0.00     0.139 A 
ATOM      4  N   UNL d   1     -38.873  13.892  17.895  0.00  0.00    -0.236 NA
ATOM      5  C   UNL d   1     -38.600  13.841  17.115  0.00  0.00     0.088 A 
ATOM      6  C   UNL d   1     -38.119  13.293  16.728  0.00  0.00     0.020 A 
ATOM      7  C   UNL d   1     -38.901  14.492  16.699  0.00  0.00     0.049 A 
ATOM      8  C   UNL d   1     -37.940  13.390  15.935  0.00  0.00     0.002 A 
ATOM      9  C   UNL d   1     -38.241  14.040  15.518  0.00  0.00     0.001 A 
ATOM     10  C   UNL d   1     -38.718  14.587  15.898  0.00  0.00     0.008 A 
ATOM     11  S   UNL d   1     -39.357  14.940  17.224  0.00  0.00    -0.064 SA
ENDBRANCH   1   3
BRANCH   1  12
ATOM     12  N   UNL d   1     -39.489  15.537  18.994  0.00  0.00    -0.233 NA
BRANCH  12  13
ATOM     13  C   UNL d   1     -39.573  15.634  19.813  0.00  0.00     0.082 A 
ATOM     14  C   UNL d   1     -40.311  15.810  20.133  0.00  0.00     0.020 A 
ATOM     15  C   UNL d   1     -40.404  15.907  20.943  0.00  0.00     0.013 A 
ATOM     16  C   UNL d   1     -39.741  15.826  21.440  0.00  0.00     0.058 A 
ATOM     17  C   UNL d   1     -38.999  15.650  21.122  0.00  0.00     0.013 A 
ATOM     18 CL   UNL d   1     -39.825  15.922  22.251  0.00  0.00    -0.082 Cl
ATOM     19  C   UNL d   1     -38.923  15.555  20.306  0.00  0.00     0.020 A 
ENDBRANCH  12  13
ENDBRANCH   1  12
TORSDOF 3
ENDMDL
MODEL 6
REMARK VINA RESULT:      -4.1      9.014      9.385
REMARK  3 active torsions:
REMARK  status: ('A' for Active; 'I' for Inactive)
REMARK    1  A    between atoms: C_4  and  C_1 
REMARK    2  A    between atoms: N_7  and  C_4 
REMARK    3  A    between atoms: C_9  and  N_7 
ROOT
ATOM      1  C   UNL d   1     -40.021  14.660  20.226  0.00  0.00     0.159 C 
ATOM      2  S   UNL d   1     -40.638  14.453  20.734  0.00  0.00    -0.055 SA
ENDROOT
BRANCH   1   3
ATOM      3  C   UNL d   1     -40.179  14.826  19.434  0.00  0.00     0.139 A 
ATOM      4  N   UNL d   1     -39.967  14.352  18.791  0.00  0.00    -0.236 NA
ATOM      5  C   UNL d   1     -40.233  14.725  18.102  0.00  0.00     0.088 A 
ATOM      6  C   UNL d   1     -40.185  14.521  17.304  0.00  0.00     0.020 A 
ATOM      7  C   UNL d   1     -40.610  15.429  18.325  0.00  0.00     0.049 A 
ATOM      8  C   UNL d   1     -40.508  15.011  16.733  0.00  0.00     0.002 A 
ATOM      9  C   UNL d   1     -40.885  15.715  16.955  0.00  0.00     0.001 A 
ATOM     10  C   UNL d   1     -40.935  15.922  17.747  0.00  0.00     0.008 A 
ATOM     11  S   UNL d   1     -40.573  15.486  19.150  0.00  0.00    -0.064 SA
ENDBRANCH   1   3
BRANCH   1  12
ATOM     12  N   UNL d   1     -39.249  14.703  20.507  0.00  0.00    -0.233 NA
BRANCH  12  13
ATOM     13  C   UNL d   1     -39.056  14.363  21.238  0.00  0.00     0.082 A 
ATOM     14  C   UNL d   1     -39.248  14.754  21.937  0.00  0.00     0.020 A 
ATOM     15  C   UNL d   1     -39.060  14.424  22.665  0.00  0.00     0.013 A 
ATOM     16  C   UNL d   1     -38.673  13.688  22.690  0.00  0.00     0.058 A 
ATOM     17  C   UNL d   1     -38.479  13.294  21.991  0.00  0.00     0.013 A 
ATOM     18 CL   UNL d   1     -38.482  13.352  23.414  0.00  0.00    -0.082 Cl
ATOM     19  C   UNL d   1     -38.674  13.638  21.267  0.00  0.00     0.020 A 
ENDBRANCH  12  13
ENDBRANCH   1  12
TORSDOF 3
ENDMDL
