MODEL 1
REMARK VINA RESULT:      -5.2      0.000      0.000
REMARK  7 active torsions:
REMARK  status: ('A' for Active; 'I' for Inactive)
REMARK    1  A    between atoms: S_8  and  C_3 
REMARK    2  A    between atoms: C_4  and  C_15 
REMARK       I    between atoms: N_7  and  C_4 
REMARK    3  A    between atoms: C_13  and  C_5 
REMARK    4  A    between atoms: C_6  and  C_9 
REMARK    5  A    between atoms: C_9  and  N_7 
REMARK    6  A    between atoms: C_15  and  S_8 
REMARK    7  A    between atoms: O_17  and  C_11 
ROOT
ATOM      1  S   UNL d   1     -44.419  12.734  22.030  0.00  0.00    -0.061 SA
ENDROOT
BRANCH   1   2
ATOM      2  C   UNL d   1     -45.197  12.963  22.224  0.00  0.00     0.133 A 
ATOM      3  N   UNL d   1     -45.387  13.200  22.992  0.00  0.00    -0.141 NA
ATOM      4  N   UNL d   1     -46.166  13.426  23.174  0.00  0.00    -0.148 NA
ATOM      5  C   UNL d   1     -46.748  13.414  22.590  0.00  0.00     0.103 A 
ATOM      6  C   UNL d   1     -46.558  13.176  21.822  0.00  0.00     0.023 A 
ATOM      7  C   UNL d   1     -45.787  12.952  21.638  0.00  0.00     0.029 A 
BRANCH   5   8
ATOM      8  C   UNL d   1     -47.520  13.639  22.774  0.00  0.00     0.022 A 
ATOM      9  C   UNL d   1     -48.067  13.070  23.011  0.00  0.00     0.022 A 
ATOM     10  C   UNL d   1     -48.842  13.295  23.196  0.00  0.00     0.099 A 
ATOM     11  N   UNL d   1     -49.067  14.092  23.142  0.00  0.00    -0.242 NA
ATOM     12  C   UNL d   1     -48.516  14.661  22.903  0.00  0.00     0.099 A 
ATOM     13  C   UNL d   1     -47.744  14.436  22.719  0.00  0.00     0.022 A 
ENDBRANCH   5   8
ENDBRANCH   1   2
BRANCH   1  14
ATOM     14  C   UNL d   1     -43.966  13.192  21.513  0.00  0.00     0.099 C 
BRANCH  14  15
ATOM     15  C   UNL d   1     -43.149  13.088  21.482  0.00  0.00     0.286 C 
ATOM     16  N   UNL d   1     -42.652  13.733  21.303  0.00  0.00    -0.206 NA
ATOM     17  O   UNL d   1     -42.822  12.343  21.631  0.00  0.00    -0.265 OA
BRANCH  16  18
ATOM     18  C   UNL d   1     -41.835  13.629  21.272  0.00  0.00     0.104 C 
BRANCH  18  19
ATOM     19  C   UNL d   1     -41.340  14.272  21.101  0.00  0.00     0.042 A 
ATOM     20  C   UNL d   1     -40.543  14.247  21.309  0.00  0.00     0.096 A 
ATOM     21  C   UNL d   1     -40.050  14.888  21.138  0.00  0.00     0.024 A 
ATOM     22  C   UNL d   1     -40.354  15.553  20.759  0.00  0.00     0.002 A 
ATOM     23  C   UNL d   1     -41.151  15.578  20.551  0.00  0.00     0.000 A 
ATOM     24  C   UNL d   1     -41.644  14.938  20.721  0.00  0.00     0.004 A 
BRANCH  20  25
ATOM     25  O   UNL d   1     -40.237  13.566  21.696  0.00  0.00    -0.328 OA
ATOM     26  C   UNL d   1     -39.455  13.560  21.960  0.00  0.00     0.181 C 
ENDBRANCH  20  25
ENDBRANCH  18  19
ENDBRANCH  16  18
ENDBRANCH  14  15
ENDBRANCH   1  14
TORSDOF 7
ENDMDL
MODEL 2
REMARK VINA RESULT:      -4.9      0.985      1.284
REMARK  7 active torsions:
REMARK  status: ('A' for Active; 'I' for Inactive)
REMARK    1  A    between atoms: S_8  and  C_3 
REMARK    2  A    between atoms: C_4  and  C_15 
REMARK       I    between atoms: N_7  and  C_4 
REMARK    3  A    between atoms: C_13  and  C_5 
REMARK    4  A    between atoms: C_6  and  C_9 
REMARK    5  A    between atoms: C_9  and  N_7 
REMARK    6  A    between atoms: C_15  and  S_8 
REMARK    7  A    between atoms: O_17  and  C_11 
ROOT
ATOM      1  S   UNL d   1     -43.988  12.687  21.911  0.00  0.00    -0.061 SA
ENDROOT
BRANCH   1   2
ATOM      2  C   UNL d   1     -44.773  12.737  22.187  0.00  0.00     0.133 A 
ATOM      3  N   UNL d   1     -45.018  12.298  22.842  0.00  0.00    -0.141 NA
ATOM      4  N   UNL d   1     -45.804  12.357  23.108  0.00  0.00    -0.148 NA
ATOM      5  C   UNL d   1     -46.336  12.852  22.720  0.00  0.00     0.103 A 
ATOM      6  C   UNL d   1     -46.091  13.292  22.065  0.00  0.00     0.023 A 
ATOM      7  C   UNL d   1     -45.313  13.236  21.798  0.00  0.00     0.029 A 
BRANCH   5   8
ATOM      8  C   UNL d   1     -47.114  12.908  22.987  0.00  0.00     0.022 A 
ATOM      9  C   UNL d   1     -47.498  13.637  22.984  0.00  0.00     0.022 A 
ATOM     10  C   UNL d   1     -48.279  13.695  23.252  0.00  0.00     0.099 A 
ATOM     11  N   UNL d   1     -48.675  13.017  23.522  0.00  0.00    -0.242 NA
ATOM     12  C   UNL d   1     -48.289  12.286  23.523  0.00  0.00     0.099 A 
ATOM     13  C   UNL d   1     -47.511  12.230  23.257  0.00  0.00     0.022 A 
ENDBRANCH   5   8
ENDBRANCH   1   2
BRANCH   1  14
ATOM     14  C   UNL d   1     -43.654  13.311  21.485  0.00  0.00     0.099 C 
BRANCH  14  15
ATOM     15  C   UNL d   1     -42.881  13.249  21.207  0.00  0.00     0.286 C 
ATOM     16  N   UNL d   1     -42.442  13.937  21.033  0.00  0.00    -0.206 NA
ATOM     17  O   UNL d   1     -42.538  12.503  21.099  0.00  0.00    -0.265 OA
BRANCH  16  18
ATOM     18  C   UNL d   1     -41.669  13.875  20.755  0.00  0.00     0.104 C 
BRANCH  18  19
ATOM     19  C   UNL d   1     -41.220  14.559  20.618  0.00  0.00     0.042 A 
ATOM     20  C   UNL d   1     -40.768  14.627  19.933  0.00  0.00     0.096 A 
ATOM     21  C   UNL d   1     -40.321  15.308  19.797  0.00  0.00     0.024 A 
ATOM     22  C   UNL d   1     -40.326  15.922  20.346  0.00  0.00     0.002 A 
ATOM     23  C   UNL d   1     -40.779  15.854  21.032  0.00  0.00     0.000 A 
ATOM     24  C   UNL d   1     -41.226  15.173  21.168  0.00  0.00     0.004 A 
BRANCH  20  25
ATOM     25  O   UNL d   1     -40.766  13.997  19.374  0.00  0.00    -0.328 OA
ATOM     26  C   UNL d   1     -40.322  14.064  18.681  0.00  0.00     0.181 C 
ENDBRANCH  20  25
ENDBRANCH  18  19
ENDBRANCH  16  18
ENDBRANCH  14  15
ENDBRANCH   1  14
TORSDOF 7
ENDMDL
MODEL 3
REMARK VINA RESULT:      -4.8      1.517      6.389
REMARK  7 active torsions:
REMARK  status: ('A' for Active; 'I' for Inactive)
REMARK    1  A    between atoms: S_8  and  C_3 
REMARK    2  A    between atoms: C_4  and  C_15 
REMARK       I    between atoms: N_7  and  C_4 
REMARK    3  A    between atoms: C_13  and  C_5 
REMARK    4  A    between atoms: C_6  and  C_9 
REMARK    5  A    between atoms: C_9  and  N_7 
REMARK    6  A    between atoms: C_15  and  S_8 
REMARK    7  A    between atoms: O_17  and  C_11 
ROOT
ATOM      1  S   UNL d   1     -42.815  13.023  21.444  0.00  0.00    -0.061 SA
ENDROOT
BRANCH   1   2
ATOM      2  C   UNL d   1     -42.190  13.516  21.196  0.00  0.00     0.133 A 
ATOM      3  N   UNL d   1     -42.313  14.323  21.075  0.00  0.00    -0.141 NA
ATOM      4  N   UNL d   1     -41.681  14.805  20.828  0.00  0.00    -0.148 NA
ATOM      5  C   UNL d   1     -40.935  14.478  20.704  0.00  0.00     0.103 A 
ATOM      6  C   UNL d   1     -40.812  13.670  20.825  0.00  0.00     0.023 A 
ATOM      7  C   UNL d   1     -41.435  13.189  21.070  0.00  0.00     0.029 A 
BRANCH   5   8
ATOM      8  C   UNL d   1     -40.311  14.958  20.459  0.00  0.00     0.022 A 
ATOM      9  C   UNL d   1     -40.221  15.138  19.660  0.00  0.00     0.022 A 
ATOM     10  C   UNL d   1     -39.595  15.619  19.412  0.00  0.00     0.099 A 
ATOM     11  N   UNL d   1     -39.060  15.922  19.970  0.00  0.00    -0.242 NA
ATOM     12  C   UNL d   1     -39.152  15.741  20.772  0.00  0.00     0.099 A 
ATOM     13  C   UNL d   1     -39.776  15.261  21.016  0.00  0.00     0.022 A 
ENDBRANCH   5   8
ENDBRANCH   1   2
BRANCH   1  14
ATOM     14  C   UNL d   1     -43.587  13.314  21.478  0.00  0.00     0.099 C 
BRANCH  14  15
ATOM     15  C   UNL d   1     -44.163  12.897  21.895  0.00  0.00     0.286 C 
ATOM     16  N   UNL d   1     -44.889  13.262  22.084  0.00  0.00    -0.206 NA
ATOM     17  O   UNL d   1     -44.022  12.115  22.126  0.00  0.00    -0.265 OA
BRANCH  16  18
ATOM     18  C   UNL d   1     -45.465  12.845  22.500  0.00  0.00     0.104 C 
BRANCH  18  19
ATOM     19  C   UNL d   1     -46.177  13.216  22.709  0.00  0.00     0.042 A 
ATOM     20  C   UNL d   1     -46.764  12.792  23.102  0.00  0.00     0.096 A 
ATOM     21  C   UNL d   1     -47.473  13.161  23.310  0.00  0.00     0.024 A 
ATOM     22  C   UNL d   1     -47.596  13.954  23.124  0.00  0.00     0.002 A 
ATOM     23  C   UNL d   1     -47.009  14.378  22.730  0.00  0.00     0.000 A 
ATOM     24  C   UNL d   1     -46.300  14.009  22.523  0.00  0.00     0.004 A 
BRANCH  20  25
ATOM     25  O   UNL d   1     -46.634  11.982  23.290  0.00  0.00    -0.328 OA
ATOM     26  C   UNL d   1     -47.253  11.525  23.590  0.00  0.00     0.181 C 
ENDBRANCH  20  25
ENDBRANCH  18  19
ENDBRANCH  16  18
ENDBRANCH  14  15
ENDBRANCH   1  14
TORSDOF 7
ENDMDL
MODEL 4
REMARK VINA RESULT:      -3.9      2.014      2.660
REMARK  7 active torsions:
REMARK  status: ('A' for Active; 'I' for Inactive)
REMARK    1  A    between atoms: S_8  and  C_3 
REMARK    2  A    between atoms: C_4  and  C_15 
REMARK       I    between atoms: N_7  and  C_4 
REMARK    3  A    between atoms: C_13  and  C_5 
REMARK    4  A    between atoms: C_6  and  C_9 
REMARK    5  A    between atoms: C_9  and  N_7 
REMARK    6  A    between atoms: C_15  and  S_8 
REMARK    7  A    between atoms: O_17  and  C_11 
ROOT
ATOM      1  S   UNL d   1     -42.449  12.991  21.090  0.00  0.00    -0.061 SA
ENDROOT
BRANCH   1   2
ATOM      2  C   UNL d   1     -43.190  12.890  21.457  0.00  0.00     0.133 A 
ATOM      3  N   UNL d   1     -43.336  12.234  21.938  0.00  0.00    -0.141 NA
ATOM      4  N   UNL d   1     -44.079  12.144  22.300  0.00  0.00    -0.148 NA
ATOM      5  C   UNL d   1     -44.669  12.707  22.179  0.00  0.00     0.103 A 
ATOM      6  C   UNL d   1     -44.523  13.362  21.698  0.00  0.00     0.023 A 
ATOM      7  C   UNL d   1     -43.788  13.455  21.338  0.00  0.00     0.029 A 
BRANCH   5   8
ATOM      8  C   UNL d   1     -45.405  12.614  22.540  0.00  0.00     0.022 A 
ATOM      9  C   UNL d   1     -45.545  11.964  23.026  0.00  0.00     0.022 A 
ATOM     10  C   UNL d   1     -46.283  11.870  23.388  0.00  0.00     0.099 A 
ATOM     11  N   UNL d   1     -46.881  12.431  23.261  0.00  0.00    -0.242 NA
ATOM     12  C   UNL d   1     -46.739  13.083  22.772  0.00  0.00     0.099 A 
ATOM     13  C   UNL d   1     -46.004  13.175  22.412  0.00  0.00     0.022 A 
ENDBRANCH   5   8
ENDBRANCH   1   2
BRANCH   1  14
ATOM     14  C   UNL d   1     -42.154  13.749  20.945  0.00  0.00     0.099 C 
BRANCH  14  15
ATOM     15  C   UNL d   1     -41.401  13.841  20.624  0.00  0.00     0.286 C 
ATOM     16  N   UNL d   1     -41.312  14.040  19.819  0.00  0.00    -0.206 NA
ATOM     17  O   UNL d   1     -40.733  13.736  21.100  0.00  0.00    -0.265 OA
BRANCH  16  18
ATOM     18  C   UNL d   1     -40.559  14.132  19.497  0.00  0.00     0.104 C 
BRANCH  18  19
ATOM     19  C   UNL d   1     -40.469  14.419  18.723  0.00  0.00     0.042 A 
ATOM     20  C   UNL d   1     -39.917  14.076  18.217  0.00  0.00     0.096 A 
ATOM     21  C   UNL d   1     -39.827  14.361  17.447  0.00  0.00     0.024 A 
ATOM     22  C   UNL d   1     -40.291  14.989  17.183  0.00  0.00     0.002 A 
ATOM     23  C   UNL d   1     -40.844  15.332  17.689  0.00  0.00     0.000 A 
ATOM     24  C   UNL d   1     -40.933  15.047  18.459  0.00  0.00     0.004 A 
BRANCH  20  25
ATOM     25  O   UNL d   1     -39.445  13.435  18.492  0.00  0.00    -0.328 OA
ATOM     26  C   UNL d   1     -38.815  13.163  18.034  0.00  0.00     0.181 C 
ENDBRANCH  20  25
ENDBRANCH  18  19
ENDBRANCH  16  18
ENDBRANCH  14  15
ENDBRANCH   1  14
TORSDOF 7
ENDMDL
MODEL 5
REMARK VINA RESULT:      -3.6      3.902      7.034
REMARK  7 active torsions:
REMARK  status: ('A' for Active; 'I' for Inactive)
REMARK    1  A    between atoms: S_8  and  C_3 
REMARK    2  A    between atoms: C_4  and  C_15 
REMARK       I    between atoms: N_7  and  C_4 
REMARK    3  A    between atoms: C_13  and  C_5 
REMARK    4  A    between atoms: C_6  and  C_9 
REMARK    5  A    between atoms: C_9  and  N_7 
REMARK    6  A    between atoms: C_15  and  S_8 
REMARK    7  A    between atoms: O_17  and  C_11 
ROOT
ATOM      1  S   UNL d   1     -47.659  12.404  23.226  0.00  0.00    -0.061 SA
ENDROOT
BRANCH   1   2
ATOM      2  C   UNL d   1     -46.899  12.063  23.245  0.00  0.00     0.133 A 
ATOM      3  N   UNL d   1     -46.253  12.452  22.908  0.00  0.00    -0.141 NA
ATOM      4  N   UNL d   1     -45.500  12.101  22.933  0.00  0.00    -0.148 NA
ATOM      5  C   UNL d   1     -45.397  11.368  23.294  0.00  0.00     0.103 A 
ATOM      6  C   UNL d   1     -46.042  10.978  23.632  0.00  0.00     0.023 A 
ATOM      7  C   UNL d   1     -46.790  11.322  23.609  0.00  0.00     0.029 A 
BRANCH   5   8
ATOM      8  C   UNL d   1     -44.648  11.023  23.317  0.00  0.00     0.022 A 
ATOM      9  C   UNL d   1     -44.546  10.287  23.673  0.00  0.00     0.022 A 
ATOM     10  C   UNL d   1     -43.795   9.940  23.698  0.00  0.00     0.099 A 
ATOM     11  N   UNL d   1     -43.145  10.334  23.363  0.00  0.00    -0.242 NA
ATOM     12  C   UNL d   1     -43.250  11.073  23.005  0.00  0.00     0.099 A 
ATOM     13  C   UNL d   1     -43.998  11.417  22.982  0.00  0.00     0.022 A 
ENDBRANCH   5   8
ENDBRANCH   1   2
BRANCH   1  14
ATOM     14  C   UNL d   1     -48.328  11.942  23.373  0.00  0.00     0.099 C 
BRANCH  14  15
ATOM     15  C   UNL d   1     -49.071  12.214  23.143  0.00  0.00     0.286 C 
ATOM     16  N   UNL d   1     -49.252  13.026  23.187  0.00  0.00    -0.206 NA
ATOM     17  O   UNL d   1     -49.639  11.679  22.867  0.00  0.00    -0.265 OA
BRANCH  16  18
ATOM     18  C   UNL d   1     -49.995  13.298  22.957  0.00  0.00     0.104 C 
BRANCH  18  19
ATOM     19  C   UNL d   1     -50.178  14.105  23.010  0.00  0.00     0.042 A 
ATOM     20  C   UNL d   1     -50.640  14.464  22.429  0.00  0.00     0.096 A 
ATOM     21  C   UNL d   1     -50.822  15.267  22.482  0.00  0.00     0.024 A 
ATOM     22  C   UNL d   1     -50.543  15.713  23.117  0.00  0.00     0.002 A 
ATOM     23  C   UNL d   1     -50.081  15.355  23.698  0.00  0.00     0.000 A 
ATOM     24  C   UNL d   1     -49.899  14.551  23.644  0.00  0.00     0.004 A 
BRANCH  20  25
ATOM     25  O   UNL d   1     -50.922  14.004  21.783  0.00  0.00    -0.328 OA
ATOM     26  C   UNL d   1     -51.060  14.364  21.053  0.00  0.00     0.181 C 
ENDBRANCH  20  25
ENDBRANCH  18  19
ENDBRANCH  16  18
ENDBRANCH  14  15
ENDBRANCH   1  14
TORSDOF 7
ENDMDL
