MODEL 1
REMARK VINA RESULT:      -8.5      0.000      0.000
REMARK  5 active torsions:
REMARK  status: ('A' for Active; 'I' for Inactive)
REMARK    1  A    between atoms: C_6  and  N_1 
REMARK    2  A    between atoms: C_11  and  C_6 
REMARK    3  A    between atoms: C_14  and  C_11 
REMARK    4  A    between atoms: C_12  and  O_13 
REMARK    5  A    between atoms: O_13  and  C_14 
ROOT
ATOM      1  C   UNL d   1      51.546  34.009  52.545  0.00  0.00     0.238 C 
ATOM      2  O   UNL d   1      51.978  34.709  52.606  0.00  0.00    -0.283 OA
ENDROOT
BRANCH   1   3
ATOM      3  C   UNL d   1      50.828  33.997  52.136  0.00  0.00     0.126 C 
BRANCH   3   4
ATOM      4  N   UNL d   1      50.186  34.446  52.414  0.00  0.00    -0.284 N 
ATOM      5  C   UNL d   1      50.116  34.789  53.158  0.00  0.00     0.183 A 
ATOM      6  N   UNL d   1      49.393  35.184  53.200  0.00  0.00    -0.224 NA
ATOM      7  C   UNL d   1      49.014  35.084  52.475  0.00  0.00     0.099 A 
ATOM      8  C   UNL d   1      49.499  34.630  51.987  0.00  0.00     0.083 A 
ATOM      9  C   UNL d   1      48.289  35.349  52.198  0.00  0.00     0.021 A 
ATOM     10  C   UNL d   1      49.260  34.440  51.220  0.00  0.00     0.019 A 
ATOM     11  C   UNL d   1      48.530  34.707  50.942  0.00  0.00     0.002 A 
ATOM     12  C   UNL d   1      48.040  35.164  51.431  0.00  0.00     0.002 A 
ENDBRANCH   3   4
ENDBRANCH   1   3
BRANCH   1  13
ATOM     13  C   UNL d   1      51.835  33.307  52.897  0.00  0.00     0.166 C 
BRANCH  13  14
ATOM     14  O   UNL d   1      52.518  32.929  52.582  0.00  0.00    -0.302 OA
BRANCH  14  15
ATOM     15  C   UNL d   1      52.838  32.243  52.936  0.00  0.00     0.100 A 
ATOM     16  C   UNL d   1      52.519  31.515  52.768  0.00  0.00     0.025 A 
ATOM     17  C   UNL d   1      52.838  30.830  53.122  0.00  0.00     0.002 A 
ATOM     18  C   UNL d   1      52.641  30.041  53.063  0.00  0.00     0.000 A 
ATOM     19  C   UNL d   1      53.473  30.898  53.639  0.00  0.00     0.000 A 
ATOM     20  C   UNL d   1      53.154  29.620  53.543  0.00  0.00     0.000 A 
ATOM     21  C   UNL d   1      53.666  30.147  53.897  0.00  0.00     0.000 A 
ATOM     22  C   UNL d   1      53.791  31.651  53.803  0.00  0.00     0.002 A 
ATOM     23  C   UNL d   1      53.473  32.311  53.453  0.00  0.00     0.025 A 
ENDBRANCH  14  15
ENDBRANCH  13  14
ENDBRANCH   1  13
TORSDOF 5
ENDMDL
MODEL 2
REMARK VINA RESULT:      -8.2      1.191      2.089
REMARK  5 active torsions:
REMARK  status: ('A' for Active; 'I' for Inactive)
REMARK    1  A    between atoms: C_6  and  N_1 
REMARK    2  A    between atoms: C_11  and  C_6 
REMARK    3  A    between atoms: C_14  and  C_11 
REMARK    4  A    between atoms: C_12  and  O_13 
REMARK    5  A    between atoms: O_13  and  C_14 
ROOT
ATOM      1  C   UNL d   1      50.644  34.277  52.324  0.00  0.00     0.238 C 
ATOM      2  O   UNL d   1      50.810  34.382  51.522  0.00  0.00    -0.283 OA
ENDROOT
BRANCH   1   3
ATOM      3  C   UNL d   1      49.963  34.608  52.655  0.00  0.00     0.126 C 
BRANCH   3   4
ATOM      4  N   UNL d   1      49.295  34.743  52.179  0.00  0.00    -0.284 N 
ATOM      5  C   UNL d   1      49.137  34.395  51.451  0.00  0.00     0.183 A 
ATOM      6  N   UNL d   1      48.417  34.685  51.171  0.00  0.00    -0.224 NA
ATOM      7  C   UNL d   1      48.130  35.217  51.732  0.00  0.00     0.099 A 
ATOM      8  C   UNL d   1      48.668  35.256  52.355  0.00  0.00     0.083 A 
ATOM      9  C   UNL d   1      47.446  35.670  51.753  0.00  0.00     0.021 A 
ATOM     10  C   UNL d   1      48.523  35.749  53.001  0.00  0.00     0.019 A 
ATOM     11  C   UNL d   1      47.836  36.204  53.021  0.00  0.00     0.002 A 
ATOM     12  C   UNL d   1      47.292  36.167  52.395  0.00  0.00     0.002 A 
ENDBRANCH   3   4
ENDBRANCH   1   3
BRANCH   1  13
ATOM     13  C   UNL d   1      51.167  33.835  52.805  0.00  0.00     0.166 C 
BRANCH  13  14
ATOM     14  O   UNL d   1      51.999  33.939  52.727  0.00  0.00    -0.302 OA
BRANCH  14  15
ATOM     15  C   UNL d   1      52.536  33.527  53.217  0.00  0.00     0.100 A 
ATOM     16  C   UNL d   1      52.921  33.920  53.816  0.00  0.00     0.025 A 
ATOM     17  C   UNL d   1      53.457  33.508  54.305  0.00  0.00     0.002 A 
ATOM     18  C   UNL d   1      53.915  33.745  54.936  0.00  0.00     0.000 A 
ATOM     19  C   UNL d   1      53.591  32.708  54.177  0.00  0.00     0.000 A 
ATOM     20  C   UNL d   1      54.334  33.093  55.199  0.00  0.00     0.000 A 
ATOM     21  C   UNL d   1      54.135  32.454  54.732  0.00  0.00     0.000 A 
ATOM     22  C   UNL d   1      53.190  32.316  53.559  0.00  0.00     0.002 A 
ATOM     23  C   UNL d   1      52.670  32.727  53.089  0.00  0.00     0.025 A 
ENDBRANCH  14  15
ENDBRANCH  13  14
ENDBRANCH   1  13
TORSDOF 5
ENDMDL
MODEL 3
REMARK VINA RESULT:      -8.2      1.777      5.509
REMARK  5 active torsions:
REMARK  status: ('A' for Active; 'I' for Inactive)
REMARK    1  A    between atoms: C_6  and  N_1 
REMARK    2  A    between atoms: C_11  and  C_6 
REMARK    3  A    between atoms: C_14  and  C_11 
REMARK    4  A    between atoms: C_12  and  O_13 
REMARK    5  A    between atoms: O_13  and  C_14 
ROOT
ATOM      1  C   UNL d   1      51.482  34.203  52.861  0.00  0.00     0.238 C 
ATOM      2  O   UNL d   1      51.863  34.389  52.153  0.00  0.00    -0.283 OA
ENDROOT
BRANCH   1   3
ATOM      3  C   UNL d   1      51.868  33.753  53.437  0.00  0.00     0.126 C 
BRANCH   3   4
ATOM      4  N   UNL d   1      52.512  34.076  53.851  0.00  0.00    -0.284 N 
ATOM      5  C   UNL d   1      52.664  34.876  53.970  0.00  0.00     0.183 A 
ATOM      6  N   UNL d   1      53.359  34.950  54.409  0.00  0.00    -0.224 NA
ATOM      7  C   UNL d   1      53.637  34.190  54.562  0.00  0.00     0.099 A 
ATOM      8  C   UNL d   1      53.118  33.648  54.220  0.00  0.00     0.083 A 
ATOM      9  C   UNL d   1      54.297  33.923  54.970  0.00  0.00     0.021 A 
ATOM     10  C   UNL d   1      53.259  32.837  54.285  0.00  0.00     0.019 A 
ATOM     11  C   UNL d   1      53.923  32.569  54.696  0.00  0.00     0.002 A 
ATOM     12  C   UNL d   1      54.447  33.113  55.041  0.00  0.00     0.002 A 
ENDBRANCH   3   4
ENDBRANCH   1   3
BRANCH   1  13
ATOM     13  C   UNL d   1      50.701  34.470  52.998  0.00  0.00     0.166 C 
BRANCH  13  14
ATOM     14  O   UNL d   1      50.123  34.412  52.388  0.00  0.00    -0.302 OA
BRANCH  14  15
ATOM     15  C   UNL d   1      49.402  34.832  52.430  0.00  0.00     0.100 A 
ATOM     16  C   UNL d   1      48.897  34.833  51.794  0.00  0.00     0.025 A 
ATOM     17  C   UNL d   1      48.177  35.253  51.837  0.00  0.00     0.002 A 
ATOM     18  C   UNL d   1      47.570  35.355  51.301  0.00  0.00     0.000 A 
ATOM     19  C   UNL d   1      47.986  35.663  52.522  0.00  0.00     0.000 A 
ATOM     20  C   UNL d   1      47.003  35.827  51.655  0.00  0.00     0.000 A 
ATOM     21  C   UNL d   1      47.258  36.017  52.406  0.00  0.00     0.000 A 
ATOM     22  C   UNL d   1      48.513  35.654  53.168  0.00  0.00     0.002 A 
ATOM     23  C   UNL d   1      49.211  35.242  53.116  0.00  0.00     0.025 A 
ENDBRANCH  14  15
ENDBRANCH  13  14
ENDBRANCH   1  13
TORSDOF 5
ENDMDL
MODEL 4
REMARK VINA RESULT:      -8.0      1.585      5.556
REMARK  5 active torsions:
REMARK  status: ('A' for Active; 'I' for Inactive)
REMARK    1  A    between atoms: C_6  and  N_1 
REMARK    2  A    between atoms: C_11  and  C_6 
REMARK    3  A    between atoms: C_14  and  C_11 
REMARK    4  A    between atoms: C_12  and  O_13 
REMARK    5  A    between atoms: O_13  and  C_14 
ROOT
ATOM      1  C   UNL d   1      51.343  34.068  52.624  0.00  0.00     0.238 C 
ATOM      2  O   UNL d   1      51.641  33.879  51.877  0.00  0.00    -0.283 OA
ENDROOT
BRANCH   1   3
ATOM      3  C   UNL d   1      51.840  34.061  53.284  0.00  0.00     0.126 C 
BRANCH   3   4
ATOM      4  N   UNL d   1      52.355  33.420  53.408  0.00  0.00    -0.284 N 
ATOM      5  C   UNL d   1      52.329  32.693  53.025  0.00  0.00     0.183 A 
ATOM      6  N   UNL d   1      52.941  32.221  53.315  0.00  0.00    -0.224 NA
ATOM      7  C   UNL d   1      53.346  32.661  53.882  0.00  0.00     0.099 A 
ATOM      8  C   UNL d   1      52.988  33.401  53.942  0.00  0.00     0.083 A 
ATOM      9  C   UNL d   1      53.995  32.481  54.350  0.00  0.00     0.021 A 
ATOM     10  C   UNL d   1      53.280  33.964  54.472  0.00  0.00     0.019 A 
ATOM     11  C   UNL d   1      53.933  33.782  54.942  0.00  0.00     0.002 A 
ATOM     12  C   UNL d   1      54.295  33.037  54.883  0.00  0.00     0.002 A 
ENDBRANCH   3   4
ENDBRANCH   1   3
BRANCH   1  13
ATOM     13  C   UNL d   1      50.535  34.267  52.713  0.00  0.00     0.166 C 
BRANCH  13  14
ATOM     14  O   UNL d   1      50.069  34.446  52.036  0.00  0.00    -0.302 OA
BRANCH  14  15
ATOM     15  C   UNL d   1      49.331  34.833  52.106  0.00  0.00     0.100 A 
ATOM     16  C   UNL d   1      49.157  35.252  52.780  0.00  0.00     0.025 A 
ATOM     17  C   UNL d   1      48.421  35.639  52.849  0.00  0.00     0.002 A 
ATOM     18  C   UNL d   1      48.095  36.091  53.444  0.00  0.00     0.000 A 
ATOM     19  C   UNL d   1      47.878  35.591  52.235  0.00  0.00     0.000 A 
ATOM     20  C   UNL d   1      47.349  36.325  53.199  0.00  0.00     0.000 A 
ATOM     21  C   UNL d   1      47.215  36.017  52.455  0.00  0.00     0.000 A 
ATOM     22  C   UNL d   1      48.069  35.158  51.549  0.00  0.00     0.002 A 
ATOM     23  C   UNL d   1      48.788  34.786  51.492  0.00  0.00     0.025 A 
ENDBRANCH  14  15
ENDBRANCH  13  14
ENDBRANCH   1  13
TORSDOF 5
ENDMDL
MODEL 5
REMARK VINA RESULT:      -5.9     10.396     11.159
REMARK  5 active torsions:
REMARK  status: ('A' for Active; 'I' for Inactive)
REMARK    1  A    between atoms: C_6  and  N_1 
REMARK    2  A    between atoms: C_11  and  C_6 
REMARK    3  A    between atoms: C_14  and  C_11 
REMARK    4  A    between atoms: C_12  and  O_13 
REMARK    5  A    between atoms: O_13  and  C_14 
ROOT
ATOM      1  C   UNL d   1      44.988  30.365  59.311  0.00  0.00     0.238 C 
ATOM      2  O   UNL d   1      45.011  31.095  58.926  0.00  0.00    -0.283 OA
ENDROOT
BRANCH   1   3
ATOM      3  C   UNL d   1      45.341  29.702  58.968  0.00  0.00     0.126 C 
BRANCH   3   4
ATOM      4  N   UNL d   1      45.055  29.408  58.245  0.00  0.00    -0.284 N 
ATOM      5  C   UNL d   1      44.650  29.836  57.672  0.00  0.00     0.183 A 
ATOM      6  N   UNL d   1      44.469  29.331  57.044  0.00  0.00    -0.224 NA
ATOM      7  C   UNL d   1      44.767  28.586  57.233  0.00  0.00     0.099 A 
ATOM      8  C   UNL d   1      45.129  28.629  57.973  0.00  0.00     0.083 A 
ATOM      9  C   UNL d   1      44.754  27.874  56.826  0.00  0.00     0.021 A 
ATOM     10  C   UNL d   1      45.479  27.959  58.306  0.00  0.00     0.019 A 
ATOM     11  C   UNL d   1      45.465  27.244  57.894  0.00  0.00     0.002 A 
ATOM     12  C   UNL d   1      45.101  27.198  57.150  0.00  0.00     0.002 A 
ENDBRANCH   3   4
ENDBRANCH   1   3
BRANCH   1  13
ATOM     13  C   UNL d   1      44.606  30.296  60.053  0.00  0.00     0.166 C 
BRANCH  13  14
ATOM     14  O   UNL d   1      44.692  30.905  60.628  0.00  0.00    -0.302 OA
BRANCH  14  15
ATOM     15  C   UNL d   1      44.603  30.747  61.444  0.00  0.00     0.100 A 
ATOM     16  C   UNL d   1      44.546  31.363  61.971  0.00  0.00     0.025 A 
ATOM     17  C   UNL d   1      44.457  31.205  62.785  0.00  0.00     0.002 A 
ATOM     18  C   UNL d   1      44.388  31.695  63.434  0.00  0.00     0.000 A 
ATOM     19  C   UNL d   1      44.428  30.428  63.048  0.00  0.00     0.000 A 
ATOM     20  C   UNL d   1      44.315  31.222  64.097  0.00  0.00     0.000 A 
ATOM     21  C   UNL d   1      44.339  30.441  63.861  0.00  0.00     0.000 A 
ATOM     22  C   UNL d   1      44.487  29.804  62.497  0.00  0.00     0.002 A 
ATOM     23  C   UNL d   1      44.573  29.970  61.706  0.00  0.00     0.025 A 
ENDBRANCH  14  15
ENDBRANCH  13  14
ENDBRANCH   1  13
TORSDOF 5
ENDMDL
MODEL 6
REMARK VINA RESULT:      -5.7      9.497     10.772
REMARK  5 active torsions:
REMARK  status: ('A' for Active; 'I' for Inactive)
REMARK    1  A    between atoms: C_6  and  N_1 
REMARK    2  A    between atoms: C_11  and  C_6 
REMARK    3  A    between atoms: C_14  and  C_11 
REMARK    4  A    between atoms: C_12  and  O_13 
REMARK    5  A    between atoms: O_13  and  C_14 
ROOT
ATOM      1  C   UNL d   1      45.324  27.298  57.946  0.00  0.00     0.238 C 
ATOM      2  O   UNL d   1      45.883  26.998  58.474  0.00  0.00    -0.283 OA
ENDROOT
BRANCH   1   3
ATOM      3  C   UNL d   1      45.060  26.837  57.313  0.00  0.00     0.126 C 
BRANCH   3   4
ATOM      4  N   UNL d   1      44.789  26.063  57.449  0.00  0.00    -0.284 N 
ATOM      5  C   UNL d   1      44.535  25.755  58.168  0.00  0.00     0.183 A 
ATOM      6  N   UNL d   1      44.315  24.968  58.055  0.00  0.00    -0.224 NA
ATOM      7  C   UNL d   1      44.434  24.790  57.259  0.00  0.00     0.099 A 
ATOM      8  C   UNL d   1      44.727  25.462  56.882  0.00  0.00     0.083 A 
ATOM      9  C   UNL d   1      44.314  24.101  56.831  0.00  0.00     0.021 A 
ATOM     10  C   UNL d   1      44.899  25.446  56.075  0.00  0.00     0.019 A 
ATOM     11  C   UNL d   1      44.778  24.752  55.645  0.00  0.00     0.002 A 
ATOM     12  C   UNL d   1      44.484  24.074  56.022  0.00  0.00     0.002 A 
ENDBRANCH   3   4
ENDBRANCH   1   3
BRANCH   1  13
ATOM     13  C   UNL d   1      45.023  28.072  58.050  0.00  0.00     0.166 C 
BRANCH  13  14
ATOM     14  O   UNL d   1      45.552  28.722  58.129  0.00  0.00    -0.302 OA
BRANCH  14  15
ATOM     15  C   UNL d   1      45.276  29.510  58.124  0.00  0.00     0.100 A 
ATOM     16  C   UNL d   1      45.052  29.856  57.423  0.00  0.00     0.025 A 
ATOM     17  C   UNL d   1      44.776  30.643  57.419  0.00  0.00     0.002 A 
ATOM     18  C   UNL d   1      44.518  31.129  56.816  0.00  0.00     0.000 A 
ATOM     19  C   UNL d   1      44.732  31.063  58.123  0.00  0.00     0.000 A 
ATOM     20  C   UNL d   1      44.314  31.849  57.148  0.00  0.00     0.000 A 
ATOM     21  C   UNL d   1      44.446  31.810  57.952  0.00  0.00     0.000 A 
ATOM     22  C   UNL d   1      44.965  30.697  58.835  0.00  0.00     0.002 A 
ATOM     23  C   UNL d   1      45.232  29.930  58.828  0.00  0.00     0.025 A 
ENDBRANCH  14  15
ENDBRANCH  13  14
ENDBRANCH   1  13
TORSDOF 5
ENDMDL
