MODEL 1
REMARK VINA RESULT:      77.7      0.000      0.000
REMARK  6 active torsions:
REMARK  status: ('A' for Active; 'I' for Inactive)
REMARK    1  A    between atoms: C_11  and  C_3 
REMARK    2  A    between atoms: C_12  and  C_4 
REMARK    3  A    between atoms: C_13  and  C_7 
REMARK    4  A    between atoms: N_15  and  C_11 
REMARK    5  A    between atoms: N_14  and  C_12 
REMARK    6  A    between atoms: O_24  and  C_21 
ROOT
ATOM      1  C   UNL d   1      45.262 -17.095  38.673  0.00  0.00     0.101 A 
ATOM      2  C   UNL d   1      45.924 -16.665  38.432  0.00  0.00     0.111 A 
ATOM      3  C   UNL d   1      45.902 -16.229  37.731  0.00  0.00     0.080 A 
ATOM      4  C   UNL d   1      44.558 -16.658  37.521  0.00  0.00     0.096 A 
ATOM      5  C   UNL d   1      45.291 -17.532  39.379  0.00  0.00     0.203 A 
ATOM      6  C   UNL d   1      44.579 -17.089  38.213  0.00  0.00     0.205 A 
ATOM      7  C   UNL d   1      45.977 -17.536  39.838  0.00  0.00     0.064 A 
ATOM      8  C   UNL d   1      45.221 -16.227  37.280  0.00  0.00     0.203 A 
ATOM      9  O   UNL d   1      46.620 -16.663  38.887  0.00  0.00    -0.305 OA
ATOM     10  C   UNL d   1      46.647 -17.101  39.595  0.00  0.00     0.126 A 
ATOM     11  O   UNL d   1      44.635 -17.958  39.618  0.00  0.00    -0.286 OA
ATOM     12  O   UNL d   1      43.916 -17.519  38.454  0.00  0.00    -0.286 OA
ATOM     13  O   UNL d   1      45.194 -15.788  36.572  0.00  0.00    -0.286 OA
ENDROOT
BRANCH   7  14
ATOM     14  C   UNL d   1      45.999 -17.972  40.539  0.00  0.00     0.005 A 
ATOM     15  C   UNL d   1      45.661 -17.654  41.225  0.00  0.00     0.002 A 
ATOM     16  C   UNL d   1      45.683 -18.089  41.925  0.00  0.00     0.024 A 
ATOM     17  C   UNL d   1      46.038 -18.835  41.943  0.00  0.00     0.094 A 
ATOM     18  C   UNL d   1      46.373 -19.146  41.256  0.00  0.00     0.024 A 
ATOM     19  C   UNL d   1      46.355 -18.717  40.552  0.00  0.00     0.002 A 
BRANCH  17  20
ATOM     20  O   UNL d   1      46.060 -19.271  42.644  0.00  0.00    -0.328 OA
ATOM     21  C   UNL d   1      46.560 -19.033  43.258  0.00  0.00     0.181 C 
ENDBRANCH  17  20
ENDBRANCH   7  14
BRANCH   3  22
ATOM     22  C   UNL d   1      46.569 -15.801  37.498  0.00  0.00     0.085 C 
BRANCH  22  23
ATOM     23  N   UNL d   1      46.488 -14.994  37.309  0.00  0.00    -0.302 N 
ATOM     24  C   UNL d   1      46.374 -14.440  37.913  0.00  0.00     0.080 A 
ATOM     25  C   UNL d   1      46.295 -13.645  37.723  0.00  0.00     0.019 A 
ATOM     26  C   UNL d   1      46.328 -13.398  36.931  0.00  0.00     0.003 A 
ATOM     27  C   UNL d   1      46.442 -13.952  36.334  0.00  0.00     0.019 A 
ATOM     28  C   UNL d   1      46.523 -14.752  36.516  0.00  0.00     0.080 A 
ENDBRANCH  22  23
ENDBRANCH   3  22
BRANCH   4  29
ATOM     29  C   UNL d   1      43.872 -16.653  37.062  0.00  0.00     0.087 C 
BRANCH  29  30
ATOM     30  N   UNL d   1      43.383 -15.988  37.055  0.00  0.00    -0.302 N 
ATOM     31  C   UNL d   1      43.076 -15.692  37.762  0.00  0.00     0.080 A 
ATOM     32  C   UNL d   1      42.587 -15.027  37.755  0.00  0.00     0.019 A 
ATOM     33  C   UNL d   1      42.403 -14.656  37.037  0.00  0.00     0.003 A 
ATOM     34  C   UNL d   1      42.709 -14.952  36.330  0.00  0.00     0.019 A 
ATOM     35  C   UNL d   1      43.198 -15.617  36.337  0.00  0.00     0.080 A 
ENDBRANCH  29  30
ENDBRANCH   4  29
TORSDOF 6
ENDMDL
MODEL 2
REMARK VINA RESULT:      78.9      3.053      5.904
REMARK  6 active torsions:
REMARK  status: ('A' for Active; 'I' for Inactive)
REMARK    1  A    between atoms: C_11  and  C_3 
REMARK    2  A    between atoms: C_12  and  C_4 
REMARK    3  A    between atoms: C_13  and  C_7 
REMARK    4  A    between atoms: N_15  and  C_11 
REMARK    5  A    between atoms: N_14  and  C_12 
REMARK    6  A    between atoms: O_24  and  C_21 
ROOT
ATOM      1  C   UNL d   1      46.335 -17.373  42.864  0.00  0.00     0.101 A 
ATOM      2  C   UNL d   1      46.341 -17.284  42.043  0.00  0.00     0.111 A 
ATOM      3  C   UNL d   1      46.445 -17.942  41.556  0.00  0.00     0.080 A 
ATOM      4  C   UNL d   1      46.534 -18.770  42.714  0.00  0.00     0.096 A 
ATOM      5  C   UNL d   1      46.230 -16.706  43.349  0.00  0.00     0.203 A 
ATOM      6  C   UNL d   1      46.431 -18.120  43.196  0.00  0.00     0.205 A 
ATOM      7  C   UNL d   1      46.133 -15.958  43.013  0.00  0.00     0.064 A 
ATOM      8  C   UNL d   1      46.540 -18.681  41.893  0.00  0.00     0.203 A 
ATOM      9  O   UNL d   1      46.245 -16.535  41.695  0.00  0.00    -0.305 OA
ATOM     10  C   UNL d   1      46.140 -15.868  42.182  0.00  0.00     0.126 A 
ATOM     11  O   UNL d   1      46.223 -16.794  44.162  0.00  0.00    -0.286 OA
ATOM     12  O   UNL d   1      46.425 -18.210  44.018  0.00  0.00    -0.286 OA
ATOM     13  O   UNL d   1      46.645 -19.348  41.405  0.00  0.00    -0.286 OA
ENDROOT
BRANCH   7  14
ATOM     14  C   UNL d   1      46.030 -15.300  43.500  0.00  0.00     0.005 A 
ATOM     15  C   UNL d   1      46.010 -14.544  43.161  0.00  0.00     0.002 A 
ATOM     16  C   UNL d   1      45.906 -13.886  43.647  0.00  0.00     0.024 A 
ATOM     17  C   UNL d   1      45.824 -13.978  44.464  0.00  0.00     0.094 A 
ATOM     18  C   UNL d   1      45.845 -14.734  44.794  0.00  0.00     0.024 A 
ATOM     19  C   UNL d   1      45.948 -15.397  44.316  0.00  0.00     0.002 A 
BRANCH  17  20
ATOM     20  O   UNL d   1      45.720 -13.320  44.951  0.00  0.00    -0.328 OA
ATOM     21  C   UNL d   1      45.873 -12.564  44.653  0.00  0.00     0.181 C 
ENDBRANCH  17  20
ENDBRANCH   7  14
BRANCH   3  22
ATOM     22  C   UNL d   1      46.450 -17.844  40.736  0.00  0.00     0.085 C 
BRANCH  22  23
ATOM     23  N   UNL d   1      45.729 -17.867  40.319  0.00  0.00    -0.302 N 
ATOM     24  C   UNL d   1      45.725 -17.762  39.499  0.00  0.00     0.080 A 
ATOM     25  C   UNL d   1      45.013 -17.786  39.092  0.00  0.00     0.019 A 
ATOM     26  C   UNL d   1      44.301 -17.914  39.500  0.00  0.00     0.003 A 
ATOM     27  C   UNL d   1      44.309 -18.018  40.316  0.00  0.00     0.019 A 
ATOM     28  C   UNL d   1      45.021 -17.996  40.732  0.00  0.00     0.080 A 
ENDBRANCH  22  23
ENDBRANCH   3  22
BRANCH   4  29
ATOM     29  C   UNL d   1      46.630 -19.518  43.050  0.00  0.00     0.087 C 
BRANCH  29  30
ATOM     30  N   UNL d   1      46.097 -19.788  43.620  0.00  0.00    -0.302 N 
ATOM     31  C   UNL d   1      46.362 -19.975  44.379  0.00  0.00     0.080 A 
ATOM     32  C   UNL d   1      45.828 -20.245  44.949  0.00  0.00     0.019 A 
ATOM     33  C   UNL d   1      45.026 -20.329  44.759  0.00  0.00     0.003 A 
ATOM     34  C   UNL d   1      44.761 -20.141  44.000  0.00  0.00     0.019 A 
ATOM     35  C   UNL d   1      45.295 -19.871  43.430  0.00  0.00     0.080 A 
ENDBRANCH  29  30
ENDBRANCH   4  29
TORSDOF 6
ENDMDL
MODEL 3
REMARK VINA RESULT:      80.3      0.595      2.670
REMARK  6 active torsions:
REMARK  status: ('A' for Active; 'I' for Inactive)
REMARK    1  A    between atoms: C_11  and  C_3 
REMARK    2  A    between atoms: C_12  and  C_4 
REMARK    3  A    between atoms: C_13  and  C_7 
REMARK    4  A    between atoms: N_15  and  C_11 
REMARK    5  A    between atoms: N_14  and  C_12 
REMARK    6  A    between atoms: O_24  and  C_21 
ROOT
ATOM      1  C   UNL d   1      45.375 -16.784  38.405  0.00  0.00     0.101 A 
ATOM      2  C   UNL d   1      44.600 -16.919  38.155  0.00  0.00     0.111 A 
ATOM      3  C   UNL d   1      44.321 -16.565  37.463  0.00  0.00     0.080 A 
ATOM      4  C   UNL d   1      45.593 -15.947  37.280  0.00  0.00     0.096 A 
ATOM      5  C   UNL d   1      45.649 -17.144  39.103  0.00  0.00     0.203 A 
ATOM      6  C   UNL d   1      45.870 -16.296  37.964  0.00  0.00     0.205 A 
ATOM      7  C   UNL d   1      45.151 -17.633  39.543  0.00  0.00     0.064 A 
ATOM      8  C   UNL d   1      44.818 -16.082  37.030  0.00  0.00     0.203 A 
ATOM      9  O   UNL d   1      44.090 -17.410  38.592  0.00  0.00    -0.305 OA
ATOM     10  C   UNL d   1      44.367 -17.769  39.290  0.00  0.00     0.126 A 
ATOM     11  O   UNL d   1      46.417 -17.011  39.351  0.00  0.00    -0.286 OA
ATOM     12  O   UNL d   1      46.645 -16.162  38.214  0.00  0.00    -0.286 OA
ATOM     13  O   UNL d   1      44.540 -15.723  36.331  0.00  0.00    -0.286 OA
ENDROOT
BRANCH   7  14
ATOM     14  C   UNL d   1      45.430 -17.987  40.235  0.00  0.00     0.005 A 
ATOM     15  C   UNL d   1      46.049 -18.535  40.188  0.00  0.00     0.002 A 
ATOM     16  C   UNL d   1      46.328 -18.889  40.878  0.00  0.00     0.024 A 
ATOM     17  C   UNL d   1      45.994 -18.699  41.611  0.00  0.00     0.094 A 
ATOM     18  C   UNL d   1      45.378 -18.152  41.649  0.00  0.00     0.024 A 
ATOM     19  C   UNL d   1      45.093 -17.793  40.964  0.00  0.00     0.002 A 
BRANCH  17  20
ATOM     20  O   UNL d   1      46.274 -19.053  42.301  0.00  0.00    -0.328 OA
ATOM     21  C   UNL d   1      45.895 -18.902  43.021  0.00  0.00     0.181 C 
ENDBRANCH  17  20
ENDBRANCH   7  14
BRANCH   3  22
ATOM     22  C   UNL d   1      43.544 -16.705  37.220  0.00  0.00     0.085 C 
BRANCH  22  23
ATOM     23  N   UNL d   1      43.012 -16.066  37.172  0.00  0.00    -0.302 N 
ATOM     24  C   UNL d   1      42.971 -15.519  37.791  0.00  0.00     0.080 A 
ATOM     25  C   UNL d   1      42.445 -14.890  37.741  0.00  0.00     0.019 A 
ATOM     26  C   UNL d   1      41.958 -14.804  37.074  0.00  0.00     0.003 A 
ATOM     27  C   UNL d   1      42.002 -15.350  36.461  0.00  0.00     0.019 A 
ATOM     28  C   UNL d   1      42.527 -15.984  36.504  0.00  0.00     0.080 A 
ENDBRANCH  22  23
ENDBRANCH   3  22
BRANCH   4  29
ATOM     29  C   UNL d   1      46.092 -15.459  36.840  0.00  0.00     0.087 C 
BRANCH  29  30
ATOM     30  N   UNL d   1      46.095 -14.643  36.973  0.00  0.00    -0.302 N 
ATOM     31  C   UNL d   1      46.560 -14.150  36.502  0.00  0.00     0.080 A 
ATOM     32  C   UNL d   1      46.564 -13.334  36.634  0.00  0.00     0.019 A 
ATOM     33  C   UNL d   1      46.101 -13.011  37.241  0.00  0.00     0.003 A 
ATOM     34  C   UNL d   1      45.636 -13.505  37.712  0.00  0.00     0.019 A 
ATOM     35  C   UNL d   1      45.633 -14.320  37.579  0.00  0.00     0.080 A 
ENDBRANCH  29  30
ENDBRANCH   4  29
TORSDOF 6
ENDMDL
