MODEL 1
REMARK VINA RESULT:      -7.9      0.000      0.000
REMARK  6 active torsions:
REMARK  status: ('A' for Active; 'I' for Inactive)
REMARK    1  A    between atoms: N_2  and  C_1 
REMARK       I    between atoms: C_4  and  N_2 
REMARK    2  A    between atoms: C_21  and  N_2 
REMARK    3  A    between atoms: C_6  and  C_4 
REMARK    4  A    between atoms: C_23  and  C_21 
REMARK    5  A    between atoms: C_25  and  C_23 
REMARK    6  A    between atoms: N_24  and  C_25 
ROOT
ATOM      1  N   UNL d   1      52.717  33.524  53.544  0.00  0.00    -0.252 N 
ATOM      2  C   UNL d   1      52.997  34.022  54.144  0.00  0.00     0.272 C 
ATOM      3  O   UNL d   1      52.598  34.709  54.334  0.00  0.00    -0.266 OA
ENDROOT
BRANCH   1   4
ATOM      4  C   UNL d   1      52.020  33.734  53.134  0.00  0.00     0.182 A 
ATOM      5  N   UNL d   1      51.960  33.856  52.318  0.00  0.00    -0.222 NA
ATOM      6  C   UNL d   1      51.174  34.054  52.143  0.00  0.00     0.092 A 
ATOM      7  C   UNL d   1      50.803  34.230  51.442  0.00  0.00     0.046 A 
ATOM      8  C   UNL d   1      50.753  34.053  52.852  0.00  0.00     0.052 A 
ATOM      9  C   UNL d   1      49.998  34.411  51.428  0.00  0.00     0.121 A 
ATOM     10  O   UNL d   1      49.484  34.605  50.827  0.00  0.00    -0.299 OA
ATOM     11  C   UNL d   1      49.580  34.409  52.134  0.00  0.00     0.120 A 
ATOM     12  C   UNL d   1      48.742  34.726  51.158  0.00  0.00     0.304 A 
ATOM     13  O   UNL d   1      48.796  34.606  51.963  0.00  0.00    -0.300 OA
ATOM     14  C   UNL d   1      49.952  34.231  52.849  0.00  0.00     0.034 A 
ATOM     15  S   UNL d   1      51.271  33.855  53.468  0.00  0.00    -0.048 SA
ENDBRANCH   1   4
BRANCH   1  16
ATOM     16  C   UNL d   1      53.120  32.830  53.352  0.00  0.00     0.086 C 
BRANCH  16  17
ATOM     17  C   UNL d   1      52.706  32.112  53.307  0.00  0.00     0.038 C 
BRANCH  17  18
ATOM     18  C   UNL d   1      53.044  31.467  52.917  0.00  0.00     0.082 C 
BRANCH  18  19
ATOM     19  N   UNL d   1      52.918  30.702  53.196  0.00  0.00    -0.300 N 
ATOM     20  C   UNL d   1      53.551  30.262  53.488  0.00  0.00     0.100 C 
ATOM     21  C   UNL d   1      52.159  30.378  53.185  0.00  0.00     0.100 C 
ENDBRANCH  18  19
ENDBRANCH  17  18
ENDBRANCH  16  17
ENDBRANCH   1  16
BRANCH   2  22
ATOM     22  C   UNL d   1      53.688  33.811  54.548  0.00  0.00     0.087 A 
ATOM     23  S   UNL d   1      54.469  34.033  54.355  0.00  0.00    -0.071 SA
ATOM     24  C   UNL d   1      54.973  33.690  54.917  0.00  0.00     0.087 A 
ATOM     25 CL   UNL d   1      55.813  33.761  54.945  0.00  0.00    -0.075 Cl
ATOM     26  C   UNL d   1      54.511  33.265  55.445  0.00  0.00     0.019 A 
ATOM     27  C   UNL d   1      53.725  33.337  55.223  0.00  0.00     0.013 A 
ENDBRANCH   2  22
TORSDOF 6
ENDMDL
MODEL 2
REMARK VINA RESULT:      -6.3      1.837      2.939
REMARK  6 active torsions:
REMARK  status: ('A' for Active; 'I' for Inactive)
REMARK    1  A    between atoms: N_2  and  C_1 
REMARK       I    between atoms: C_4  and  N_2 
REMARK    2  A    between atoms: C_21  and  N_2 
REMARK    3  A    between atoms: C_6  and  C_4 
REMARK    4  A    between atoms: C_23  and  C_21 
REMARK    5  A    between atoms: C_25  and  C_23 
REMARK    6  A    between atoms: N_24  and  C_25 
ROOT
ATOM      1  N   UNL d   1      52.671  31.782  53.355  0.00  0.00    -0.252 N 
ATOM      2  C   UNL d   1      52.426  30.992  53.332  0.00  0.00     0.272 C 
ATOM      3  O   UNL d   1      51.656  30.800  53.139  0.00  0.00    -0.266 OA
ENDROOT
BRANCH   1   4
ATOM      4  C   UNL d   1      52.119  32.384  53.178  0.00  0.00     0.182 A 
ATOM      5  N   UNL d   1      51.542  32.676  53.694  0.00  0.00    -0.222 NA
ATOM      6  C   UNL d   1      51.115  33.265  53.298  0.00  0.00     0.092 A 
ATOM      7  C   UNL d   1      50.494  33.734  53.533  0.00  0.00     0.046 A 
ATOM      8  C   UNL d   1      51.431  33.335  52.540  0.00  0.00     0.052 A 
ATOM      9  C   UNL d   1      50.169  34.288  53.014  0.00  0.00     0.121 A 
ATOM     10  O   UNL d   1      49.559  34.823  53.087  0.00  0.00    -0.299 OA
ATOM     11  C   UNL d   1      50.483  34.356  52.260  0.00  0.00     0.120 A 
ATOM     12  C   UNL d   1      49.492  35.228  52.375  0.00  0.00     0.304 A 
ATOM     13  O   UNL d   1      50.059  34.944  51.863  0.00  0.00    -0.300 OA
ATOM     14  C   UNL d   1      51.115  33.882  52.017  0.00  0.00     0.034 A 
ATOM     15  S   UNL d   1      52.051  32.793  52.459  0.00  0.00    -0.048 SA
ENDBRANCH   1   4
BRANCH   1  16
ATOM     16  C   UNL d   1      53.449  31.976  53.551  0.00  0.00     0.086 C 
BRANCH  16  17
ATOM     17  C   UNL d   1      53.598  32.576  54.106  0.00  0.00     0.038 C 
BRANCH  17  18
ATOM     18  C   UNL d   1      54.374  32.821  54.247  0.00  0.00     0.082 C 
BRANCH  18  19
ATOM     19  N   UNL d   1      54.541  33.320  54.881  0.00  0.00    -0.300 N 
ATOM     20  C   UNL d   1      54.789  34.093  54.739  0.00  0.00     0.100 C 
ATOM     21  C   UNL d   1      54.459  33.048  55.655  0.00  0.00     0.100 C 
ENDBRANCH  18  19
ENDBRANCH  17  18
ENDBRANCH  16  17
ENDBRANCH   1  16
BRANCH   2  22
ATOM     22  C   UNL d   1      52.976  30.398  53.509  0.00  0.00     0.087 A 
ATOM     23  S   UNL d   1      52.945  29.859  54.146  0.00  0.00    -0.071 SA
ATOM     24  C   UNL d   1      53.614  29.372  54.096  0.00  0.00     0.087 A 
ATOM     25 CL   UNL d   1      53.817  28.746  54.622  0.00  0.00    -0.075 Cl
ATOM     26  C   UNL d   1      54.047  29.607  53.439  0.00  0.00     0.019 A 
ATOM     27  C   UNL d   1      53.661  30.233  53.079  0.00  0.00     0.013 A 
ENDBRANCH   2  22
TORSDOF 6
ENDMDL
MODEL 3
REMARK VINA RESULT:      -5.2      1.646      2.825
REMARK  6 active torsions:
REMARK  status: ('A' for Active; 'I' for Inactive)
REMARK    1  A    between atoms: N_2  and  C_1 
REMARK       I    between atoms: C_4  and  N_2 
REMARK    2  A    between atoms: C_21  and  N_2 
REMARK    3  A    between atoms: C_6  and  C_4 
REMARK    4  A    between atoms: C_23  and  C_21 
REMARK    5  A    between atoms: C_25  and  C_23 
REMARK    6  A    between atoms: N_24  and  C_25 
ROOT
ATOM      1  N   UNL d   1      51.705  33.538  52.961  0.00  0.00    -0.252 N 
ATOM      2  C   UNL d   1      51.710  32.710  52.965  0.00  0.00     0.272 C 
ATOM      3  O   UNL d   1      51.027  32.290  52.810  0.00  0.00    -0.266 OA
ENDROOT
BRANCH   1   4
ATOM      4  C   UNL d   1      50.991  33.939  52.796  0.00  0.00     0.182 A 
ATOM      5  N   UNL d   1      50.496  34.292  53.357  0.00  0.00    -0.222 NA
ATOM      6  C   UNL d   1      49.851  34.628  52.959  0.00  0.00     0.092 A 
ATOM      7  C   UNL d   1      49.203  35.038  53.228  0.00  0.00     0.046 A 
ATOM      8  C   UNL d   1      49.951  34.481  52.154  0.00  0.00     0.052 A 
ATOM      9  C   UNL d   1      48.634  35.315  52.697  0.00  0.00     0.121 A 
ATOM     10  O   UNL d   1      47.942  35.733  52.796  0.00  0.00    -0.299 OA
ATOM     11  C   UNL d   1      48.735  35.169  51.897  0.00  0.00     0.120 A 
ATOM     12  C   UNL d   1      47.608  35.848  52.054  0.00  0.00     0.304 A 
ATOM     13  O   UNL d   1      48.093  35.502  51.497  0.00  0.00    -0.300 OA
ATOM     14  C   UNL d   1      49.392  34.752  51.619  0.00  0.00     0.034 A 
ATOM     15  S   UNL d   1      50.654  34.056  52.047  0.00  0.00    -0.048 SA
ENDBRANCH   1   4
BRANCH   1  16
ATOM     16  C   UNL d   1      52.395  33.963  53.117  0.00  0.00     0.086 C 
BRANCH  16  17
ATOM     17  C   UNL d   1      52.392  34.553  53.701  0.00  0.00     0.038 C 
BRANCH  17  18
ATOM     18  C   UNL d   1      53.063  35.022  53.814  0.00  0.00     0.082 C 
BRANCH  18  19
ATOM     19  N   UNL d   1      53.186  35.399  54.536  0.00  0.00    -0.300 N 
ATOM     20  C   UNL d   1      52.952  36.183  54.634  0.00  0.00     0.100 C 
ATOM     21  C   UNL d   1      53.543  34.994  55.159  0.00  0.00     0.100 C 
ENDBRANCH  18  19
ENDBRANCH  17  18
ENDBRANCH  16  17
ENDBRANCH   1  16
BRANCH   2  22
ATOM     22  C   UNL d   1      52.419  32.315  53.129  0.00  0.00     0.087 A 
ATOM     23  S   UNL d   1      52.579  31.825  53.785  0.00  0.00    -0.071 SA
ATOM     24  C   UNL d   1      53.360  31.555  53.712  0.00  0.00     0.087 A 
ATOM     25 CL   UNL d   1      53.765  31.044  54.246  0.00  0.00    -0.075 Cl
ATOM     26  C   UNL d   1      53.673  31.874  53.023  0.00  0.00     0.019 A 
ATOM     27  C   UNL d   1      53.101  32.339  52.664  0.00  0.00     0.013 A 
ENDBRANCH   2  22
TORSDOF 6
ENDMDL
MODEL 4
REMARK VINA RESULT:      -5.1      2.520      4.959
REMARK  6 active torsions:
REMARK  status: ('A' for Active; 'I' for Inactive)
REMARK    1  A    between atoms: N_2  and  C_1 
REMARK       I    between atoms: C_4  and  N_2 
REMARK    2  A    between atoms: C_21  and  N_2 
REMARK    3  A    between atoms: C_6  and  C_4 
REMARK    4  A    between atoms: C_23  and  C_21 
REMARK    5  A    between atoms: C_25  and  C_23 
REMARK    6  A    between atoms: N_24  and  C_25 
ROOT
ATOM      1  N   UNL d   1      52.458  32.333  53.341  0.00  0.00    -0.252 N 
ATOM      2  C   UNL d   1      51.686  32.458  53.068  0.00  0.00     0.272 C 
ATOM      3  O   UNL d   1      51.153  31.840  53.036  0.00  0.00    -0.266 OA
ENDROOT
BRANCH   1   4
ATOM      4  C   UNL d   1      52.685  31.568  53.584  0.00  0.00     0.182 A 
ATOM      5  N   UNL d   1      52.646  31.276  54.357  0.00  0.00    -0.222 NA
ATOM      6  C   UNL d   1      52.924  30.495  54.353  0.00  0.00     0.092 A 
ATOM      7  C   UNL d   1      53.009  29.948  54.949  0.00  0.00     0.046 A 
ATOM      8  C   UNL d   1      53.134  30.309  53.579  0.00  0.00     0.052 A 
ATOM      9  C   UNL d   1      53.306  29.195  54.786  0.00  0.00     0.121 A 
ATOM     10  O   UNL d   1      53.452  28.545  55.253  0.00  0.00    -0.299 OA
ATOM     11  C   UNL d   1      53.514  29.011  54.014  0.00  0.00     0.120 A 
ATOM     12  C   UNL d   1      53.752  27.950  54.772  0.00  0.00     0.304 A 
ATOM     13  O   UNL d   1      53.792  28.232  54.008  0.00  0.00    -0.300 OA
ATOM     14  C   UNL d   1      53.430  29.563  53.406  0.00  0.00     0.034 A 
ATOM     15  S   UNL d   1      52.988  30.967  53.098  0.00  0.00    -0.048 SA
ENDBRANCH   1   4
BRANCH   1  16
ATOM     16  C   UNL d   1      52.998  32.958  53.373  0.00  0.00     0.086 C 
BRANCH  16  17
ATOM     17  C   UNL d   1      53.439  33.085  54.065  0.00  0.00     0.038 C 
BRANCH  17  18
ATOM     18  C   UNL d   1      54.058  33.632  54.061  0.00  0.00     0.082 C 
BRANCH  18  19
ATOM     19  N   UNL d   1      54.350  33.931  54.771  0.00  0.00    -0.300 N 
ATOM     20  C   UNL d   1      53.929  34.512  55.175  0.00  0.00     0.100 C 
ATOM     21  C   UNL d   1      55.063  33.648  55.076  0.00  0.00     0.100 C 
ENDBRANCH  18  19
ENDBRANCH  17  18
ENDBRANCH  16  17
ENDBRANCH   1  16
BRANCH   2  22
ATOM     22  C   UNL d   1      51.465  33.218  52.828  0.00  0.00     0.087 A 
ATOM     23  S   UNL d   1      50.880  33.703  53.175  0.00  0.00    -0.071 SA
ATOM     24  C   UNL d   1      50.855  34.412  52.746  0.00  0.00     0.087 A 
ATOM     25 CL   UNL d   1      50.349  35.069  52.894  0.00  0.00    -0.075 Cl
ATOM     26  C   UNL d   1      51.414  34.364  52.147  0.00  0.00     0.019 A 
ATOM     27  C   UNL d   1      51.788  33.636  52.194  0.00  0.00     0.013 A 
ENDBRANCH   2  22
TORSDOF 6
ENDMDL
