MODEL 1
REMARK VINA RESULT:      -3.7      0.000      0.000
REMARK  5 active torsions:
REMARK  status: ('A' for Active; 'I' for Inactive)
REMARK    1  A    between atoms: C_2  and  S_1 
REMARK    2  A    between atoms: N_3  and  S_1 
REMARK    3  A    between atoms: C_5  and  N_3 
REMARK    4  A    between atoms: C_14  and  C_9 
REMARK    5  A    between atoms: O_18  and  C_10 
ROOT
ATOM      1  C   UNL d   1      59.144  -0.611  29.296  0.00  0.00     0.128 A 
ATOM      2  C   UNL d   1      58.963  -1.419  29.343  0.00  0.00     0.015 A 
ATOM      3  C   UNL d   1      59.438  -1.969  28.952  0.00  0.00     0.001 A 
ATOM      4  C   UNL d   1      59.801  -0.363  28.857  0.00  0.00     0.106 A 
ATOM      5  C   UNL d   1      60.086  -1.721  28.520  0.00  0.00     0.002 A 
ATOM      6  C   UNL d   1      60.272  -0.919  28.469  0.00  0.00     0.025 A 
ENDROOT
BRANCH   1   7
ATOM      7  S   UNL d   1      58.673  -0.055  29.684  0.00  0.00     0.288 S 
ATOM      8  O   UNL d   1      59.219  -0.026  30.302  0.00  0.00    -0.198 OA
ATOM      9  O   UNL d   1      58.133  -0.091  29.063  0.00  0.00    -0.198 OA
BRANCH   7  10
ATOM     10  N   UNL d   1      58.199   0.499  30.066  0.00  0.00    -0.139 NA
BRANCH  10  11
ATOM     11  C   UNL d   1      57.830   0.298  30.775  0.00  0.00     0.175 A 
ATOM     12  N   UNL d   1      57.234  -0.271  30.782  0.00  0.00    -0.224 NA
ATOM     13  C   UNL d   1      56.863  -0.476  31.483  0.00  0.00     0.112 A 
ATOM     14  C   UNL d   1      57.085  -0.112  32.191  0.00  0.00     0.077 A 
ATOM     15  C   UNL d   1      57.682   0.457  32.184  0.00  0.00     0.016 A 
ATOM     16 CL   UNL d   1      56.717  -0.314  32.896  0.00  0.00    -0.081 Cl
ATOM     17  C   UNL d   1      58.055   0.664  31.483  0.00  0.00     0.041 A 
ENDBRANCH  10  11
ENDBRANCH   7  10
ENDBRANCH   1   7
BRANCH   4  18
ATOM     18  O   UNL d   1      59.980   0.435  28.810  0.00  0.00    -0.327 OA
ATOM     19  C   UNL d   1      60.684   0.682  28.457  0.00  0.00     0.181 C 
ENDBRANCH   4  18
BRANCH   3  20
ATOM     20  C   UNL d   1      59.253  -2.776  29.003  0.00  0.00     0.000 C 
ATOM     21  C   UNL d   1      58.507  -3.046  28.786  0.00  0.00     0.000 C 
ATOM     22  C   UNL d   1      59.821  -3.310  29.273  0.00  0.00     0.000 C 
ENDBRANCH   3  20
TORSDOF 5
ENDMDL
MODEL 2
REMARK VINA RESULT:      -2.4      0.925      2.118
REMARK  5 active torsions:
REMARK  status: ('A' for Active; 'I' for Inactive)
REMARK    1  A    between atoms: C_2  and  S_1 
REMARK    2  A    between atoms: N_3  and  S_1 
REMARK    3  A    between atoms: C_5  and  N_3 
REMARK    4  A    between atoms: C_14  and  C_9 
REMARK    5  A    between atoms: O_18  and  C_10 
ROOT
ATOM      1  C   UNL d   1      58.926  -0.829  29.646  0.00  0.00     0.128 A 
ATOM      2  C   UNL d   1      59.470  -0.210  29.742  0.00  0.00     0.015 A 
ATOM      3  C   UNL d   1      60.240  -0.293  29.460  0.00  0.00     0.001 A 
ATOM      4  C   UNL d   1      59.164  -1.527  29.266  0.00  0.00     0.106 A 
ATOM      5  C   UNL d   1      60.471  -0.983  29.086  0.00  0.00     0.002 A 
ATOM      6  C   UNL d   1      59.936  -1.602  28.986  0.00  0.00     0.025 A 
ENDROOT
BRANCH   1   7
ATOM      7  S   UNL d   1      58.154  -0.754  29.925  0.00  0.00     0.288 S 
ATOM      8  O   UNL d   1      57.944  -0.354  29.234  0.00  0.00    -0.198 OA
ATOM      9  O   UNL d   1      58.372  -1.153  30.612  0.00  0.00    -0.198 OA
BRANCH   7  10
ATOM     10  N   UNL d   1      57.384  -0.682  30.210  0.00  0.00    -0.139 NA
BRANCH  10  11
ATOM     11  C   UNL d   1      57.259  -0.397  30.973  0.00  0.00     0.175 A 
ATOM     12  N   UNL d   1      56.978  -0.901  31.561  0.00  0.00    -0.224 NA
ATOM     13  C   UNL d   1      56.851  -0.625  32.321  0.00  0.00     0.112 A 
ATOM     14  C   UNL d   1      57.005   0.166  32.505  0.00  0.00     0.077 A 
ATOM     15  C   UNL d   1      57.287   0.671  31.916  0.00  0.00     0.016 A 
ATOM     16 CL   UNL d   1      56.881   0.449  33.264  0.00  0.00    -0.081 Cl
ATOM     17  C   UNL d   1      57.414   0.396  31.154  0.00  0.00     0.041 A 
ENDBRANCH  10  11
ENDBRANCH   7  10
ENDBRANCH   1   7
BRANCH   4  18
ATOM     18  O   UNL d   1      58.627  -2.139  29.170  0.00  0.00    -0.327 OA
ATOM     19  C   UNL d   1      58.874  -2.861  28.856  0.00  0.00     0.181 C 
ENDBRANCH   4  18
BRANCH   3  20
ATOM     20  C   UNL d   1      60.780   0.330  29.560  0.00  0.00     0.000 C 
ATOM     21  C   UNL d   1      61.133   0.682  28.907  0.00  0.00     0.000 C 
ATOM     22  C   UNL d   1      60.961   0.596  30.319  0.00  0.00     0.000 C 
ENDBRANCH   3  20
TORSDOF 5
ENDMDL
MODEL 3
REMARK VINA RESULT:      -1.9      1.781      3.549
REMARK  5 active torsions:
REMARK  status: ('A' for Active; 'I' for Inactive)
REMARK    1  A    between atoms: C_2  and  S_1 
REMARK    2  A    between atoms: N_3  and  S_1 
REMARK    3  A    between atoms: C_5  and  N_3 
REMARK    4  A    between atoms: C_14  and  C_9 
REMARK    5  A    between atoms: O_18  and  C_10 
ROOT
ATOM      1  C   UNL d   1      58.692  -0.211  30.137  0.00  0.00     0.128 A 
ATOM      2  C   UNL d   1      57.960  -0.353  30.500  0.00  0.00     0.015 A 
ATOM      3  C   UNL d   1      57.774   0.024  31.210  0.00  0.00     0.001 A 
ATOM      4  C   UNL d   1      59.232   0.308  30.493  0.00  0.00     0.106 A 
ATOM      5  C   UNL d   1      58.308   0.535  31.558  0.00  0.00     0.002 A 
ATOM      6  C   UNL d   1      59.038   0.681  31.203  0.00  0.00     0.025 A 
ENDROOT
BRANCH   1   7
ATOM      7  S   UNL d   1      58.886  -0.584  29.427  0.00  0.00     0.288 S 
ATOM      8  O   UNL d   1      59.512  -0.969  29.801  0.00  0.00    -0.198 OA
ATOM      9  O   UNL d   1      58.257  -0.196  29.062  0.00  0.00    -0.198 OA
BRANCH   7  10
ATOM     10  N   UNL d   1      59.073  -0.953  28.715  0.00  0.00    -0.139 NA
BRANCH  10  11
ATOM     11  C   UNL d   1      58.999  -1.771  28.650  0.00  0.00     0.175 A 
ATOM     12  N   UNL d   1      58.252  -2.120  28.665  0.00  0.00    -0.224 NA
ATOM     13  C   UNL d   1      58.171  -2.932  28.601  0.00  0.00     0.112 A 
ATOM     14  C   UNL d   1      58.840  -3.410  28.521  0.00  0.00     0.077 A 
ATOM     15  C   UNL d   1      59.588  -3.061  28.506  0.00  0.00     0.016 A 
ATOM     16 CL   UNL d   1      58.765  -4.224  28.457  0.00  0.00    -0.081 Cl
ATOM     17  C   UNL d   1      59.672  -2.247  28.570  0.00  0.00     0.041 A 
ENDBRANCH  10  11
ENDBRANCH   7  10
ENDBRANCH   1   7
BRANCH   4  18
ATOM     18  O   UNL d   1      59.956   0.448  30.135  0.00  0.00    -0.327 OA
ATOM     19  C   UNL d   1      60.606   0.674  30.591  0.00  0.00     0.181 C 
ENDBRANCH   4  18
BRANCH   3  20
ATOM     20  C   UNL d   1      57.039  -0.122  31.568  0.00  0.00     0.000 C 
ATOM     21  C   UNL d   1      56.527   0.499  31.731  0.00  0.00     0.000 C 
ATOM     22  C   UNL d   1      56.825  -0.895  31.760  0.00  0.00     0.000 C 
ENDBRANCH   3  20
TORSDOF 5
ENDMDL
MODEL 4
REMARK VINA RESULT:      -1.3      1.636      3.716
REMARK  5 active torsions:
REMARK  status: ('A' for Active; 'I' for Inactive)
REMARK    1  A    between atoms: C_2  and  S_1 
REMARK    2  A    between atoms: N_3  and  S_1 
REMARK    3  A    between atoms: C_5  and  N_3 
REMARK    4  A    between atoms: C_14  and  C_9 
REMARK    5  A    between atoms: O_18  and  C_10 
ROOT
ATOM      1  C   UNL d   1      58.105   0.033  30.859  0.00  0.00     0.128 A 
ATOM      2  C   UNL d   1      57.368  -0.159  31.187  0.00  0.00     0.015 A 
ATOM      3  C   UNL d   1      57.190   0.072  31.959  0.00  0.00     0.001 A 
ATOM      4  C   UNL d   1      58.657   0.455  31.310  0.00  0.00     0.106 A 
ATOM      5  C   UNL d   1      57.737   0.488  32.401  0.00  0.00     0.002 A 
ATOM      6  C   UNL d   1      58.472   0.682  32.082  0.00  0.00     0.025 A 
ENDROOT
BRANCH   1   7
ATOM      7  S   UNL d   1      58.290  -0.195  30.087  0.00  0.00     0.288 S 
ATOM      8  O   UNL d   1      58.918  -0.648  30.372  0.00  0.00    -0.198 OA
ATOM      9  O   UNL d   1      57.661   0.260  29.811  0.00  0.00    -0.198 OA
BRANCH   7  10
ATOM     10  N   UNL d   1      58.469  -0.418  29.315  0.00  0.00    -0.139 NA
BRANCH  10  11
ATOM     11  C   UNL d   1      58.662  -1.203  29.154  0.00  0.00     0.175 A 
ATOM     12  N   UNL d   1      58.116  -1.801  29.306  0.00  0.00    -0.224 NA
ATOM     13  C   UNL d   1      58.301  -2.583  29.149  0.00  0.00     0.112 A 
ATOM     14  C   UNL d   1      59.039  -2.778  28.834  0.00  0.00     0.077 A 
ATOM     15  C   UNL d   1      59.586  -2.179  28.681  0.00  0.00     0.016 A 
ATOM     16 CL   UNL d   1      59.230  -3.560  28.674  0.00  0.00    -0.081 Cl
ATOM     17  C   UNL d   1      59.403  -1.395  28.838  0.00  0.00     0.041 A 
ENDBRANCH  10  11
ENDBRANCH   7  10
ENDBRANCH   1   7
BRANCH   4  18
ATOM     18  O   UNL d   1      59.386   0.644  30.986  0.00  0.00    -0.327 OA
ATOM     19  C   UNL d   1      60.055   0.681  31.466  0.00  0.00     0.181 C 
ENDBRANCH   4  18
BRANCH   3  20
ATOM     20  C   UNL d   1      56.451  -0.123  32.282  0.00  0.00     0.000 C 
ATOM     21  C   UNL d   1      56.252  -0.908  32.421  0.00  0.00     0.000 C 
ATOM     22  C   UNL d   1      55.914   0.477  32.464  0.00  0.00     0.000 C 
ENDBRANCH   3  20
TORSDOF 5
ENDMDL
MODEL 5
REMARK VINA RESULT:      -1.2      1.725      4.003
REMARK  5 active torsions:
REMARK  status: ('A' for Active; 'I' for Inactive)
REMARK    1  A    between atoms: C_2  and  S_1 
REMARK    2  A    between atoms: N_3  and  S_1 
REMARK    3  A    between atoms: C_5  and  N_3 
REMARK    4  A    between atoms: C_14  and  C_9 
REMARK    5  A    between atoms: O_18  and  C_10 
ROOT
ATOM      1  C   UNL d   1      57.377  -0.063  31.556  0.00  0.00     0.128 A 
ATOM      2  C   UNL d   1      56.678  -0.388  31.859  0.00  0.00     0.015 A 
ATOM      3  C   UNL d   1      56.500  -0.306  32.661  0.00  0.00     0.001 A 
ATOM      4  C   UNL d   1      57.894   0.343  32.063  0.00  0.00     0.106 A 
ATOM      5  C   UNL d   1      57.011   0.095  33.158  0.00  0.00     0.002 A 
ATOM      6  C   UNL d   1      57.709   0.421  32.863  0.00  0.00     0.025 A 
ENDROOT
BRANCH   1   7
ATOM      7  S   UNL d   1      57.562  -0.141  30.756  0.00  0.00     0.288 S 
ATOM      8  O   UNL d   1      57.560  -0.962  30.837  0.00  0.00    -0.198 OA
ATOM      9  O   UNL d   1      57.561   0.680  30.684  0.00  0.00    -0.198 OA
BRANCH   7  10
ATOM     10  N   UNL d   1      57.746  -0.212  29.956  0.00  0.00    -0.139 NA
BRANCH  10  11
ATOM     11  C   UNL d   1      58.239  -0.824  29.706  0.00  0.00     0.175 A 
ATOM     12  N   UNL d   1      57.992  -1.607  29.776  0.00  0.00    -0.224 NA
ATOM     13  C   UNL d   1      58.477  -2.219  29.530  0.00  0.00     0.112 A 
ATOM     14  C   UNL d   1      59.220  -2.055  29.209  0.00  0.00     0.077 A 
ATOM     15  C   UNL d   1      59.467  -1.271  29.139  0.00  0.00     0.016 A 
ATOM     16 CL   UNL d   1      59.710  -2.665  28.960  0.00  0.00    -0.081 Cl
ATOM     17  C   UNL d   1      58.983  -0.656  29.385  0.00  0.00     0.041 A 
ENDBRANCH  10  11
ENDBRANCH   7  10
ENDBRANCH   1   7
BRANCH   4  18
ATOM     18  O   UNL d   1      58.585   0.664  31.764  0.00  0.00    -0.327 OA
ATOM     19  C   UNL d   1      59.268   0.682  32.228  0.00  0.00     0.181 C 
ENDBRANCH   4  18
BRANCH   3  20
ATOM     20  C   UNL d   1      55.798  -0.633  32.958  0.00  0.00     0.000 C 
ATOM     21  C   UNL d   1      55.678  -1.446  32.940  0.00  0.00     0.000 C 
ATOM     22  C   UNL d   1      55.218  -0.139  33.273  0.00  0.00     0.000 C 
ENDBRANCH   3  20
TORSDOF 5
ENDMDL
