MODEL 1
REMARK VINA RESULT:      98.2      0.000      0.000
REMARK  5 active torsions:
REMARK  status: ('A' for Active; 'I' for Inactive)
REMARK    1  A    between atoms: N_2  and  S_1 
REMARK    2  A    between atoms: C_10  and  S_1 
REMARK    3  A    between atoms: C_4  and  C_3 
REMARK       I    between atoms: N_5  and  C_4 
REMARK    4  A    between atoms: C_6  and  N_5 
REMARK    5  A    between atoms: O_24  and  C_21 
ROOT
ATOM      1  N   UNL d   1     -51.929  25.360  34.249  0.00  0.00    -0.226 N 
ATOM      2  C   UNL d   1     -52.238  25.335  35.025  0.00  0.00     0.133 A 
ATOM      3  C   UNL d   1     -52.206  24.836  33.679  0.00  0.00     0.092 A 
ATOM      4  C   UNL d   1     -52.820  24.786  35.224  0.00  0.00     0.023 A 
ATOM      5  C   UNL d   1     -52.789  24.284  33.871  0.00  0.00     0.018 A 
ATOM      6  C   UNL d   1     -53.096  24.261  34.649  0.00  0.00     0.003 A 
ATOM      7  C   UNL d   1     -53.069  23.759  33.306  0.00  0.00     0.002 A 
ATOM      8  C   UNL d   1     -53.680  23.709  34.841  0.00  0.00     0.000 A 
ATOM      9  C   UNL d   1     -53.647  23.213  33.500  0.00  0.00     0.000 A 
ATOM     10  C   UNL d   1     -53.951  23.188  34.264  0.00  0.00     0.000 A 
ENDROOT
BRANCH   1  11
ATOM     11  S   UNL d   1     -51.339  25.920  34.059  0.00  0.00     0.271 S 
ATOM     12  O   UNL d   1     -51.903  26.370  33.673  0.00  0.00    -0.200 OA
ATOM     13  O   UNL d   1     -50.787  25.462  34.448  0.00  0.00    -0.200 OA
BRANCH  11  14
ATOM     14  C   UNL d   1     -50.762  26.472  33.872  0.00  0.00     0.104 A 
ATOM     15  C   UNL d   1     -50.006  26.217  33.653  0.00  0.00     0.015 A 
ATOM     16  C   UNL d   1     -49.429  26.770  33.465  0.00  0.00     0.025 A 
ATOM     17  C   UNL d   1     -49.599  27.578  33.494  0.00  0.00     0.094 A 
ATOM     18  C   UNL d   1     -50.353  27.824  33.713  0.00  0.00     0.025 A 
ATOM     19  C   UNL d   1     -50.940  27.273  33.903  0.00  0.00     0.015 A 
BRANCH  17  20
ATOM     20  O   UNL d   1     -49.022  28.130  33.307  0.00  0.00    -0.328 OA
ATOM     21  C   UNL d   1     -48.833  28.726  33.849  0.00  0.00     0.181 C 
ENDBRANCH  17  20
ENDBRANCH  11  14
ENDBRANCH   1  11
BRANCH   2  22
ATOM     22  C   UNL d   1     -51.955  25.866  35.598  0.00  0.00     0.298 C 
ATOM     23  N   UNL d   1     -51.929  25.637  36.388  0.00  0.00    -0.181 NA
ATOM     24  O   UNL d   1     -51.700  26.620  35.370  0.00  0.00    -0.264 OA
BRANCH  23  25
ATOM     25  C   UNL d   1     -51.650  26.161  36.959  0.00  0.00     0.197 A 
ATOM     26  N   UNL d   1     -51.086  26.879  36.935  0.00  0.00    -0.219 NA
ATOM     27  C   UNL d   1     -51.020  27.201  37.760  0.00  0.00     0.108 A 
ATOM     28  C   UNL d   1     -51.534  26.696  38.306  0.00  0.00     0.059 A 
ATOM     29  S   UNL d   1     -51.923  26.053  37.814  0.00  0.00    -0.046 SA
ENDBRANCH  23  25
ENDBRANCH   2  22
TORSDOF 5
ENDMDL
MODEL 2
REMARK VINA RESULT:     100.5      1.154      3.836
REMARK  5 active torsions:
REMARK  status: ('A' for Active; 'I' for Inactive)
REMARK    1  A    between atoms: N_2  and  S_1 
REMARK    2  A    between atoms: C_10  and  S_1 
REMARK    3  A    between atoms: C_4  and  C_3 
REMARK       I    between atoms: N_5  and  C_4 
REMARK    4  A    between atoms: C_6  and  N_5 
REMARK    5  A    between atoms: O_24  and  C_21 
ROOT
ATOM      1  N   UNL d   1     -51.081  26.172  34.214  0.00  0.00    -0.226 N 
ATOM      2  C   UNL d   1     -51.120  26.550  34.958  0.00  0.00     0.133 A 
ATOM      3  C   UNL d   1     -50.508  26.397  33.668  0.00  0.00     0.092 A 
ATOM      4  C   UNL d   1     -50.586  27.149  35.150  0.00  0.00     0.023 A 
ATOM      5  C   UNL d   1     -49.970  26.996  33.854  0.00  0.00     0.018 A 
ATOM      6  C   UNL d   1     -50.012  27.372  34.599  0.00  0.00     0.003 A 
ATOM      7  C   UNL d   1     -49.397  27.224  33.313  0.00  0.00     0.002 A 
ATOM      8  C   UNL d   1     -49.474  27.971  34.785  0.00  0.00     0.000 A 
ATOM      9  C   UNL d   1     -48.866  27.818  33.500  0.00  0.00     0.000 A 
ATOM     10  C   UNL d   1     -48.904  28.189  34.233  0.00  0.00     0.000 A 
ENDROOT
BRANCH   1  11
ATOM     11  S   UNL d   1     -51.627  25.567  34.030  0.00  0.00     0.271 S 
ATOM     12  O   UNL d   1     -52.223  26.015  34.369  0.00  0.00    -0.200 OA
ATOM     13  O   UNL d   1     -51.023  25.131  33.697  0.00  0.00    -0.200 OA
BRANCH  11  14
ATOM     14  C   UNL d   1     -52.165  24.975  33.852  0.00  0.00     0.104 A 
ATOM     15  C   UNL d   1     -51.990  24.189  34.044  0.00  0.00     0.015 A 
ATOM     16  C   UNL d   1     -52.529  23.597  33.865  0.00  0.00     0.025 A 
ATOM     17  C   UNL d   1     -53.244  23.781  33.495  0.00  0.00     0.094 A 
ATOM     18  C   UNL d   1     -53.412  24.565  33.307  0.00  0.00     0.025 A 
ATOM     19  C   UNL d   1     -52.874  25.167  33.484  0.00  0.00     0.015 A 
BRANCH  17  20
ATOM     20  O   UNL d   1     -53.783  23.189  33.316  0.00  0.00    -0.328 OA
ATOM     21  C   UNL d   1     -54.593  23.329  33.408  0.00  0.00     0.181 C 
ENDBRANCH  17  20
ENDBRANCH  11  14
ENDBRANCH   1  11
BRANCH   2  22
ATOM     22  C   UNL d   1     -51.700  26.319  35.506  0.00  0.00     0.298 C 
ATOM     23  N   UNL d   1     -51.502  26.241  36.301  0.00  0.00    -0.181 NA
ATOM     24  O   UNL d   1     -52.473  26.171  35.250  0.00  0.00    -0.264 OA
BRANCH  23  25
ATOM     25  C   UNL d   1     -52.074  26.012  36.847  0.00  0.00     0.197 A 
ATOM     26  N   UNL d   1     -52.909  26.319  37.052  0.00  0.00    -0.219 NA
ATOM     27  C   UNL d   1     -53.231  25.814  37.708  0.00  0.00     0.108 A 
ATOM     28  C   UNL d   1     -52.611  25.192  37.921  0.00  0.00     0.059 A 
ATOM     29  S   UNL d   1     -51.896  25.313  37.391  0.00  0.00    -0.046 SA
ENDBRANCH  23  25
ENDBRANCH   2  22
TORSDOF 5
ENDMDL
MODEL 3
REMARK VINA RESULT:     101.1      1.684      4.563
REMARK  5 active torsions:
REMARK  status: ('A' for Active; 'I' for Inactive)
REMARK    1  A    between atoms: N_2  and  S_1 
REMARK    2  A    between atoms: C_10  and  S_1 
REMARK    3  A    between atoms: C_4  and  C_3 
REMARK       I    between atoms: N_5  and  C_4 
REMARK    4  A    between atoms: C_6  and  N_5 
REMARK    5  A    between atoms: O_24  and  C_21 
ROOT
ATOM      1  N   UNL d   1     -49.230  27.839  35.147  0.00  0.00    -0.226 N 
ATOM      2  C   UNL d   1     -49.247  27.912  35.980  0.00  0.00     0.133 A 
ATOM      3  C   UNL d   1     -48.734  28.321  34.703  0.00  0.00     0.092 A 
ATOM      4  C   UNL d   1     -48.768  28.466  36.359  0.00  0.00     0.023 A 
ATOM      5  C   UNL d   1     -48.252  28.878  35.076  0.00  0.00     0.018 A 
ATOM      6  C   UNL d   1     -48.271  28.948  35.909  0.00  0.00     0.003 A 
ATOM      7  C   UNL d   1     -47.755  29.361  34.637  0.00  0.00     0.002 A 
ATOM      8  C   UNL d   1     -47.789  29.505  36.283  0.00  0.00     0.000 A 
ATOM      9  C   UNL d   1     -47.279  29.911  35.011  0.00  0.00     0.000 A 
ATOM     10  C   UNL d   1     -47.295  29.983  35.829  0.00  0.00     0.000 A 
ENDROOT
BRANCH   1  11
ATOM     11  S   UNL d   1     -49.720  27.274  34.774  0.00  0.00     0.271 S 
ATOM     12  O   UNL d   1     -49.095  26.745  34.776  0.00  0.00    -0.200 OA
ATOM     13  O   UNL d   1     -50.334  27.812  34.778  0.00  0.00    -0.200 OA
BRANCH  11  14
ATOM     14  C   UNL d   1     -50.198  26.718  34.408  0.00  0.00     0.104 A 
ATOM     15  C   UNL d   1     -51.021  26.776  34.474  0.00  0.00     0.015 A 
ATOM     16  C   UNL d   1     -51.498  26.220  34.107  0.00  0.00     0.025 A 
ATOM     17  C   UNL d   1     -51.163  25.602  33.672  0.00  0.00     0.094 A 
ATOM     18  C   UNL d   1     -50.344  25.550  33.611  0.00  0.00     0.025 A 
ATOM     19  C   UNL d   1     -49.855  26.107  33.978  0.00  0.00     0.015 A 
BRANCH  17  20
ATOM     20  O   UNL d   1     -51.641  25.045  33.305  0.00  0.00    -0.328 OA
ATOM     21  C   UNL d   1     -51.637  24.262  33.571  0.00  0.00     0.181 C 
ENDBRANCH  17  20
ENDBRANCH  11  14
ENDBRANCH   1  11
BRANCH   2  22
ATOM     22  C   UNL d   1     -49.750  27.423  36.425  0.00  0.00     0.298 C 
ATOM     23  N   UNL d   1     -50.124  27.724  37.093  0.00  0.00    -0.181 NA
ATOM     24  O   UNL d   1     -49.871  26.638  36.194  0.00  0.00    -0.264 OA
BRANCH  23  25
ATOM     25  C   UNL d   1     -50.623  27.243  37.537  0.00  0.00     0.197 A 
ATOM     26  N   UNL d   1     -51.271  26.636  37.323  0.00  0.00    -0.219 NA
ATOM     27  C   UNL d   1     -51.599  26.309  38.080  0.00  0.00     0.108 A 
ATOM     28  C   UNL d   1     -51.169  26.701  38.771  0.00  0.00     0.059 A 
ATOM     29  S   UNL d   1     -50.566  27.277  38.439  0.00  0.00    -0.046 SA
ENDBRANCH  23  25
ENDBRANCH   2  22
TORSDOF 5
ENDMDL
