MODEL 1
REMARK VINA RESULT:      12.3      0.000      0.000
REMARK  6 active torsions:
REMARK  status: ('A' for Active; 'I' for Inactive)
REMARK    1  A    between atoms: C_5  and  N_1 
REMARK    2  A    between atoms: N_2  and  C_5 
REMARK    3  A    between atoms: C_12  and  C_9 
REMARK    4  A    between atoms: C_14  and  C_10 
REMARK    5  A    between atoms: O_29  and  C_20 
REMARK    6  A    between atoms: O_28  and  C_21 
ROOT
ATOM      1  N   UNL d   1      31.559  18.212 -23.907  0.00  0.00    -0.211 N 
ATOM      2  N   UNL d   1      30.890  17.752 -23.969  0.00  0.00    -0.164 NA
ATOM      3  C   UNL d   1      30.253  18.208 -23.703  0.00  0.00     0.103 A 
ATOM      4  C   UNL d   1      31.344  18.939 -23.608  0.00  0.00     0.086 A 
ATOM      5  C   UNL d   1      30.530  18.917 -23.488  0.00  0.00     0.040 A 
ENDROOT
BRANCH   1   6
ATOM      6  C   UNL d   1      32.353  18.062 -24.086  0.00  0.00     0.186 C 
BRANCH   6   7
ATOM      7  N   UNL d   1      32.617  17.285 -24.124  0.00  0.00    -0.254 N 
ATOM      8  C   UNL d   1      32.777  16.815 -24.788  0.00  0.00     0.305 A 
ATOM      9  C   UNL d   1      33.029  16.073 -24.581  0.00  0.00     0.253 A 
ATOM     10  O   UNL d   1      32.528  17.546 -25.050  0.00  0.00    -0.263 OA
ATOM     11  O   UNL d   1      33.239  15.457 -25.085  0.00  0.00    -0.281 OA
ATOM     12  C   UNL d   1      33.034  16.058 -23.748  0.00  0.00     0.060 A 
ATOM     13  C   UNL d   1      32.783  16.797 -23.469  0.00  0.00     0.072 A 
ATOM     14  C   UNL d   1      33.240  15.453 -23.207  0.00  0.00     0.005 A 
ATOM     15  C   UNL d   1      32.734  16.943 -22.646  0.00  0.00     0.018 A 
ATOM     16  C   UNL d   1      32.938  16.343 -22.122  0.00  0.00     0.002 A 
ATOM     17  C   UNL d   1      33.189  15.603 -22.401  0.00  0.00     0.000 A 
ENDBRANCH   6   7
ENDBRANCH   1   6
BRANCH   4  18
ATOM     18  C   UNL d   1      31.811  19.589 -23.445  0.00  0.00     0.018 A 
ATOM     19  C   UNL d   1      32.120  20.063 -24.047  0.00  0.00     0.004 A 
ATOM     20  C   UNL d   1      32.598  20.727 -23.873  0.00  0.00     0.024 A 
ATOM     21  C   UNL d   1      32.766  20.913 -23.094  0.00  0.00     0.094 A 
ATOM     22  C   UNL d   1      32.459  20.441 -22.484  0.00  0.00     0.024 A 
ATOM     23  C   UNL d   1      31.987  19.786 -22.653  0.00  0.00     0.004 A 
BRANCH  21  24
ATOM     24  O   UNL d   1      33.239  21.569 -22.916  0.00  0.00    -0.328 OA
ATOM     25  C   UNL d   1      32.918  22.210 -22.497  0.00  0.00     0.181 C 
ENDBRANCH  21  24
ENDBRANCH   4  18
BRANCH   3  26
ATOM     26  C   UNL d   1      29.468  17.948 -23.673  0.00  0.00     0.019 A 
ATOM     27  C   UNL d   1      29.314  17.157 -23.466  0.00  0.00     0.004 A 
ATOM     28  C   UNL d   1      28.546  16.885 -23.432  0.00  0.00     0.024 A 
ATOM     29  C   UNL d   1      27.952  17.405 -23.606  0.00  0.00     0.094 A 
ATOM     30  C   UNL d   1      28.096  18.174 -23.808  0.00  0.00     0.024 A 
ATOM     31  C   UNL d   1      28.864  18.446 -23.841  0.00  0.00     0.004 A 
BRANCH  29  32
ATOM     32  O   UNL d   1      27.187  17.132 -23.572  0.00  0.00    -0.328 OA
ATOM     33  C   UNL d   1      27.035  16.315 -23.535  0.00  0.00     0.181 C 
ENDBRANCH  29  32
ENDBRANCH   3  26
TORSDOF 6
ENDMDL
MODEL 2
REMARK VINA RESULT:      13.9      3.200      6.264
REMARK  6 active torsions:
REMARK  status: ('A' for Active; 'I' for Inactive)
REMARK    1  A    between atoms: C_5  and  N_1 
REMARK    2  A    between atoms: N_2  and  C_5 
REMARK    3  A    between atoms: C_12  and  C_9 
REMARK    4  A    between atoms: C_14  and  C_10 
REMARK    5  A    between atoms: O_29  and  C_20 
REMARK    6  A    between atoms: O_28  and  C_21 
ROOT
ATOM      1  N   UNL d   1      33.154  21.329 -21.527  0.00  0.00    -0.211 N 
ATOM      2  N   UNL d   1      33.124  21.885 -20.933  0.00  0.00    -0.164 NA
ATOM      3  C   UNL d   1      33.096  21.476 -20.214  0.00  0.00     0.103 A 
ATOM      4  C   UNL d   1      33.146  20.588 -21.185  0.00  0.00     0.086 A 
ATOM      5  C   UNL d   1      33.109  20.700 -20.371  0.00  0.00     0.040 A 
ENDROOT
BRANCH   1   6
ATOM      6  C   UNL d   1      33.189  21.400 -22.350  0.00  0.00     0.186 C 
BRANCH   6   7
ATOM      7  N   UNL d   1      32.781  22.010 -22.719  0.00  0.00    -0.254 N 
ATOM      8  C   UNL d   1      32.261  22.567 -22.394  0.00  0.00     0.305 A 
ATOM      9  C   UNL d   1      31.975  23.079 -22.956  0.00  0.00     0.253 A 
ATOM     10  O   UNL d   1      32.517  22.081 -21.793  0.00  0.00    -0.263 OA
ATOM     11  O   UNL d   1      31.449  23.702 -22.842  0.00  0.00    -0.281 OA
ATOM     12  C   UNL d   1      32.324  22.845 -23.676  0.00  0.00     0.060 A 
ATOM     13  C   UNL d   1      32.816  22.194 -23.531  0.00  0.00     0.072 A 
ATOM     14  C   UNL d   1      32.250  23.153 -24.451  0.00  0.00     0.005 A 
ATOM     15  C   UNL d   1      33.241  21.840 -24.160  0.00  0.00     0.018 A 
ATOM     16  C   UNL d   1      33.162  22.149 -24.918  0.00  0.00     0.002 A 
ATOM     17  C   UNL d   1      32.671  22.800 -25.062  0.00  0.00     0.000 A 
ENDBRANCH   6   7
ENDBRANCH   1   6
BRANCH   4  18
ATOM     18  C   UNL d   1      33.168  19.855 -21.545  0.00  0.00     0.018 A 
ATOM     19  C   UNL d   1      33.141  19.774 -22.366  0.00  0.00     0.004 A 
ATOM     20  C   UNL d   1      33.164  19.019 -22.727  0.00  0.00     0.024 A 
ATOM     21  C   UNL d   1      33.214  18.348 -22.262  0.00  0.00     0.094 A 
ATOM     22  C   UNL d   1      33.241  18.422 -21.435  0.00  0.00     0.024 A 
ATOM     23  C   UNL d   1      33.218  19.165 -21.077  0.00  0.00     0.004 A 
BRANCH  21  24
ATOM     24  O   UNL d   1      33.237  17.599 -22.614  0.00  0.00    -0.328 OA
ATOM     25  C   UNL d   1      33.136  17.524 -23.435  0.00  0.00     0.181 C 
ENDBRANCH  21  24
ENDBRANCH   4  18
BRANCH   3  26
ATOM     26  C   UNL d   1      33.060  21.834 -19.469  0.00  0.00     0.019 A 
ATOM     27  C   UNL d   1      33.241  21.380 -18.795  0.00  0.00     0.004 A 
ATOM     28  C   UNL d   1      33.211  21.718 -18.054  0.00  0.00     0.024 A 
ATOM     29  C   UNL d   1      33.002  22.497 -18.001  0.00  0.00     0.094 A 
ATOM     30  C   UNL d   1      32.826  22.943 -18.651  0.00  0.00     0.024 A 
ATOM     31  C   UNL d   1      32.856  22.605 -19.393  0.00  0.00     0.004 A 
BRANCH  29  32
ATOM     32  O   UNL d   1      32.973  22.832 -17.261  0.00  0.00    -0.328 OA
ATOM     33  C   UNL d   1      32.445  23.455 -17.103  0.00  0.00     0.181 C 
ENDBRANCH  29  32
ENDBRANCH   3  26
TORSDOF 6
ENDMDL
