MODEL 1
REMARK VINA RESULT:      75.5      0.000      0.000
REMARK  5 active torsions:
REMARK  status: ('A' for Active; 'I' for Inactive)
REMARK    1  A    between atoms: C_10  and  C_3 
REMARK    2  A    between atoms: N_12  and  C_4 
REMARK    3  A    between atoms: N_11  and  C_15 
REMARK    4  A    between atoms: C_14  and  N_12 
REMARK    5  A    between atoms: C_15  and  C_14 
ROOT
ATOM      1  C   UNL d   1      58.908  49.700  50.655  0.00  0.00     0.167 A 
ATOM      2  N   UNL d   1      59.720  49.701  50.487  0.00  0.00    -0.195 N 
ATOM      3  C   UNL d   1      58.510  49.697  49.942  0.00  0.00     0.057 A 
ATOM      4  C   UNL d   1      60.262  49.703  51.103  0.00  0.00     0.167 A 
ATOM      5  N   UNL d   1      59.803  49.699  49.675  0.00  0.00    -0.161 NA
ATOM      6  N   UNL d   1      58.653  49.701  51.434  0.00  0.00    -0.227 NA
ATOM      7  C   UNL d   1      59.999  49.705  51.888  0.00  0.00     0.058 A 
ATOM      8  C   UNL d   1      59.071  49.696  49.337  0.00  0.00     0.124 A 
ATOM      9  C   UNL d   1      59.205  49.704  52.052  0.00  0.00     0.086 A 
ATOM     10  C   UNL d   1      58.957  49.705  52.844  0.00  0.00     0.021 C 
ENDROOT
BRANCH   4  11
ATOM     11  N   UNL d   1      61.073  49.705  50.935  0.00  0.00    -0.224 NA
BRANCH  11  12
ATOM     12  C   UNL d   1      61.584  49.251  51.389  0.00  0.00     0.120 C 
BRANCH  12  13
ATOM     13  C   UNL d   1      62.112  49.621  51.909  0.00  0.00     0.101 C 
BRANCH  13  14
ATOM     14  N   UNL d   1      62.339  49.247  52.609  0.00  0.00    -0.298 N 
ATOM     15  C   UNL d   1      62.822  49.650  53.143  0.00  0.00     0.107 A 
ATOM     16  C   UNL d   1      63.053  49.277  53.851  0.00  0.00     0.142 A 
ATOM     17  O   UNL d   1      62.801  48.515  54.014  0.00  0.00    -0.300 OA
ATOM     18  C   UNL d   1      62.313  48.112  53.472  0.00  0.00     0.142 A 
ATOM     19  C   UNL d   1      62.085  48.481  52.773  0.00  0.00     0.107 A 
ENDBRANCH  13  14
ENDBRANCH  12  13
ENDBRANCH  11  12
ENDBRANCH   4  11
BRANCH   3  20
ATOM     20  C   UNL d   1      57.683  49.695  49.924  0.00  0.00     0.004 A 
ATOM     21  C   UNL d   1      57.289  49.680  49.193  0.00  0.00     0.000 A 
ATOM     22  C   UNL d   1      56.473  49.679  49.169  0.00  0.00     0.000 A 
ATOM     23  C   UNL d   1      56.034  49.692  49.875  0.00  0.00     0.000 A 
ATOM     24  C   UNL d   1      56.421  49.706  50.596  0.00  0.00     0.000 A 
ATOM     25  C   UNL d   1      57.246  49.708  50.618  0.00  0.00     0.000 A 
ENDBRANCH   3  20
TORSDOF 5
ENDMDL
