MODEL 1
REMARK VINA RESULT:     -10.2      0.000      0.000
REMARK  3 active torsions:
REMARK  status: ('A' for Active; 'I' for Inactive)
REMARK    1  A    between atoms: C_8  and  C_1 
REMARK    2  A    between atoms: N_4  and  C_2 
REMARK       I    between atoms: C_6  and  N_4 
REMARK    3  A    between atoms: C_9  and  C_6 
ROOT
ATOM      1  C   UNL d   1      53.245  32.076  53.504  0.00  0.00     0.177 A 
ATOM      2  C   UNL d   1      52.915  32.800  53.723  0.00  0.00     0.114 A 
ATOM      3  O   UNL d   1      54.003  32.019  53.849  0.00  0.00    -0.301 OA
ATOM      4  C   UNL d   1      53.456  33.196  54.199  0.00  0.00     0.043 A 
ATOM      5  C   UNL d   1      54.140  32.704  54.278  0.00  0.00     0.102 A 
ATOM      6  C   UNL d   1      53.431  33.927  54.572  0.00  0.00     0.004 A 
ATOM      7  C   UNL d   1      54.772  32.965  54.728  0.00  0.00     0.025 A 
ATOM      8  C   UNL d   1      54.071  34.192  55.028  0.00  0.00     0.000 A 
ATOM      9  C   UNL d   1      54.736  33.721  55.109  0.00  0.00     0.002 A 
ENDROOT
BRANCH   2  10
ATOM     10  N   UNL d   1      52.146  33.067  53.484  0.00  0.00    -0.206 NA
ATOM     11  C   UNL d   1      52.081  33.696  52.953  0.00  0.00     0.279 C 
ATOM     12  O   UNL d   1      52.762  34.083  52.640  0.00  0.00    -0.265 OA
BRANCH  11  13
ATOM     13  C   UNL d   1      51.330  33.964  52.713  0.00  0.00     0.058 A 
ATOM     14  C   UNL d   1      50.724  34.097  53.246  0.00  0.00     0.007 A 
ATOM     15  C   UNL d   1      49.982  34.365  52.986  0.00  0.00     0.030 A 
ATOM     16  C   UNL d   1      49.853  34.499  52.182  0.00  0.00     0.140 A 
ATOM     17  C   UNL d   1      50.449  34.370  51.642  0.00  0.00     0.030 A 
ATOM     18  F   UNL d   1      49.122  34.764  51.913  0.00  0.00    -0.204 F 
ATOM     19  C   UNL d   1      51.193  34.102  51.898  0.00  0.00     0.007 A 
ENDBRANCH  11  13
ENDBRANCH   2  10
BRANCH   1  20
ATOM     20  C   UNL d   1      52.865  31.525  53.026  0.00  0.00     0.321 C 
ATOM     21  O   UNL d   1      53.037  31.494  52.205  0.00  0.00    -0.261 OA
ATOM     22  N   UNL d   1      52.307  30.993  53.352  0.00  0.00    -0.101 N 
ENDBRANCH   1  20
TORSDOF 3
ENDMDL
MODEL 2
REMARK VINA RESULT:      -9.8      2.190      3.886
REMARK  3 active torsions:
REMARK  status: ('A' for Active; 'I' for Inactive)
REMARK    1  A    between atoms: C_8  and  C_1 
REMARK    2  A    between atoms: N_4  and  C_2 
REMARK       I    between atoms: C_6  and  N_4 
REMARK    3  A    between atoms: C_9  and  C_6 
ROOT
ATOM      1  C   UNL d   1      53.773  33.528  53.964  0.00  0.00     0.177 A 
ATOM      2  C   UNL d   1      53.138  33.009  53.869  0.00  0.00     0.114 A 
ATOM      3  O   UNL d   1      53.533  34.286  53.709  0.00  0.00    -0.301 OA
ATOM      4  C   UNL d   1      52.505  33.432  53.557  0.00  0.00     0.043 A 
ATOM      5  C   UNL d   1      52.755  34.235  53.457  0.00  0.00     0.102 A 
ATOM      6  C   UNL d   1      51.742  33.211  53.349  0.00  0.00     0.004 A 
ATOM      7  C   UNL d   1      52.229  34.784  53.153  0.00  0.00     0.025 A 
ATOM      8  C   UNL d   1      51.209  33.766  53.041  0.00  0.00     0.000 A 
ATOM      9  C   UNL d   1      51.444  34.544  52.941  0.00  0.00     0.002 A 
ENDROOT
BRANCH   2  10
ATOM     10  N   UNL d   1      53.160  32.185  54.066  0.00  0.00    -0.206 NA
ATOM     11  C   UNL d   1      53.161  31.622  53.462  0.00  0.00     0.279 C 
ATOM     12  O   UNL d   1      53.141  31.846  52.649  0.00  0.00    -0.265 OA
BRANCH  11  13
ATOM     13  C   UNL d   1      53.182  30.811  53.646  0.00  0.00     0.058 A 
ATOM     14  C   UNL d   1      53.240  30.541  54.416  0.00  0.00     0.007 A 
ATOM     15  C   UNL d   1      53.260  29.726  54.579  0.00  0.00     0.030 A 
ATOM     16  C   UNL d   1      53.221  29.183  53.959  0.00  0.00     0.140 A 
ATOM     17  C   UNL d   1      53.163  29.439  53.188  0.00  0.00     0.030 A 
ATOM     18  F   UNL d   1      53.240  28.373  54.109  0.00  0.00    -0.204 F 
ATOM     19  C   UNL d   1      53.143  30.254  53.020  0.00  0.00     0.007 A 
ENDBRANCH  11  13
ENDBRANCH   2  10
BRANCH   1  20
ATOM     20  C   UNL d   1      54.506  33.305  54.264  0.00  0.00     0.321 C 
ATOM     21  O   UNL d   1      55.130  33.105  53.739  0.00  0.00    -0.261 OA
ATOM     22  N   UNL d   1      54.635  33.274  55.090  0.00  0.00    -0.101 N 
ENDBRANCH   1  20
TORSDOF 3
ENDMDL
MODEL 3
REMARK VINA RESULT:      -9.6      1.124      2.250
REMARK  3 active torsions:
REMARK  status: ('A' for Active; 'I' for Inactive)
REMARK    1  A    between atoms: C_8  and  C_1 
REMARK    2  A    between atoms: N_4  and  C_2 
REMARK       I    between atoms: C_6  and  N_4 
REMARK    3  A    between atoms: C_9  and  C_6 
ROOT
ATOM      1  C   UNL d   1      53.893  32.176  53.952  0.00  0.00     0.177 A 
ATOM      2  C   UNL d   1      53.122  32.001  53.716  0.00  0.00     0.114 A 
ATOM      3  O   UNL d   1      54.341  31.472  53.927  0.00  0.00    -0.301 OA
ATOM      4  C   UNL d   1      53.082  31.196  53.544  0.00  0.00     0.043 A 
ATOM      5  C   UNL d   1      53.849  30.866  53.677  0.00  0.00     0.102 A 
ATOM      6  C   UNL d   1      52.467  30.717  53.288  0.00  0.00     0.004 A 
ATOM      7  C   UNL d   1      53.970  30.066  53.548  0.00  0.00     0.025 A 
ATOM      8  C   UNL d   1      52.588  29.907  53.157  0.00  0.00     0.000 A 
ATOM      9  C   UNL d   1      53.327  29.580  53.284  0.00  0.00     0.002 A 
ENDROOT
BRANCH   2  10
ATOM     10  N   UNL d   1      52.495  32.570  53.667  0.00  0.00    -0.206 NA
ATOM     11  C   UNL d   1      52.213  32.802  52.927  0.00  0.00     0.279 C 
ATOM     12  O   UNL d   1      52.533  32.487  52.213  0.00  0.00    -0.265 OA
BRANCH  11  13
ATOM     13  C   UNL d   1      51.598  33.360  52.870  0.00  0.00     0.058 A 
ATOM     14  C   UNL d   1      50.955  33.352  53.375  0.00  0.00     0.007 A 
ATOM     15  C   UNL d   1      50.351  33.918  53.301  0.00  0.00     0.030 A 
ATOM     16  C   UNL d   1      50.400  34.495  52.714  0.00  0.00     0.140 A 
ATOM     17  C   UNL d   1      51.036  34.514  52.205  0.00  0.00     0.030 A 
ATOM     18  F   UNL d   1      49.808  35.062  52.632  0.00  0.00    -0.204 F 
ATOM     19  C   UNL d   1      51.643  33.949  52.275  0.00  0.00     0.007 A 
ENDBRANCH  11  13
ENDBRANCH   2  10
BRANCH   1  20
ATOM     20  C   UNL d   1      54.146  32.928  54.168  0.00  0.00     0.321 C 
ATOM     21  O   UNL d   1      54.580  33.397  53.624  0.00  0.00    -0.261 OA
ATOM     22  N   UNL d   1      53.973  33.231  54.929  0.00  0.00    -0.101 N 
ENDBRANCH   1  20
TORSDOF 3
ENDMDL
MODEL 4
REMARK VINA RESULT:      -9.4      1.882      3.365
REMARK  3 active torsions:
REMARK  status: ('A' for Active; 'I' for Inactive)
REMARK    1  A    between atoms: C_8  and  C_1 
REMARK    2  A    between atoms: N_4  and  C_2 
REMARK       I    between atoms: C_6  and  N_4 
REMARK    3  A    between atoms: C_9  and  C_6 
ROOT
ATOM      1  C   UNL d   1      51.931  34.156  53.144  0.00  0.00     0.177 A 
ATOM      2  C   UNL d   1      52.396  33.682  53.635  0.00  0.00     0.114 A 
ATOM      3  O   UNL d   1      52.091  34.955  53.323  0.00  0.00    -0.301 OA
ATOM      4  C   UNL d   1      52.843  34.175  54.119  0.00  0.00     0.043 A 
ATOM      5  C   UNL d   1      52.650  34.975  53.921  0.00  0.00     0.102 A 
ATOM      6  C   UNL d   1      53.395  34.020  54.706  0.00  0.00     0.004 A 
ATOM      7  C   UNL d   1      53.018  35.588  54.321  0.00  0.00     0.025 A 
ATOM      8  C   UNL d   1      53.768  34.639  55.112  0.00  0.00     0.000 A 
ATOM      9  C   UNL d   1      53.587  35.415  54.926  0.00  0.00     0.002 A 
ENDROOT
BRANCH   2  10
ATOM     10  N   UNL d   1      52.394  32.835  53.624  0.00  0.00    -0.206 NA
ATOM     11  C   UNL d   1      53.047  32.430  53.321  0.00  0.00     0.279 C 
ATOM     12  O   UNL d   1      53.720  32.840  53.020  0.00  0.00    -0.265 OA
BRANCH  11  13
ATOM     13  C   UNL d   1      53.053  31.598  53.307  0.00  0.00     0.058 A 
ATOM     14  C   UNL d   1      52.566  31.167  52.810  0.00  0.00     0.007 A 
ATOM     15  C   UNL d   1      52.589  30.337  52.811  0.00  0.00     0.030 A 
ATOM     16  C   UNL d   1      53.106  29.941  53.318  0.00  0.00     0.140 A 
ATOM     17  C   UNL d   1      53.595  30.358  53.817  0.00  0.00     0.030 A 
ATOM     18  F   UNL d   1      53.136  29.118  53.327  0.00  0.00    -0.204 F 
ATOM     19  C   UNL d   1      53.577  31.190  53.819  0.00  0.00     0.007 A 
ENDBRANCH  11  13
ENDBRANCH   2  10
BRANCH   1  20
ATOM     20  C   UNL d   1      51.409  33.858  52.582  0.00  0.00     0.321 C 
ATOM     21  O   UNL d   1      51.627  33.847  51.771  0.00  0.00    -0.261 OA
ATOM     22  N   UNL d   1      50.660  33.565  52.812  0.00  0.00    -0.101 N 
ENDBRANCH   1  20
TORSDOF 3
ENDMDL
MODEL 5
REMARK VINA RESULT:      -9.1      2.215      3.999
REMARK  3 active torsions:
REMARK  status: ('A' for Active; 'I' for Inactive)
REMARK    1  A    between atoms: C_8  and  C_1 
REMARK    2  A    between atoms: N_4  and  C_2 
REMARK       I    between atoms: C_6  and  N_4 
REMARK    3  A    between atoms: C_9  and  C_6 
ROOT
ATOM      1  C   UNL d   1      52.410  31.943  52.951  0.00  0.00     0.177 A 
ATOM      2  C   UNL d   1      52.950  31.721  53.535  0.00  0.00     0.114 A 
ATOM      3  O   UNL d   1      52.151  31.253  52.558  0.00  0.00    -0.301 OA
ATOM      4  C   UNL d   1      53.032  30.902  53.512  0.00  0.00     0.043 A 
ATOM      5  C   UNL d   1      52.529  30.610  52.897  0.00  0.00     0.102 A 
ATOM      6  C   UNL d   1      53.485  30.380  53.954  0.00  0.00     0.004 A 
ATOM      7  C   UNL d   1      52.501  29.805  52.750  0.00  0.00     0.025 A 
ATOM      8  C   UNL d   1      53.457  29.564  53.806  0.00  0.00     0.000 A 
ATOM      9  C   UNL d   1      52.974  29.275  53.214  0.00  0.00     0.002 A 
ENDROOT
BRANCH   2  10
ATOM     10  N   UNL d   1      53.340  32.263  54.057  0.00  0.00    -0.206 NA
ATOM     11  C   UNL d   1      54.141  32.428  53.948  0.00  0.00     0.279 C 
ATOM     12  O   UNL d   1      54.586  32.070  53.327  0.00  0.00    -0.265 OA
BRANCH  11  13
ATOM     13  C   UNL d   1      54.532  32.959  54.456  0.00  0.00     0.058 A 
ATOM     14  C   UNL d   1      54.321  33.045  55.241  0.00  0.00     0.007 A 
ATOM     15  C   UNL d   1      54.724  33.581  55.732  0.00  0.00     0.030 A 
ATOM     16  C   UNL d   1      55.344  34.032  55.426  0.00  0.00     0.140 A 
ATOM     17  C   UNL d   1      55.563  33.955  54.645  0.00  0.00     0.030 A 
ATOM     18  F   UNL d   1      55.750  34.566  55.903  0.00  0.00    -0.204 F 
ATOM     19  C   UNL d   1      55.163  33.419  54.150  0.00  0.00     0.007 A 
ENDBRANCH  11  13
ENDBRANCH   2  10
BRANCH   1  20
ATOM     20  C   UNL d   1      52.186  32.721  52.807  0.00  0.00     0.321 C 
ATOM     21  O   UNL d   1      52.524  33.141  52.164  0.00  0.00    -0.261 OA
ATOM     22  N   UNL d   1      51.624  33.099  53.298  0.00  0.00    -0.101 N 
ENDBRANCH   1  20
TORSDOF 3
ENDMDL
MODEL 6
REMARK VINA RESULT:      -9.1      1.260      2.170
REMARK  3 active torsions:
REMARK  status: ('A' for Active; 'I' for Inactive)
REMARK    1  A    between atoms: C_8  and  C_1 
REMARK    2  A    between atoms: N_4  and  C_2 
REMARK       I    between atoms: C_6  and  N_4 
REMARK    3  A    between atoms: C_9  and  C_6 
ROOT
ATOM      1  C   UNL d   1      53.171  33.901  53.855  0.00  0.00     0.177 A 
ATOM      2  C   UNL d   1      52.675  33.495  53.336  0.00  0.00     0.114 A 
ATOM      3  O   UNL d   1      53.718  33.358  54.175  0.00  0.00    -0.301 OA
ATOM      4  C   UNL d   1      52.904  32.704  53.327  0.00  0.00     0.043 A 
ATOM      5  C   UNL d   1      53.560  32.620  53.855  0.00  0.00     0.102 A 
ATOM      6  C   UNL d   1      52.617  32.052  52.921  0.00  0.00     0.004 A 
ATOM      7  C   UNL d   1      53.902  31.883  53.954  0.00  0.00     0.025 A 
ATOM      8  C   UNL d   1      52.963  31.305  53.021  0.00  0.00     0.000 A 
ATOM      9  C   UNL d   1      53.598  31.215  53.529  0.00  0.00     0.002 A 
ENDROOT
BRANCH   2  10
ATOM     10  N   UNL d   1      52.043  33.854  52.899  0.00  0.00    -0.206 NA
ATOM     11  C   UNL d   1      51.261  33.697  53.110  0.00  0.00     0.279 C 
ATOM     12  O   UNL d   1      51.071  33.187  53.755  0.00  0.00    -0.265 OA
BRANCH  11  13
ATOM     13  C   UNL d   1      50.635  34.045  52.686  0.00  0.00     0.058 A 
ATOM     14  C   UNL d   1      50.582  33.996  51.871  0.00  0.00     0.007 A 
ATOM     15  C   UNL d   1      49.948  34.351  51.467  0.00  0.00     0.030 A 
ATOM     16  C   UNL d   1      49.367  34.756  51.889  0.00  0.00     0.140 A 
ATOM     17  C   UNL d   1      49.409  34.812  52.701  0.00  0.00     0.030 A 
ATOM     18  F   UNL d   1      48.735  35.111  51.499  0.00  0.00    -0.204 F 
ATOM     19  C   UNL d   1      50.042  34.458  53.110  0.00  0.00     0.007 A 
ENDBRANCH  11  13
ENDBRANCH   2  10
BRANCH   1  20
ATOM     20  C   UNL d   1      53.111  34.707  54.010  0.00  0.00     0.321 C 
ATOM     21  O   UNL d   1      53.265  35.263  53.400  0.00  0.00    -0.261 OA
ATOM     22  N   UNL d   1      52.897  34.979  54.772  0.00  0.00    -0.101 N 
ENDBRANCH   1  20
TORSDOF 3
ENDMDL
