MODEL 1
REMARK VINA RESULT:      -7.2      0.000      0.000
REMARK  5 active torsions:
REMARK  status: ('A' for Active; 'I' for Inactive)
REMARK    1  A    between atoms: C_14  and  N_3 
REMARK    2  A    between atoms: C_15  and  C_9 
REMARK    3  A    between atoms: O_22  and  C_12 
REMARK    4  A    between atoms: O_23  and  C_13 
REMARK    5  A    between atoms: C_16  and  C_14 
ROOT
ATOM      1  C   UNL d   1      53.329  32.839  54.158  0.00  0.00     0.056 A 
ATOM      2  C   UNL d   1      53.666  32.106  54.356  0.00  0.00     0.107 A 
ATOM      3  N   UNL d   1      52.416  32.169  53.281  0.00  0.00    -0.304 N 
ATOM      4  C   UNL d   1      53.379  31.414  54.017  0.00  0.00     0.038 A 
ATOM      5  N   UNL d   1      54.270  32.250  54.897  0.00  0.00    -0.148 NA
ATOM      6  C   UNL d   1      52.704  32.870  53.621  0.00  0.00     0.083 A 
ATOM      7  N   UNL d   1      54.305  33.063  55.032  0.00  0.00    -0.148 NA
ATOM      8  C   UNL d   1      52.754  31.445  53.480  0.00  0.00     0.068 A 
ATOM      9  C   UNL d   1      53.727  33.431  54.580  0.00  0.00     0.106 A 
ATOM     10  C   UNL d   1      52.465  30.751  53.141  0.00  0.00     0.044 A 
ATOM     11  C   UNL d   1      53.716  30.689  54.216  0.00  0.00     0.029 A 
ATOM     12  C   UNL d   1      52.803  30.028  53.340  0.00  0.00     0.118 A 
ATOM     13  C   UNL d   1      53.428  29.996  53.878  0.00  0.00     0.116 A 
ENDROOT
BRANCH   3  14
ATOM     14  C   UNL d   1      51.791  32.200  52.743  0.00  0.00     0.080 C 
BRANCH  14  15
ATOM     15  C   UNL d   1      51.357  32.894  52.656  0.00  0.00     0.020 A 
ATOM     16  C   UNL d   1      51.543  33.428  52.045  0.00  0.00     0.031 A 
ATOM     17  C   UNL d   1      51.109  34.122  51.957  0.00  0.00     0.140 A 
ATOM     18  F   UNL d   1      51.297  34.649  51.350  0.00  0.00    -0.204 F 
ATOM     19  C   UNL d   1      50.482  34.295  52.479  0.00  0.00     0.030 A 
ATOM     20  C   UNL d   1      50.296  33.761  53.091  0.00  0.00     0.002 A 
ATOM     21  C   UNL d   1      50.733  33.064  53.177  0.00  0.00     0.002 A 
ENDBRANCH  14  15
ENDBRANCH   3  14
BRANCH   9  22
ATOM     22  C   UNL d   1      53.639  34.251  54.609  0.00  0.00     0.020 A 
ATOM     23  C   UNL d   1      53.173  34.594  55.200  0.00  0.00     0.004 A 
ATOM     24  C   UNL d   1      53.087  35.419  55.226  0.00  0.00     0.030 A 
ATOM     25  C   UNL d   1      53.458  35.887  54.673  0.00  0.00     0.140 A 
ATOM     26  C   UNL d   1      53.923  35.548  54.082  0.00  0.00     0.030 A 
ATOM     27  F   UNL d   1      53.364  36.709  54.709  0.00  0.00    -0.204 F 
ATOM     28  C   UNL d   1      54.014  34.725  54.049  0.00  0.00     0.004 A 
ENDBRANCH   9  22
BRANCH  12  29
ATOM     29  O   UNL d   1      52.506  29.323  52.992  0.00  0.00    -0.326 OA
ATOM     30  C   UNL d   1      52.523  29.232  52.170  0.00  0.00     0.181 C 
ENDBRANCH  12  29
BRANCH  13  31
ATOM     31  O   UNL d   1      53.766  29.260  54.075  0.00  0.00    -0.326 OA
ATOM     32  C   UNL d   1      53.613  28.921  54.814  0.00  0.00     0.181 C 
ENDBRANCH  13  31
TORSDOF 5
ENDMDL
MODEL 2
REMARK VINA RESULT:      -6.7      2.316      3.880
REMARK  5 active torsions:
REMARK  status: ('A' for Active; 'I' for Inactive)
REMARK    1  A    between atoms: C_14  and  N_3 
REMARK    2  A    between atoms: C_15  and  C_9 
REMARK    3  A    between atoms: O_22  and  C_12 
REMARK    4  A    between atoms: O_23  and  C_13 
REMARK    5  A    between atoms: C_16  and  C_14 
ROOT
ATOM      1  C   UNL d   1      52.496  34.131  53.855  0.00  0.00     0.056 A 
ATOM      2  C   UNL d   1      51.851  34.649  53.780  0.00  0.00     0.107 A 
ATOM      3  N   UNL d   1      51.877  33.243  52.916  0.00  0.00    -0.304 N 
ATOM      4  C   UNL d   1      51.227  34.463  53.277  0.00  0.00     0.038 A 
ATOM      5  N   UNL d   1      51.993  35.294  54.273  0.00  0.00    -0.148 NA
ATOM      6  C   UNL d   1      52.509  33.428  53.423  0.00  0.00     0.083 A 
ATOM      7  N   UNL d   1      52.719  35.174  54.647  0.00  0.00    -0.148 NA
ATOM      8  C   UNL d   1      51.240  33.760  52.845  0.00  0.00     0.068 A 
ATOM      9  C   UNL d   1      53.033  34.460  54.394  0.00  0.00     0.106 A 
ATOM     10  C   UNL d   1      50.616  33.574  52.341  0.00  0.00     0.044 A 
ATOM     11  C   UNL d   1      50.590  34.979  53.205  0.00  0.00     0.029 A 
ATOM     12  C   UNL d   1      49.979  34.090  52.270  0.00  0.00     0.118 A 
ATOM     13  C   UNL d   1      49.966  34.793  52.702  0.00  0.00     0.116 A 
ENDROOT
BRANCH   3  14
ATOM     14  C   UNL d   1      51.890  32.541  52.484  0.00  0.00     0.080 C 
BRANCH  14  15
ATOM     15  C   UNL d   1      52.232  31.865  52.807  0.00  0.00     0.020 A 
ATOM     16  C   UNL d   1      53.027  31.681  52.643  0.00  0.00     0.031 A 
ATOM     17  C   UNL d   1      53.370  31.005  52.965  0.00  0.00     0.140 A 
ATOM     18  F   UNL d   1      54.159  30.827  52.800  0.00  0.00    -0.204 F 
ATOM     19  C   UNL d   1      52.923  30.502  53.458  0.00  0.00     0.030 A 
ATOM     20  C   UNL d   1      52.127  30.685  53.622  0.00  0.00     0.002 A 
ATOM     21  C   UNL d   1      51.786  31.365  53.297  0.00  0.00     0.002 A 
ENDBRANCH  14  15
ENDBRANCH   3  14
BRANCH   9  22
ATOM     22  C   UNL d   1      53.761  34.202  54.684  0.00  0.00     0.020 A 
ATOM     23  C   UNL d   1      53.792  33.745  55.374  0.00  0.00     0.004 A 
ATOM     24  C   UNL d   1      54.526  33.488  55.662  0.00  0.00     0.030 A 
ATOM     25  C   UNL d   1      55.212  33.684  55.269  0.00  0.00     0.140 A 
ATOM     26  C   UNL d   1      55.185  34.139  54.582  0.00  0.00     0.030 A 
ATOM     27  F   UNL d   1      55.939  33.422  55.567  0.00  0.00    -0.204 F 
ATOM     28  C   UNL d   1      54.455  34.400  54.287  0.00  0.00     0.004 A 
ENDBRANCH   9  22
BRANCH  12  29
ATOM     29  O   UNL d   1      49.344  33.896  51.755  0.00  0.00    -0.326 OA
ATOM     30  C   UNL d   1      49.425  34.016  50.941  0.00  0.00     0.181 C 
ENDBRANCH  12  29
BRANCH  13  31
ATOM     31  O   UNL d   1      49.318  35.312  52.626  0.00  0.00    -0.326 OA
ATOM     32  C   UNL d   1      48.879  35.526  53.294  0.00  0.00     0.181 C 
ENDBRANCH  13  31
TORSDOF 5
ENDMDL
MODEL 3
REMARK VINA RESULT:      -5.3      2.318      4.733
REMARK  5 active torsions:
REMARK  status: ('A' for Active; 'I' for Inactive)
REMARK    1  A    between atoms: C_14  and  N_3 
REMARK    2  A    between atoms: C_15  and  C_9 
REMARK    3  A    between atoms: O_22  and  C_12 
REMARK    4  A    between atoms: O_23  and  C_13 
REMARK    5  A    between atoms: C_16  and  C_14 
ROOT
ATOM      1  C   UNL d   1      52.702  31.835  53.392  0.00  0.00     0.056 A 
ATOM      2  C   UNL d   1      52.235  32.211  52.817  0.00  0.00     0.107 A 
ATOM      3  N   UNL d   1      52.761  33.063  54.128  0.00  0.00    -0.304 N 
ATOM      4  C   UNL d   1      52.035  33.004  52.900  0.00  0.00     0.038 A 
ATOM      5  N   UNL d   1      52.060  31.652  52.237  0.00  0.00    -0.148 NA
ATOM      6  C   UNL d   1      52.965  32.262  54.048  0.00  0.00     0.083 A 
ATOM      7  N   UNL d   1      52.416  30.939  52.454  0.00  0.00    -0.148 NA
ATOM      8  C   UNL d   1      52.298  33.430  53.555  0.00  0.00     0.068 A 
ATOM      9  C   UNL d   1      52.813  31.046  53.164  0.00  0.00     0.106 A 
ATOM     10  C   UNL d   1      52.097  34.225  53.639  0.00  0.00     0.044 A 
ATOM     11  C   UNL d   1      51.571  33.373  52.327  0.00  0.00     0.029 A 
ATOM     12  C   UNL d   1      51.634  34.593  53.066  0.00  0.00     0.118 A 
ATOM     13  C   UNL d   1      51.371  34.166  52.410  0.00  0.00     0.116 A 
ENDROOT
BRANCH   3  14
ATOM     14  C   UNL d   1      53.024  33.489  54.784  0.00  0.00     0.080 C 
BRANCH  14  15
ATOM     15  C   UNL d   1      53.820  33.473  54.993  0.00  0.00     0.020 A 
ATOM     16  C   UNL d   1      54.386  33.842  54.507  0.00  0.00     0.031 A 
ATOM     17  C   UNL d   1      55.183  33.827  54.715  0.00  0.00     0.140 A 
ATOM     18  F   UNL d   1      55.741  34.193  54.230  0.00  0.00    -0.204 F 
ATOM     19  C   UNL d   1      55.426  33.442  55.414  0.00  0.00     0.030 A 
ATOM     20  C   UNL d   1      54.860  33.074  55.901  0.00  0.00     0.002 A 
ATOM     21  C   UNL d   1      54.061  33.091  55.689  0.00  0.00     0.002 A 
ENDBRANCH  14  15
ENDBRANCH   3  14
BRANCH   9  22
ATOM     22  C   UNL d   1      53.220  30.417  53.509  0.00  0.00     0.020 A 
ATOM     23  C   UNL d   1      52.835  29.923  54.050  0.00  0.00     0.004 A 
ATOM     24  C   UNL d   1      53.248  29.292  54.394  0.00  0.00     0.030 A 
ATOM     25  C   UNL d   1      54.028  29.159  54.202  0.00  0.00     0.140 A 
ATOM     26  C   UNL d   1      54.415  29.650  53.663  0.00  0.00     0.030 A 
ATOM     27  F   UNL d   1      54.430  28.526  54.552  0.00  0.00    -0.204 F 
ATOM     28  C   UNL d   1      54.009  30.282  53.314  0.00  0.00     0.004 A 
ENDBRANCH   9  22
BRANCH  12  29
ATOM     29  O   UNL d   1      51.432  35.403  53.154  0.00  0.00    -0.326 OA
ATOM     30  C   UNL d   1      51.265  35.705  53.906  0.00  0.00     0.181 C 
ENDBRANCH  12  29
BRANCH  13  31
ATOM     31  O   UNL d   1      50.902  34.545  51.834  0.00  0.00    -0.326 OA
ATOM     32  C   UNL d   1      50.224  34.171  51.544  0.00  0.00     0.181 C 
ENDBRANCH  13  31
TORSDOF 5
ENDMDL
MODEL 4
REMARK VINA RESULT:      -5.1      2.058      4.063
REMARK  5 active torsions:
REMARK  status: ('A' for Active; 'I' for Inactive)
REMARK    1  A    between atoms: C_14  and  N_3 
REMARK    2  A    between atoms: C_15  and  C_9 
REMARK    3  A    between atoms: O_22  and  C_12 
REMARK    4  A    between atoms: O_23  and  C_13 
REMARK    5  A    between atoms: C_16  and  C_14 
ROOT
ATOM      1  C   UNL d   1      53.367  32.084  53.864  0.00  0.00     0.056 A 
ATOM      2  C   UNL d   1      54.026  32.496  54.158  0.00  0.00     0.107 A 
ATOM      3  N   UNL d   1      52.563  33.254  54.060  0.00  0.00    -0.304 N 
ATOM      4  C   UNL d   1      53.951  33.278  54.399  0.00  0.00     0.038 A 
ATOM      5  N   UNL d   1      54.668  31.980  54.140  0.00  0.00    -0.148 NA
ATOM      6  C   UNL d   1      52.636  32.463  53.815  0.00  0.00     0.083 A 
ATOM      7  N   UNL d   1      54.407  31.257  53.838  0.00  0.00    -0.148 NA
ATOM      8  C   UNL d   1      53.219  33.657  54.350  0.00  0.00     0.068 A 
ATOM      9  C   UNL d   1      53.607  31.315  53.667  0.00  0.00     0.106 A 
ATOM     10  C   UNL d   1      53.144  34.442  54.592  0.00  0.00     0.044 A 
ATOM     11  C   UNL d   1      54.606  33.683  54.689  0.00  0.00     0.029 A 
ATOM     12  C   UNL d   1      53.800  34.845  54.882  0.00  0.00     0.118 A 
ATOM     13  C   UNL d   1      54.531  34.466  54.931  0.00  0.00     0.116 A 
ENDROOT
BRANCH   3  14
ATOM     14  C   UNL d   1      51.832  33.633  54.011  0.00  0.00     0.080 C 
BRANCH  14  15
ATOM     15  C   UNL d   1      51.414  33.632  53.302  0.00  0.00     0.020 A 
ATOM     16  C   UNL d   1      51.707  34.052  52.645  0.00  0.00     0.031 A 
ATOM     17  C   UNL d   1      51.290  34.051  51.935  0.00  0.00     0.140 A 
ATOM     18  F   UNL d   1      51.583  34.468  51.286  0.00  0.00    -0.204 F 
ATOM     19  C   UNL d   1      50.572  33.630  51.870  0.00  0.00     0.030 A 
ATOM     20  C   UNL d   1      50.279  33.210  52.527  0.00  0.00     0.002 A 
ATOM     21  C   UNL d   1      50.701  33.213  53.239  0.00  0.00     0.002 A 
ENDBRANCH  14  15
ENDBRANCH   3  14
BRANCH   9  22
ATOM     22  C   UNL d   1      53.202  30.667  53.356  0.00  0.00     0.020 A 
ATOM     23  C   UNL d   1      52.874  30.103  53.865  0.00  0.00     0.004 A 
ATOM     24  C   UNL d   1      52.468  29.453  53.548  0.00  0.00     0.030 A 
ATOM     25  C   UNL d   1      52.393  29.370  52.741  0.00  0.00     0.140 A 
ATOM     26  C   UNL d   1      52.719  29.931  52.231  0.00  0.00     0.030 A 
ATOM     27  F   UNL d   1      51.985  28.716  52.437  0.00  0.00    -0.204 F 
ATOM     28  C   UNL d   1      53.126  30.583  52.539  0.00  0.00     0.004 A 
ENDBRANCH   9  22
BRANCH  12  29
ATOM     29  O   UNL d   1      53.718  35.645  55.127  0.00  0.00    -0.326 OA
ATOM     30  C   UNL d   1      53.153  36.129  54.767  0.00  0.00     0.181 C 
ENDBRANCH  12  29
BRANCH  13  31
ATOM     31  O   UNL d   1      55.191  34.881  55.226  0.00  0.00    -0.326 OA
ATOM     32  C   UNL d   1      55.892  34.475  55.395  0.00  0.00     0.181 C 
ENDBRANCH  13  31
TORSDOF 5
ENDMDL
