MODEL 1
REMARK VINA RESULT:      -6.1      0.000      0.000
REMARK  5 active torsions:
REMARK  status: ('A' for Active; 'I' for Inactive)
REMARK    1  A    between atoms: C_2  and  S_1 
REMARK    2  A    between atoms: N_4  and  S_1 
REMARK    3  A    between atoms: C_3  and  N_5 
REMARK    4  A    between atoms: O_26  and  C_14 
REMARK    5  A    between atoms: O_27  and  C_24 
ROOT
ATOM      1  N   UNL d   1     -47.787  13.292  22.740  0.00  0.00    -0.226 N 
ATOM      2  N   UNL d   1     -46.220  12.874  22.484  0.00  0.00    -0.319 N 
ATOM      3  C   UNL d   1     -47.572  12.919  22.039  0.00  0.00     0.110 A 
ATOM      4  C   UNL d   1     -47.223  13.457  23.313  0.00  0.00     0.110 A 
ATOM      5  C   UNL d   1     -46.437  13.250  23.192  0.00  0.00     0.096 A 
ATOM      6  C   UNL d   1     -46.780  12.708  21.910  0.00  0.00     0.096 A 
ENDROOT
BRANCH   1   7
ATOM      7  S   UNL d   1     -48.575  13.502  22.869  0.00  0.00     0.273 S 
ATOM      8  O   UNL d   1     -48.675  13.575  22.053  0.00  0.00    -0.200 OA
ATOM      9  O   UNL d   1     -48.483  13.432  23.685  0.00  0.00    -0.200 OA
BRANCH   7  10
ATOM     10  C   UNL d   1     -49.366  13.715  22.972  0.00  0.00     0.128 A 
ATOM     11  C   UNL d   1     -49.577  14.503  22.930  0.00  0.00     0.039 A 
ATOM     12  C   UNL d   1     -50.364  14.727  23.032  0.00  0.00     0.095 A 
ATOM     13  C   UNL d   1     -50.939  14.151  23.178  0.00  0.00     0.026 A 
ATOM     14  C   UNL d   1     -50.721  13.352  23.220  0.00  0.00     0.027 A 
ATOM     15  C   UNL d   1     -49.932  13.136  23.117  0.00  0.00     0.106 A 
BRANCH  12  16
ATOM     16  O   UNL d   1     -50.583  15.518  22.990  0.00  0.00    -0.328 OA
ATOM     17  C   UNL d   1     -50.796  15.920  23.681  0.00  0.00     0.181 C 
ENDBRANCH  12  16
BRANCH  15  18
ATOM     18  O   UNL d   1     -49.709  12.344  23.158  0.00  0.00    -0.327 OA
ATOM     19  C   UNL d   1     -50.291  11.762  23.233  0.00  0.00     0.181 C 
ENDBRANCH  15  18
ENDBRANCH   7  10
ENDBRANCH   1   7
BRANCH   2  20
ATOM     20  C   UNL d   1     -45.429  12.668  22.366  0.00  0.00     0.107 A 
ATOM     21  C   UNL d   1     -45.122  13.154  21.867  0.00  0.00    -0.002 A 
ATOM     22  C   UNL d   1     -44.355  12.958  21.749  0.00  0.00    -0.006 A 
ATOM     23  C   UNL d   1     -44.169  12.353  22.168  0.00  0.00    -0.022 A 
ATOM     24  C   UNL d   1     -43.633  13.278  21.235  0.00  0.00    -0.001 A 
ATOM     25  C   UNL d   1     -44.416  11.831  22.675  0.00  0.00     0.046 A 
ATOM     26  C   UNL d   1     -45.208  12.028  22.801  0.00  0.00     0.038 A 
ATOM     27  C   UNL d   1     -43.713  12.082  22.223  0.00  0.00    -0.022 A 
ATOM     28  C   UNL d   1     -43.927  12.719  21.788  0.00  0.00    -0.006 A 
ATOM     29  C   UNL d   1     -44.741  12.932  21.908  0.00  0.00    -0.002 A 
ENDBRANCH   2  20
TORSDOF 5
ENDMDL
MODEL 2
REMARK VINA RESULT:      -5.9      1.537      5.252
REMARK  5 active torsions:
REMARK  status: ('A' for Active; 'I' for Inactive)
REMARK    1  A    between atoms: C_2  and  S_1 
REMARK    2  A    between atoms: N_4  and  S_1 
REMARK    3  A    between atoms: C_3  and  N_5 
REMARK    4  A    between atoms: O_26  and  C_14 
REMARK    5  A    between atoms: O_27  and  C_24 
ROOT
ATOM      1  N   UNL d   1     -47.056  13.102  22.956  0.00  0.00    -0.226 N 
ATOM      2  N   UNL d   1     -48.569  13.695  23.193  0.00  0.00    -0.319 N 
ATOM      3  C   UNL d   1     -47.675  12.589  23.129  0.00  0.00     0.110 A 
ATOM      4  C   UNL d   1     -47.190  13.910  22.900  0.00  0.00     0.110 A 
ATOM      5  C   UNL d   1     -47.944  14.214  23.018  0.00  0.00     0.096 A 
ATOM      6  C   UNL d   1     -48.439  12.889  23.249  0.00  0.00     0.096 A 
ENDROOT
BRANCH   1   7
ATOM      7  S   UNL d   1     -46.296  12.803  22.837  0.00  0.00     0.273 S 
ATOM      8  O   UNL d   1     -46.579  12.377  22.190  0.00  0.00    -0.200 OA
ATOM      9  O   UNL d   1     -46.006  13.227  23.482  0.00  0.00    -0.200 OA
BRANCH   7  10
ATOM     10  C   UNL d   1     -45.545  12.492  22.698  0.00  0.00     0.128 A 
ATOM     11  C   UNL d   1     -45.022  12.905  22.223  0.00  0.00     0.039 A 
ATOM     12  C   UNL d   1     -44.268  12.603  22.077  0.00  0.00     0.095 A 
ATOM     13  C   UNL d   1     -44.043  11.881  22.413  0.00  0.00     0.026 A 
ATOM     14  C   UNL d   1     -44.575  11.466  22.894  0.00  0.00     0.027 A 
ATOM     15  C   UNL d   1     -45.327  11.774  23.035  0.00  0.00     0.106 A 
BRANCH  12  16
ATOM     16  O   UNL d   1     -43.739  13.012  21.601  0.00  0.00    -0.328 OA
ATOM     17  C   UNL d   1     -42.969  12.725  21.505  0.00  0.00     0.181 C 
ENDBRANCH  12  16
BRANCH  15  18
ATOM     18  O   UNL d   1     -45.861  11.366  23.512  0.00  0.00    -0.327 OA
ATOM     19  C   UNL d   1     -45.719  10.572  23.692  0.00  0.00     0.181 C 
ENDBRANCH  15  18
ENDBRANCH   7  10
ENDBRANCH   1   7
BRANCH   2  20
ATOM     20  C   UNL d   1     -49.325  14.005  23.311  0.00  0.00     0.107 A 
ATOM     21  C   UNL d   1     -49.272  14.762  23.377  0.00  0.00    -0.002 A 
ATOM     22  C   UNL d   1     -50.003  15.066  23.491  0.00  0.00    -0.006 A 
ATOM     23  C   UNL d   1     -50.522  14.512  23.498  0.00  0.00    -0.022 A 
ATOM     24  C   UNL d   1     -50.382  15.919  23.617  0.00  0.00    -0.001 A 
ATOM     25  C   UNL d   1     -50.646  13.756  23.440  0.00  0.00     0.046 A 
ATOM     26  C   UNL d   1     -49.894  13.436  23.322  0.00  0.00     0.038 A 
ATOM     27  C   UNL d   1     -51.052  14.519  23.560  0.00  0.00    -0.022 A 
ATOM     28  C   UNL d   1     -50.491  15.090  23.550  0.00  0.00    -0.006 A 
ATOM     29  C   UNL d   1     -49.712  14.773  23.429  0.00  0.00    -0.002 A 
ENDBRANCH   2  20
TORSDOF 5
ENDMDL
MODEL 3
REMARK VINA RESULT:      -5.8      8.790      9.922
REMARK  5 active torsions:
REMARK  status: ('A' for Active; 'I' for Inactive)
REMARK    1  A    between atoms: C_2  and  S_1 
REMARK    2  A    between atoms: N_4  and  S_1 
REMARK    3  A    between atoms: C_3  and  N_5 
REMARK    4  A    between atoms: O_26  and  C_14 
REMARK    5  A    between atoms: O_27  and  C_24 
ROOT
ATOM      1  N   UNL d   1     -39.062  14.820  19.415  0.00  0.00    -0.226 N 
ATOM      2  N   UNL d   1     -38.947  15.015  21.042  0.00  0.00    -0.319 N 
ATOM      3  C   UNL d   1     -38.471  15.297  19.730  0.00  0.00     0.110 A 
ATOM      4  C   UNL d   1     -39.596  14.441  19.910  0.00  0.00     0.110 A 
ATOM      5  C   UNL d   1     -39.545  14.534  20.725  0.00  0.00     0.096 A 
ATOM      6  C   UNL d   1     -38.413  15.395  20.552  0.00  0.00     0.096 A 
ENDROOT
BRANCH   1   7
ATOM      7  S   UNL d   1     -39.120  14.722  18.598  0.00  0.00     0.273 S 
ATOM      8  O   UNL d   1     -38.645  15.389  18.498  0.00  0.00    -0.200 OA
ATOM      9  O   UNL d   1     -39.596  14.055  18.690  0.00  0.00    -0.200 OA
BRANCH   7  10
ATOM     10  C   UNL d   1     -39.163  14.645  17.778  0.00  0.00     0.128 A 
ATOM     11  C   UNL d   1     -38.596  14.205  17.387  0.00  0.00     0.039 A 
ATOM     12  C   UNL d   1     -38.629  14.121  16.567  0.00  0.00     0.095 A 
ATOM     13  C   UNL d   1     -39.239  14.482  16.142  0.00  0.00     0.026 A 
ATOM     14  C   UNL d   1     -39.814  14.927  16.541  0.00  0.00     0.027 A 
ATOM     15  C   UNL d   1     -39.773  15.007  17.361  0.00  0.00     0.106 A 
BRANCH  12  16
ATOM     16  O   UNL d   1     -38.062  13.681  16.168  0.00  0.00    -0.328 OA
ATOM     17  C   UNL d   1     -38.015  13.725  15.343  0.00  0.00     0.181 C 
ENDBRANCH  12  16
BRANCH  15  18
ATOM     18  O   UNL d   1     -40.341  15.448  17.764  0.00  0.00    -0.327 OA
ATOM     19  C   UNL d   1     -40.931  15.837  17.337  0.00  0.00     0.181 C 
ENDBRANCH  15  18
ENDBRANCH   7  10
ENDBRANCH   1   7
BRANCH   2  20
ATOM     20  C   UNL d   1     -38.898  15.106  21.861  0.00  0.00     0.107 A 
ATOM     21  C   UNL d   1     -38.653  14.453  22.165  0.00  0.00    -0.002 A 
ATOM     22  C   UNL d   1     -38.604  14.537  22.960  0.00  0.00    -0.006 A 
ATOM     23  C   UNL d   1     -38.816  15.235  23.166  0.00  0.00    -0.022 A 
ATOM     24  C   UNL d   1     -38.356  14.001  23.695  0.00  0.00    -0.001 A 
ATOM     25  C   UNL d   1     -39.067  15.920  22.924  0.00  0.00     0.046 A 
ATOM     26  C   UNL d   1     -39.119  15.841  22.105  0.00  0.00     0.038 A 
ATOM     27  C   UNL d   1     -38.850  15.474  23.642  0.00  0.00    -0.022 A 
ATOM     28  C   UNL d   1     -38.629  14.741  23.407  0.00  0.00    -0.006 A 
ATOM     29  C   UNL d   1     -38.678  14.646  22.563  0.00  0.00    -0.002 A 
ENDBRANCH   2  20
TORSDOF 5
ENDMDL
MODEL 4
REMARK VINA RESULT:      -5.3      8.246     10.168
REMARK  5 active torsions:
REMARK  status: ('A' for Active; 'I' for Inactive)
REMARK    1  A    between atoms: C_2  and  S_1 
REMARK    2  A    between atoms: N_4  and  S_1 
REMARK    3  A    between atoms: C_3  and  N_5 
REMARK    4  A    between atoms: O_26  and  C_14 
REMARK    5  A    between atoms: O_27  and  C_24 
ROOT
ATOM      1  N   UNL d   1     -38.755  14.339  19.058  0.00  0.00    -0.226 N 
ATOM      2  N   UNL d   1     -38.433  14.227  17.451  0.00  0.00    -0.319 N 
ATOM      3  C   UNL d   1     -38.182  14.823  18.720  0.00  0.00     0.110 A 
ATOM      4  C   UNL d   1     -39.168  13.800  18.597  0.00  0.00     0.110 A 
ATOM      5  C   UNL d   1     -39.012  13.738  17.793  0.00  0.00     0.096 A 
ATOM      6  C   UNL d   1     -38.020  14.766  17.909  0.00  0.00     0.096 A 
ENDROOT
BRANCH   1   7
ATOM      7  S   UNL d   1     -38.917  14.396  19.866  0.00  0.00     0.273 S 
ATOM      8  O   UNL d   1     -38.402  15.039  19.911  0.00  0.00    -0.200 OA
ATOM      9  O   UNL d   1     -39.434  13.754  19.829  0.00  0.00    -0.200 OA
BRANCH   7  10
ATOM     10  C   UNL d   1     -39.063  14.472  20.674  0.00  0.00     0.128 A 
ATOM     11  C   UNL d   1     -38.615  14.040  21.204  0.00  0.00     0.039 A 
ATOM     12  C   UNL d   1     -38.752  14.108  22.015  0.00  0.00     0.095 A 
ATOM     13  C   UNL d   1     -39.345  14.615  22.289  0.00  0.00     0.026 A 
ATOM     14  C   UNL d   1     -39.797  15.051  21.749  0.00  0.00     0.027 A 
ATOM     15  C   UNL d   1     -39.654  14.978  20.940  0.00  0.00     0.106 A 
BRANCH  12  16
ATOM     16  O   UNL d   1     -38.305  13.676  22.552  0.00  0.00    -0.328 OA
ATOM     17  C   UNL d   1     -38.652  13.418  23.257  0.00  0.00     0.181 C 
ENDBRANCH  12  16
BRANCH  15  18
ATOM     18  O   UNL d   1     -40.100  15.409  20.399  0.00  0.00    -0.327 OA
ATOM     19  C   UNL d   1     -40.688  15.922  20.673  0.00  0.00     0.181 C 
ENDBRANCH  15  18
ENDBRANCH   7  10
ENDBRANCH   1   7
BRANCH   2  20
ATOM     20  C   UNL d   1     -38.280  14.162  16.643  0.00  0.00     0.107 A 
ATOM     21  C   UNL d   1     -38.247  14.861  16.344  0.00  0.00    -0.002 A 
ATOM     22  C   UNL d   1     -38.098  14.802  15.559  0.00  0.00    -0.006 A 
ATOM     23  C   UNL d   1     -38.036  14.074  15.355  0.00  0.00    -0.022 A 
ATOM     24  C   UNL d   1     -37.982  15.393  14.834  0.00  0.00    -0.001 A 
ATOM     25  C   UNL d   1     -38.057  13.344  15.593  0.00  0.00     0.046 A 
ATOM     26  C   UNL d   1     -38.210  13.397  16.402  0.00  0.00     0.038 A 
ATOM     27  C   UNL d   1     -37.940  13.841  14.885  0.00  0.00    -0.022 A 
ATOM     28  C   UNL d   1     -38.009  14.604  15.118  0.00  0.00    -0.006 A 
ATOM     29  C   UNL d   1     -38.167  14.672  15.951  0.00  0.00    -0.002 A 
ENDBRANCH   2  20
TORSDOF 5
ENDMDL
