MODEL 1
REMARK VINA RESULT:      -6.0      0.000      0.000
REMARK  5 active torsions:
REMARK  status: ('A' for Active; 'I' for Inactive)
REMARK    1  A    between atoms: N_6  and  C_1 
REMARK    2  A    between atoms: S_10  and  C_4 
REMARK       I    between atoms: C_7  and  N_6 
REMARK       I    between atoms: N_8  and  C_7 
REMARK    3  A    between atoms: C_11  and  N_8 
REMARK    4  A    between atoms: C_12  and  S_10 
REMARK    5  A    between atoms: C_15  and  C_12 
ROOT
ATOM      1  N   UNL d   1     -41.833-122.429 -51.503  0.00  0.00    -0.321 NA
ATOM      2  C   UNL d   1     -41.523-122.223 -52.108  0.00  0.00     0.422 C 
ATOM      3  N   UNL d   1     -41.123-121.955 -52.843  0.00  0.00    -0.180 NA
ATOM      4  O   UNL d   1     -41.992-122.581 -52.491  0.00  0.00    -0.228 OA
ENDROOT
BRANCH   1   5
ATOM      5  C   UNL d   1     -42.088-122.587 -50.680  0.00  0.00     0.271 A 
ATOM      6  S   UNL d   1     -41.882-123.007 -50.147  0.00  0.00    -0.006 SA
ATOM      7  C   UNL d   1     -42.241-122.982 -49.529  0.00  0.00     0.166 A 
ATOM      8  N   UNL d   1     -42.795-122.543 -49.452  0.00  0.00    -0.132 NA
ATOM      9  N   UNL d   1     -42.642-122.148 -50.603  0.00  0.00    -0.107 NA
BRANCH   7  10
ATOM     10  S   UNL d   1     -42.136-123.353 -48.912  0.00  0.00    -0.059 SA
BRANCH  10  11
ATOM     11  C   UNL d   1     -42.391-123.039 -48.192  0.00  0.00     0.037 C 
BRANCH  11  12
ATOM     12  C   UNL d   1     -42.309-123.480 -47.500  0.00  0.00     0.007 C 
ATOM     13  C   UNL d   1     -42.214-123.102 -46.774  0.00  0.00     0.001 C 
ENDBRANCH  11  12
ENDBRANCH  10  11
ENDBRANCH   7  10
ENDBRANCH   1   5
BRANCH   3  14
ATOM     14  C   UNL d   1     -41.419-122.199 -53.584  0.00  0.00     0.087 A 
ATOM     15  C   UNL d   1     -41.151-122.894 -53.919  0.00  0.00     0.019 A 
ATOM     16  C   UNL d   1     -41.447-123.139 -54.661  0.00  0.00     0.002 A 
ATOM     17  C   UNL d   1     -42.006-122.681 -55.053  0.00  0.00     0.000 A 
ATOM     18  C   UNL d   1     -42.278-121.972 -54.711  0.00  0.00     0.002 A 
ATOM     19  C   UNL d   1     -41.982-121.733 -53.975  0.00  0.00     0.019 A 
ENDBRANCH   3  14
TORSDOF 5
ENDMDL
MODEL 2
REMARK VINA RESULT:      -5.6      1.610      5.063
REMARK  5 active torsions:
REMARK  status: ('A' for Active; 'I' for Inactive)
REMARK    1  A    between atoms: N_6  and  C_1 
REMARK    2  A    between atoms: S_10  and  C_4 
REMARK       I    between atoms: C_7  and  N_6 
REMARK       I    between atoms: N_8  and  C_7 
REMARK    3  A    between atoms: C_11  and  N_8 
REMARK    4  A    between atoms: C_12  and  S_10 
REMARK    5  A    between atoms: C_15  and  C_12 
ROOT
ATOM      1  N   UNL d   1     -41.477-122.941 -51.712  0.00  0.00    -0.321 NA
ATOM      2  C   UNL d   1     -41.454-122.728 -51.035  0.00  0.00     0.422 C 
ATOM      3  N   UNL d   1     -41.411-122.446 -50.203  0.00  0.00    -0.180 NA
ATOM      4  O   UNL d   1     -41.881-123.250 -50.838  0.00  0.00    -0.228 OA
ENDROOT
BRANCH   1   5
ATOM      5  C   UNL d   1     -41.397-123.065 -52.575  0.00  0.00     0.271 A 
ATOM      6  S   UNL d   1     -41.366-122.658 -53.155  0.00  0.00    -0.006 SA
ATOM      7  C   UNL d   1     -41.296-122.971 -53.794  0.00  0.00     0.166 A 
ATOM      8  N   UNL d   1     -41.259-123.680 -53.846  0.00  0.00    -0.132 NA
ATOM      9  N   UNL d   1     -41.359-123.773 -52.626  0.00  0.00    -0.107 NA
BRANCH   7  10
ATOM     10  S   UNL d   1     -41.253-122.676 -54.458  0.00  0.00    -0.059 SA
BRANCH  10  11
ATOM     11  C   UNL d   1     -41.934-122.395 -54.830  0.00  0.00     0.037 C 
BRANCH  11  12
ATOM     12  C   UNL d   1     -41.871-121.970 -55.534  0.00  0.00     0.007 C 
ATOM     13  C   UNL d   1     -42.530-121.864 -56.018  0.00  0.00     0.001 C 
ENDBRANCH  11  12
ENDBRANCH  10  11
ENDBRANCH   7  10
ENDBRANCH   1   5
BRANCH   3  14
ATOM     14  C   UNL d   1     -41.832-122.853 -49.609  0.00  0.00     0.087 A 
ATOM     15  C   UNL d   1     -41.449-123.409 -49.149  0.00  0.00     0.019 A 
ATOM     16  C   UNL d   1     -41.870-123.817 -48.554  0.00  0.00     0.002 A 
ATOM     17  C   UNL d   1     -42.668-123.660 -48.431  0.00  0.00     0.000 A 
ATOM     18  C   UNL d   1     -43.057-123.093 -48.901  0.00  0.00     0.002 A 
ATOM     19  C   UNL d   1     -42.636-122.691 -49.490  0.00  0.00     0.019 A 
ENDBRANCH   3  14
TORSDOF 5
ENDMDL
