MODEL 1
REMARK VINA RESULT:      -3.3      0.000      0.000
REMARK  4 active torsions:
REMARK  status: ('A' for Active; 'I' for Inactive)
REMARK    1  A    between atoms: N_3  and  S_1 
REMARK    2  A    between atoms: N_4  and  S_1 
REMARK    3  A    between atoms: N_2  and  C_7 
REMARK    4  A    between atoms: C_10  and  N_4 
ROOT
ATOM      1  N   UNL d   1      33.221  20.930 -21.339  0.00  0.00    -0.144 NA
ENDROOT
BRANCH   1   2
ATOM      2  S   UNL d   1      32.541  21.311 -21.066  0.00  0.00     0.351 S 
ATOM      3  O   UNL d   1      32.096  20.639 -21.240  0.00  0.00    -0.180 OA
ATOM      4  O   UNL d   1      31.730  21.305 -20.916  0.00  0.00    -0.180 OA
BRANCH   2   5
ATOM      5  N   UNL d   1      32.588  22.083 -20.779  0.00  0.00    -0.215 N 
ATOM      6  C   UNL d   1      32.124  22.676 -21.114  0.00  0.00     0.093 A 
ATOM      7  C   UNL d   1      32.171  23.448 -20.827  0.00  0.00     0.020 A 
ATOM      8  C   UNL d   1      32.681  23.623 -20.207  0.00  0.00     0.003 A 
ATOM      9  C   UNL d   1      33.147  23.033 -19.870  0.00  0.00     0.020 A 
ATOM     10  C   UNL d   1      33.100  22.261 -20.157  0.00  0.00     0.093 A 
ENDBRANCH   2   5
ENDBRANCH   1   2
BRANCH   1  11
ATOM     11  C   UNL d   1      33.178  20.430 -21.994  0.00  0.00     0.095 A 
ATOM     12  C   UNL d   1      33.075  19.618 -21.886  0.00  0.00     0.022 A 
ATOM     13  C   UNL d   1      33.033  19.118 -22.541  0.00  0.00     0.025 A 
ATOM     14  C   UNL d   1      33.093  19.429 -23.303  0.00  0.00     0.127 A 
ATOM     15  C   UNL d   1      33.197  20.244 -23.413  0.00  0.00     0.025 A 
ATOM     16  C   UNL d   1      33.239  20.745 -22.758  0.00  0.00     0.022 A 
BRANCH  14  17
ATOM     17  N   UNL d   1      33.051  18.929 -23.958  0.00  0.00    -0.114 N 
ATOM     18  O   UNL d   1      33.036  18.107 -23.848  0.00  0.00    -0.532 OA
ATOM     19  O   UNL d   1      33.023  19.247 -24.718  0.00  0.00    -0.532 OA
ENDBRANCH  14  17
ENDBRANCH   1  11
TORSDOF 4
ENDMDL
MODEL 2
REMARK VINA RESULT:      -3.0      3.625      5.298
REMARK  4 active torsions:
REMARK  status: ('A' for Active; 'I' for Inactive)
REMARK    1  A    between atoms: N_3  and  S_1 
REMARK    2  A    between atoms: N_4  and  S_1 
REMARK    3  A    between atoms: N_2  and  C_7 
REMARK    4  A    between atoms: C_10  and  N_4 
ROOT
ATOM      1  N   UNL d   1      31.500  17.043 -24.538  0.00  0.00    -0.144 NA
ENDROOT
BRANCH   1   2
ATOM      2  S   UNL d   1      32.024  17.248 -23.934  0.00  0.00     0.351 S 
ATOM      3  O   UNL d   1      31.857  16.538 -23.548  0.00  0.00    -0.180 OA
ATOM      4  O   UNL d   1      32.394  17.071 -23.218  0.00  0.00    -0.180 OA
BRANCH   2   5
ATOM      5  N   UNL d   1      32.431  17.966 -23.967  0.00  0.00    -0.215 N 
ATOM      6  C   UNL d   1      32.489  18.437 -23.293  0.00  0.00     0.093 A 
ATOM      7  C   UNL d   1      32.895  19.155 -23.326  0.00  0.00     0.020 A 
ATOM      8  C   UNL d   1      33.241  19.396 -24.032  0.00  0.00     0.003 A 
ATOM      9  C   UNL d   1      33.185  18.927 -24.707  0.00  0.00     0.020 A 
ATOM     10  C   UNL d   1      32.779  18.210 -24.674  0.00  0.00     0.093 A 
ENDBRANCH   2   5
ENDBRANCH   1   2
BRANCH   1  11
ATOM     11  C   UNL d   1      30.725  16.826 -24.356  0.00  0.00     0.095 A 
ATOM     12  C   UNL d   1      30.102  17.340 -24.525  0.00  0.00     0.022 A 
ATOM     13  C   UNL d   1      29.328  17.123 -24.343  0.00  0.00     0.025 A 
ATOM     14  C   UNL d   1      29.176  16.391 -23.991  0.00  0.00     0.127 A 
ATOM     15  C   UNL d   1      29.801  15.874 -23.821  0.00  0.00     0.025 A 
ATOM     16  C   UNL d   1      30.575  16.091 -24.003  0.00  0.00     0.022 A 
BRANCH  14  17
ATOM     17  N   UNL d   1      28.401  16.174 -23.809  0.00  0.00    -0.114 N 
ATOM     18  O   UNL d   1      27.987  16.582 -23.218  0.00  0.00    -0.532 OA
ATOM     19  O   UNL d   1      28.041  15.552 -24.215  0.00  0.00    -0.532 OA
ENDBRANCH  14  17
ENDBRANCH   1  11
TORSDOF 4
ENDMDL
MODEL 3
REMARK VINA RESULT:      -2.8      3.897      5.912
REMARK  4 active torsions:
REMARK  status: ('A' for Active; 'I' for Inactive)
REMARK    1  A    between atoms: N_3  and  S_1 
REMARK    2  A    between atoms: N_4  and  S_1 
REMARK    3  A    between atoms: N_2  and  C_7 
REMARK    4  A    between atoms: C_10  and  N_4 
ROOT
ATOM      1  N   UNL d   1      31.046  16.311 -24.210  0.00  0.00    -0.144 NA
ENDROOT
BRANCH   1   2
ATOM      2  S   UNL d   1      30.636  15.892 -23.629  0.00  0.00     0.351 S 
ATOM      3  O   UNL d   1      31.338  15.798 -23.204  0.00  0.00    -0.180 OA
ATOM      4  O   UNL d   1      30.632  15.482 -22.913  0.00  0.00    -0.180 OA
BRANCH   2   5
ATOM      5  N   UNL d   1      29.825  15.765 -23.706  0.00  0.00    -0.215 N 
ATOM      6  C   UNL d   1      29.505  15.584 -24.444  0.00  0.00     0.093 A 
ATOM      7  C   UNL d   1      28.693  15.457 -24.521  0.00  0.00     0.020 A 
ATOM      8  C   UNL d   1      28.207  15.512 -23.861  0.00  0.00     0.003 A 
ATOM      9  C   UNL d   1      28.523  15.693 -23.122  0.00  0.00     0.020 A 
ATOM     10  C   UNL d   1      29.334  15.820 -23.045  0.00  0.00     0.093 A 
ENDBRANCH   2   5
ENDBRANCH   1   2
BRANCH   1  11
ATOM     11  C   UNL d   1      31.531  16.944 -23.999  0.00  0.00     0.095 A 
ATOM     12  C   UNL d   1      32.257  16.803 -23.634  0.00  0.00     0.022 A 
ATOM     13  C   UNL d   1      32.742  17.437 -23.422  0.00  0.00     0.025 A 
ATOM     14  C   UNL d   1      32.500  18.211 -23.575  0.00  0.00     0.127 A 
ATOM     15  C   UNL d   1      31.770  18.354 -23.942  0.00  0.00     0.025 A 
ATOM     16  C   UNL d   1      31.286  17.721 -24.154  0.00  0.00     0.022 A 
BRANCH  14  17
ATOM     17  N   UNL d   1      32.984  18.844 -23.364  0.00  0.00    -0.114 N 
ATOM     18  O   UNL d   1      33.214  18.941 -22.573  0.00  0.00    -0.532 OA
ATOM     19  O   UNL d   1      33.239  19.379 -23.939  0.00  0.00    -0.532 OA
ENDBRANCH  14  17
ENDBRANCH   1  11
TORSDOF 4
ENDMDL
MODEL 4
REMARK VINA RESULT:      -2.8      1.515      4.220
REMARK  4 active torsions:
REMARK  status: ('A' for Active; 'I' for Inactive)
REMARK    1  A    between atoms: N_3  and  S_1 
REMARK    2  A    between atoms: N_4  and  S_1 
REMARK    3  A    between atoms: N_2  and  C_7 
REMARK    4  A    between atoms: C_10  and  N_4 
ROOT
ATOM      1  N   UNL d   1      33.233  19.718 -22.211  0.00  0.00    -0.144 NA
ENDROOT
BRANCH   1   2
ATOM      2  S   UNL d   1      33.069  19.521 -22.996  0.00  0.00     0.351 S 
ATOM      3  O   UNL d   1      33.241  20.294 -23.225  0.00  0.00    -0.180 OA
ATOM      4  O   UNL d   1      33.013  19.737 -23.790  0.00  0.00    -0.180 OA
BRANCH   2   5
ATOM      5  N   UNL d   1      32.838  18.752 -23.188  0.00  0.00    -0.215 N 
ATOM      6  C   UNL d   1      32.244  18.628 -23.746  0.00  0.00     0.093 A 
ATOM      7  C   UNL d   1      32.013  17.860 -23.939  0.00  0.00     0.020 A 
ATOM      8  C   UNL d   1      32.378  17.220 -23.573  0.00  0.00     0.003 A 
ATOM      9  C   UNL d   1      32.972  17.340 -23.015  0.00  0.00     0.020 A 
ATOM     10  C   UNL d   1      33.202  18.109 -22.822  0.00  0.00     0.093 A 
ENDBRANCH   2   5
ENDBRANCH   1   2
BRANCH   1  11
ATOM     11  C   UNL d   1      32.977  20.440 -21.905  0.00  0.00     0.095 A 
ATOM     12  C   UNL d   1      32.468  20.454 -21.255  0.00  0.00     0.022 A 
ATOM     13  C   UNL d   1      32.212  21.176 -20.948  0.00  0.00     0.025 A 
ATOM     14  C   UNL d   1      32.464  21.883 -21.292  0.00  0.00     0.127 A 
ATOM     15  C   UNL d   1      32.976  21.870 -21.945  0.00  0.00     0.025 A 
ATOM     16  C   UNL d   1      33.232  21.148 -22.251  0.00  0.00     0.022 A 
BRANCH  14  17
ATOM     17  N   UNL d   1      32.208  22.605 -20.985  0.00  0.00    -0.114 N 
ATOM     18  O   UNL d   1      32.458  22.845 -20.232  0.00  0.00    -0.532 OA
ATOM     19  O   UNL d   1      31.705  23.086 -21.429  0.00  0.00    -0.532 OA
ENDBRANCH  14  17
ENDBRANCH   1  11
TORSDOF 4
ENDMDL
MODEL 5
REMARK VINA RESULT:      -2.4      2.067      4.839
REMARK  4 active torsions:
REMARK  status: ('A' for Active; 'I' for Inactive)
REMARK    1  A    between atoms: N_3  and  S_1 
REMARK    2  A    between atoms: N_4  and  S_1 
REMARK    3  A    between atoms: N_2  and  C_7 
REMARK    4  A    between atoms: C_10  and  N_4 
ROOT
ATOM      1  N   UNL d   1      33.240  18.503 -23.552  0.00  0.00    -0.144 NA
ENDROOT
BRANCH   1   2
ATOM      2  S   UNL d   1      32.557  18.098 -23.777  0.00  0.00     0.351 S 
ATOM      3  O   UNL d   1      32.160  18.816 -23.861  0.00  0.00    -0.180 OA
ATOM      4  O   UNL d   1      31.766  18.106 -24.013  0.00  0.00    -0.180 OA
BRANCH   2   5
ATOM      5  N   UNL d   1      32.559  17.274 -23.816  0.00  0.00    -0.215 N 
ATOM      6  C   UNL d   1      31.913  16.846 -23.534  0.00  0.00     0.093 A 
ATOM      7  C   UNL d   1      31.916  16.022 -23.573  0.00  0.00     0.020 A 
ATOM      8  C   UNL d   1      32.564  15.630 -23.894  0.00  0.00     0.003 A 
ATOM      9  C   UNL d   1      33.211  16.054 -24.176  0.00  0.00     0.020 A 
ATOM     10  C   UNL d   1      33.209  16.878 -24.137  0.00  0.00     0.093 A 
ENDBRANCH   2   5
ENDBRANCH   1   2
BRANCH   1  11
ATOM     11  C   UNL d   1      33.196  19.108 -22.993  0.00  0.00     0.095 A 
ATOM     12  C   UNL d   1      33.111  19.891 -23.239  0.00  0.00     0.022 A 
ATOM     13  C   UNL d   1      33.067  20.496 -22.680  0.00  0.00     0.025 A 
ATOM     14  C   UNL d   1      33.108  20.318 -21.875  0.00  0.00     0.127 A 
ATOM     15  C   UNL d   1      33.194  19.532 -21.626  0.00  0.00     0.025 A 
ATOM     16  C   UNL d   1      33.238  18.927 -22.185  0.00  0.00     0.022 A 
BRANCH  14  17
ATOM     17  N   UNL d   1      33.065  20.923 -21.316  0.00  0.00    -0.114 N 
ATOM     18  O   UNL d   1      33.196  20.755 -20.515  0.00  0.00    -0.532 OA
ATOM     19  O   UNL d   1      32.891  21.694 -21.555  0.00  0.00    -0.532 OA
ENDBRANCH  14  17
ENDBRANCH   1  11
TORSDOF 4
ENDMDL
MODEL 6
REMARK VINA RESULT:      -2.4      1.900      2.716
REMARK  4 active torsions:
REMARK  status: ('A' for Active; 'I' for Inactive)
REMARK    1  A    between atoms: N_3  and  S_1 
REMARK    2  A    between atoms: N_4  and  S_1 
REMARK    3  A    between atoms: N_2  and  C_7 
REMARK    4  A    between atoms: C_10  and  N_4 
ROOT
ATOM      1  N   UNL d   1      33.030  19.162 -23.274  0.00  0.00    -0.144 NA
ENDROOT
BRANCH   1   2
ATOM      2  S   UNL d   1      33.120  19.306 -22.466  0.00  0.00     0.351 S 
ATOM      3  O   UNL d   1      33.207  18.496 -22.333  0.00  0.00    -0.180 OA
ATOM      4  O   UNL d   1      33.241  19.025 -21.700  0.00  0.00    -0.180 OA
BRANCH   2   5
ATOM      5  N   UNL d   1      33.089  20.078 -22.178  0.00  0.00    -0.215 N 
ATOM      6  C   UNL d   1      33.241  20.712 -22.683  0.00  0.00     0.093 A 
ATOM      7  C   UNL d   1      33.211  21.485 -22.395  0.00  0.00     0.020 A 
ATOM      8  C   UNL d   1      33.029  21.619 -21.604  0.00  0.00     0.003 A 
ATOM      9  C   UNL d   1      32.877  20.988 -21.097  0.00  0.00     0.020 A 
ATOM     10  C   UNL d   1      32.907  20.216 -21.385  0.00  0.00     0.093 A 
ENDBRANCH   2   5
ENDBRANCH   1   2
BRANCH   1  11
ATOM     11  C   UNL d   1      32.708  18.448 -23.533  0.00  0.00     0.095 A 
ATOM     12  C   UNL d   1      33.205  17.813 -23.709  0.00  0.00     0.022 A 
ATOM     13  C   UNL d   1      32.883  17.098 -23.968  0.00  0.00     0.025 A 
ATOM     14  C   UNL d   1      32.065  17.020 -24.051  0.00  0.00     0.127 A 
ATOM     15  C   UNL d   1      31.566  17.658 -23.875  0.00  0.00     0.025 A 
ATOM     16  C   UNL d   1      31.887  18.372 -23.616  0.00  0.00     0.022 A 
BRANCH  14  17
ATOM     17  N   UNL d   1      31.743  16.306 -24.310  0.00  0.00    -0.114 N 
ATOM     18  O   UNL d   1      31.232  15.880 -23.815  0.00  0.00    -0.532 OA
ATOM     19  O   UNL d   1      31.931  16.017 -25.060  0.00  0.00    -0.532 OA
ENDBRANCH  14  17
ENDBRANCH   1  11
TORSDOF 4
ENDMDL
MODEL 7
REMARK VINA RESULT:      -2.2      2.512      4.835
REMARK  4 active torsions:
REMARK  status: ('A' for Active; 'I' for Inactive)
REMARK    1  A    between atoms: N_3  and  S_1 
REMARK    2  A    between atoms: N_4  and  S_1 
REMARK    3  A    between atoms: N_2  and  C_7 
REMARK    4  A    between atoms: C_10  and  N_4 
ROOT
ATOM      1  N   UNL d   1      33.123  23.053 -20.298  0.00  0.00    -0.144 NA
ENDROOT
BRANCH   1   2
ATOM      2  S   UNL d   1      32.531  22.835 -20.831  0.00  0.00     0.351 S 
ATOM      3  O   UNL d   1      31.966  22.914 -20.234  0.00  0.00    -0.180 OA
ATOM      4  O   UNL d   1      31.735  22.687 -20.993  0.00  0.00    -0.180 OA
BRANCH   2   5
ATOM      5  N   UNL d   1      32.723  22.658 -21.613  0.00  0.00    -0.215 N 
ATOM      6  C   UNL d   1      32.904  21.883 -21.828  0.00  0.00     0.093 A 
ATOM      7  C   UNL d   1      33.097  21.707 -22.610  0.00  0.00     0.020 A 
ATOM      8  C   UNL d   1      33.108  22.306 -23.173  0.00  0.00     0.003 A 
ATOM      9  C   UNL d   1      32.928  23.081 -22.962  0.00  0.00     0.020 A 
ATOM     10  C   UNL d   1      32.735  23.258 -22.180  0.00  0.00     0.093 A 
ENDBRANCH   2   5
ENDBRANCH   1   2
BRANCH   1  11
ATOM     11  C   UNL d   1      32.966  23.065 -19.488  0.00  0.00     0.095 A 
ATOM     12  C   UNL d   1      32.536  23.690 -19.162  0.00  0.00     0.022 A 
ATOM     13  C   UNL d   1      32.379  23.702 -18.352  0.00  0.00     0.025 A 
ATOM     14  C   UNL d   1      32.651  23.091 -17.869  0.00  0.00     0.127 A 
ATOM     15  C   UNL d   1      33.083  22.463 -18.196  0.00  0.00     0.025 A 
ATOM     16  C   UNL d   1      33.240  22.450 -19.006  0.00  0.00     0.022 A 
BRANCH  14  17
ATOM     17  N   UNL d   1      32.494  23.104 -17.059  0.00  0.00    -0.114 N 
ATOM     18  O   UNL d   1      33.113  23.216 -16.521  0.00  0.00    -0.532 OA
ATOM     19  O   UNL d   1      31.721  23.004 -16.788  0.00  0.00    -0.532 OA
ENDBRANCH  14  17
ENDBRANCH   1  11
TORSDOF 4
ENDMDL
MODEL 8
REMARK VINA RESULT:      -1.8      1.470      4.282
REMARK  4 active torsions:
REMARK  status: ('A' for Active; 'I' for Inactive)
REMARK    1  A    between atoms: N_3  and  S_1 
REMARK    2  A    between atoms: N_4  and  S_1 
REMARK    3  A    between atoms: N_2  and  C_7 
REMARK    4  A    between atoms: C_10  and  N_4 
ROOT
ATOM      1  N   UNL d   1      32.652  20.498 -22.575  0.00  0.00    -0.144 NA
ENDROOT
BRANCH   1   2
ATOM      2  S   UNL d   1      32.925  19.731 -22.443  0.00  0.00     0.351 S 
ATOM      3  O   UNL d   1      33.083  19.923 -21.656  0.00  0.00    -0.180 OA
ATOM      4  O   UNL d   1      33.241  19.162 -21.935  0.00  0.00    -0.180 OA
BRANCH   2   5
ATOM      5  N   UNL d   1      32.925  19.181 -23.058  0.00  0.00    -0.215 N 
ATOM      6  C   UNL d   1      33.231  19.388 -23.796  0.00  0.00     0.093 A 
ATOM      7  C   UNL d   1      33.231  18.838 -24.411  0.00  0.00     0.020 A 
ATOM      8  C   UNL d   1      32.925  18.085 -24.285  0.00  0.00     0.003 A 
ATOM      9  C   UNL d   1      32.619  17.875 -23.550  0.00  0.00     0.020 A 
ATOM     10  C   UNL d   1      32.619  18.425 -22.935  0.00  0.00     0.093 A 
ENDBRANCH   2   5
ENDBRANCH   1   2
BRANCH   1  11
ATOM     11  C   UNL d   1      32.697  21.062 -21.974  0.00  0.00     0.095 A 
ATOM     12  C   UNL d   1      33.188  21.720 -22.063  0.00  0.00     0.022 A 
ATOM     13  C   UNL d   1      33.233  22.283 -21.462  0.00  0.00     0.025 A 
ATOM     14  C   UNL d   1      32.788  22.189 -20.772  0.00  0.00     0.127 A 
ATOM     15  C   UNL d   1      32.296  21.528 -20.683  0.00  0.00     0.025 A 
ATOM     16  C   UNL d   1      32.250  20.964 -21.284  0.00  0.00     0.022 A 
BRANCH  14  17
ATOM     17  N   UNL d   1      32.834  22.752 -20.171  0.00  0.00    -0.114 N 
ATOM     18  O   UNL d   1      32.802  23.558 -20.359  0.00  0.00    -0.532 OA
ATOM     19  O   UNL d   1      32.911  22.511 -19.386  0.00  0.00    -0.532 OA
ENDBRANCH  14  17
ENDBRANCH   1  11
TORSDOF 4
ENDMDL
MODEL 9
REMARK VINA RESULT:      -1.2      2.580      3.337
REMARK  4 active torsions:
REMARK  status: ('A' for Active; 'I' for Inactive)
REMARK    1  A    between atoms: N_3  and  S_1 
REMARK    2  A    between atoms: N_4  and  S_1 
REMARK    3  A    between atoms: N_2  and  C_7 
REMARK    4  A    between atoms: C_10  and  N_4 
ROOT
ATOM      1  N   UNL d   1      33.238  22.808 -19.875  0.00  0.00    -0.144 NA
ENDROOT
BRANCH   1   2
ATOM      2  S   UNL d   1      32.653  22.926 -19.304  0.00  0.00     0.351 S 
ATOM      3  O   UNL d   1      32.090  23.016 -19.901  0.00  0.00    -0.180 OA
ATOM      4  O   UNL d   1      31.865  23.073 -19.109  0.00  0.00    -0.180 OA
BRANCH   2   5
ATOM      5  N   UNL d   1      32.848  22.906 -18.503  0.00  0.00    -0.215 N 
ATOM      6  C   UNL d   1      33.043  22.190 -18.144  0.00  0.00     0.093 A 
ATOM      7  C   UNL d   1      33.238  22.170 -17.343  0.00  0.00     0.020 A 
ATOM      8  C   UNL d   1      33.236  22.867 -16.905  0.00  0.00     0.003 A 
ATOM      9  C   UNL d   1      33.042  23.584 -17.260  0.00  0.00     0.020 A 
ATOM     10  C   UNL d   1      32.847  23.603 -18.061  0.00  0.00     0.093 A 
ENDBRANCH   2   5
ENDBRANCH   1   2
BRANCH   1  11
ATOM     11  C   UNL d   1      33.056  22.890 -20.675  0.00  0.00     0.095 A 
ATOM     12  C   UNL d   1      32.691  22.270 -21.080  0.00  0.00     0.022 A 
ATOM     13  C   UNL d   1      32.510  22.351 -21.881  0.00  0.00     0.025 A 
ATOM     14  C   UNL d   1      32.692  23.052 -22.277  0.00  0.00     0.127 A 
ATOM     15  C   UNL d   1      33.059  23.676 -21.871  0.00  0.00     0.025 A 
ATOM     16  C   UNL d   1      33.241  23.594 -21.070  0.00  0.00     0.022 A 
BRANCH  14  17
ATOM     17  N   UNL d   1      32.510  23.133 -23.077  0.00  0.00    -0.114 N 
ATOM     18  O   UNL d   1      31.922  23.667 -23.314  0.00  0.00    -0.532 OA
ATOM     19  O   UNL d   1      32.914  22.684 -23.639  0.00  0.00    -0.532 OA
ENDBRANCH  14  17
ENDBRANCH   1  11
TORSDOF 4
ENDMDL
