MODEL 1
REMARK VINA RESULT:      59.4      0.000      0.000
REMARK  6 active torsions:
REMARK  status: ('A' for Active; 'I' for Inactive)
REMARK    1  A    between atoms: C_12  and  C_3 
REMARK    2  A    between atoms: O_11  and  C_5 
REMARK    3  A    between atoms: O_16  and  C_10 
REMARK    4  A    between atoms: C_13  and  O_11 
REMARK    5  A    between atoms: C_15  and  O_16 
REMARK    6  A    between atoms: O_24  and  C_21 
ROOT
ATOM      1  C   UNL d   1     -51.311  25.451  33.452  0.00  0.00     0.201 A 
ATOM      2  C   UNL d   1     -50.554  25.782  33.431  0.00  0.00     0.085 A 
ATOM      3  C   UNL d   1     -51.409  24.643  33.402  0.00  0.00     0.064 A 
ATOM      4  C   UNL d   1     -49.898  25.287  33.358  0.00  0.00     0.107 A 
ATOM      5  C   UNL d   1     -50.444  26.593  33.481  0.00  0.00     0.110 A 
ATOM      6  C   UNL d   1     -50.753  24.147  33.329  0.00  0.00     0.126 A 
ATOM      7  O   UNL d   1     -49.994  24.467  33.306  0.00  0.00    -0.305 OA
ATOM      8  C   UNL d   1     -49.139  25.606  33.335  0.00  0.00     0.050 A 
ATOM      9  C   UNL d   1     -49.697  26.911  33.459  0.00  0.00     0.050 A 
ATOM     10  C   UNL d   1     -49.042  26.415  33.386  0.00  0.00     0.107 A 
ATOM     11  O   UNL d   1     -51.966  25.947  33.526  0.00  0.00    -0.286 OA
ENDROOT
BRANCH   3  12
ATOM     12  C   UNL d   1     -52.172  24.316  33.424  0.00  0.00     0.005 A 
ATOM     13  C   UNL d   1     -52.274  23.512  33.562  0.00  0.00     0.002 A 
ATOM     14  C   UNL d   1     -53.029  23.189  33.584  0.00  0.00     0.024 A 
ATOM     15  C   UNL d   1     -53.689  23.677  33.467  0.00  0.00     0.094 A 
ATOM     16  C   UNL d   1     -53.590  24.480  33.329  0.00  0.00     0.024 A 
ATOM     17  C   UNL d   1     -52.829  24.802  33.308  0.00  0.00     0.002 A 
BRANCH  15  18
ATOM     18  O   UNL d   1     -54.450  23.355  33.488  0.00  0.00    -0.328 OA
ATOM     19  C   UNL d   1     -54.915  23.426  34.174  0.00  0.00     0.181 C 
ENDBRANCH  15  18
ENDBRANCH   3  12
BRANCH   5  20
ATOM     20  O   UNL d   1     -51.099  27.089  33.554  0.00  0.00    -0.273 OA
BRANCH  20  21
ATOM     21  C   UNL d   1     -51.010  27.904  33.482  0.00  0.00     0.300 C 
ATOM     22  O   UNL d   1     -50.269  28.250  33.585  0.00  0.00    -0.259 OA
ATOM     23  C   UNL d   1     -51.665  28.373  33.307  0.00  0.00     0.074 C 
ENDBRANCH  20  21
ENDBRANCH   5  20
BRANCH  10  24
ATOM     24  O   UNL d   1     -48.278  26.741  33.363  0.00  0.00    -0.273 OA
BRANCH  24  25
ATOM     25  C   UNL d   1     -47.924  27.004  34.059  0.00  0.00     0.300 C 
ATOM     26  O   UNL d   1     -47.994  27.792  34.287  0.00  0.00    -0.259 OA
ATOM     27  C   UNL d   1     -47.496  26.481  34.537  0.00  0.00     0.074 C 
ENDBRANCH  24  25
ENDBRANCH  10  24
TORSDOF 6
ENDMDL
