MODEL 1
REMARK VINA RESULT:      -8.7      0.000      0.000
REMARK  3 active torsions:
REMARK  status: ('A' for Active; 'I' for Inactive)
REMARK    1  A    between atoms: N_5  and  C_2 
REMARK    2  A    between atoms: C_8  and  C_3 
REMARK       I    between atoms: C_7  and  N_5 
REMARK    3  A    between atoms: C_10  and  C_7 
ROOT
ATOM      1  N   UNL d   1      52.456  33.525  53.801  0.00  0.00    -0.200 NA
ATOM      2  C   UNL d   1      51.928  33.194  53.272  0.00  0.00     0.216 A 
ATOM      3  C   UNL d   1      53.152  33.072  53.794  0.00  0.00     0.172 A 
ATOM      4  N   UNL d   1      53.044  32.459  53.253  0.00  0.00    -0.187 NA
ATOM      5  S   UNL d   1      52.284  32.529  52.925  0.00  0.00     0.054 SA
ENDROOT
BRANCH   2   6
ATOM      6  N   UNL d   1      51.168  33.471  53.109  0.00  0.00    -0.181 NA
ATOM      7  C   UNL d   1      51.066  34.106  52.598  0.00  0.00     0.281 C 
ATOM      8  O   UNL d   1      51.721  34.465  52.249  0.00  0.00    -0.265 OA
BRANCH   7   9
ATOM      9  C   UNL d   1      50.315  34.381  52.436  0.00  0.00     0.058 A 
ATOM     10  C   UNL d   1      49.896  34.819  53.001  0.00  0.00     0.005 A 
ATOM     11  C   UNL d   1      49.137  35.097  52.838  0.00  0.00     0.000 A 
ATOM     12  C   UNL d   1      48.796  34.936  52.110  0.00  0.00     0.000 A 
ATOM     13  C   UNL d   1      49.199  34.504  51.543  0.00  0.00     0.000 A 
ATOM     14  C   UNL d   1      49.966  34.224  51.708  0.00  0.00     0.005 A 
ENDBRANCH   7   9
ENDBRANCH   2   6
BRANCH   3  15
ATOM     15  C   UNL d   1      53.824  33.206  54.240  0.00  0.00     0.036 A 
ATOM     16  C   UNL d   1      53.779  33.200  55.063  0.00  0.00     0.003 A 
ATOM     17  C   UNL d   1      54.460  33.335  55.517  0.00  0.00     0.000 A 
ATOM     18  C   UNL d   1      55.183  33.477  55.141  0.00  0.00     0.000 A 
ATOM     19  C   UNL d   1      55.228  33.483  54.313  0.00  0.00     0.000 A 
ATOM     20  C   UNL d   1      54.542  33.347  53.864  0.00  0.00     0.003 A 
ENDBRANCH   3  15
TORSDOF 3
ENDMDL
MODEL 2
REMARK VINA RESULT:      -8.4      1.546      4.663
REMARK  3 active torsions:
REMARK  status: ('A' for Active; 'I' for Inactive)
REMARK    1  A    between atoms: N_5  and  C_2 
REMARK    2  A    between atoms: C_8  and  C_3 
REMARK       I    between atoms: C_7  and  N_5 
REMARK    3  A    between atoms: C_10  and  C_7 
ROOT
ATOM      1  N   UNL d   1      50.899  33.398  53.048  0.00  0.00    -0.200 NA
ATOM      2  C   UNL d   1      51.683  33.317  53.266  0.00  0.00     0.216 A 
ATOM      3  C   UNL d   1      50.760  34.196  52.862  0.00  0.00     0.172 A 
ATOM      4  N   UNL d   1      51.470  34.603  52.969  0.00  0.00    -0.187 NA
ATOM      5  S   UNL d   1      52.047  34.061  53.220  0.00  0.00     0.054 SA
ENDROOT
BRANCH   2   6
ATOM      6  N   UNL d   1      52.051  32.615  53.493  0.00  0.00    -0.181 NA
ATOM      7  C   UNL d   1      52.522  32.208  52.957  0.00  0.00     0.281 C 
ATOM      8  O   UNL d   1      52.625  32.500  52.194  0.00  0.00    -0.265 OA
BRANCH   7   9
ATOM      9  C   UNL d   1      52.886  31.513  53.182  0.00  0.00     0.058 A 
ATOM     10  C   UNL d   1      53.555  31.528  53.671  0.00  0.00     0.005 A 
ATOM     11  C   UNL d   1      53.923  30.825  53.898  0.00  0.00     0.000 A 
ATOM     12  C   UNL d   1      53.623  30.109  53.637  0.00  0.00     0.000 A 
ATOM     13  C   UNL d   1      52.963  30.080  53.153  0.00  0.00     0.000 A 
ATOM     14  C   UNL d   1      52.591  30.789  52.924  0.00  0.00     0.005 A 
ENDBRANCH   7   9
ENDBRANCH   2   6
BRANCH   3  15
ATOM     15  C   UNL d   1      50.052  34.522  52.618  0.00  0.00     0.036 A 
ATOM     16  C   UNL d   1      49.604  34.972  53.144  0.00  0.00     0.003 A 
ATOM     17  C   UNL d   1      48.885  35.304  52.898  0.00  0.00     0.000 A 
ATOM     18  C   UNL d   1      48.619  35.182  52.124  0.00  0.00     0.000 A 
ATOM     19  C   UNL d   1      49.071  34.729  51.595  0.00  0.00     0.000 A 
ATOM     20  C   UNL d   1      49.789  34.400  51.848  0.00  0.00     0.003 A 
ENDBRANCH   3  15
TORSDOF 3
ENDMDL
MODEL 3
REMARK VINA RESULT:      -7.8      0.921      4.785
REMARK  3 active torsions:
REMARK  status: ('A' for Active; 'I' for Inactive)
REMARK    1  A    between atoms: N_5  and  C_2 
REMARK    2  A    between atoms: C_8  and  C_3 
REMARK       I    between atoms: C_7  and  N_5 
REMARK    3  A    between atoms: C_10  and  C_7 
ROOT
ATOM      1  N   UNL d   1      50.653  34.215  53.217  0.00  0.00    -0.200 NA
ATOM      2  C   UNL d   1      51.364  33.883  52.990  0.00  0.00     0.216 A 
ATOM      3  C   UNL d   1      50.250  34.463  52.535  0.00  0.00     0.172 A 
ATOM      4  N   UNL d   1      50.724  34.278  51.886  0.00  0.00    -0.187 NA
ATOM      5  S   UNL d   1      51.418  33.917  52.162  0.00  0.00     0.054 SA
ENDROOT
BRANCH   2   6
ATOM      6  N   UNL d   1      51.934  33.566  53.496  0.00  0.00    -0.181 NA
ATOM      7  C   UNL d   1      52.646  33.959  53.606  0.00  0.00     0.281 C 
ATOM      8  O   UNL d   1      52.792  34.668  53.212  0.00  0.00    -0.265 OA
BRANCH   7   9
ATOM      9  C   UNL d   1      53.210  33.646  54.106  0.00  0.00     0.058 A 
ATOM     10  C   UNL d   1      53.440  32.853  54.038  0.00  0.00     0.005 A 
ATOM     11  C   UNL d   1      54.009  32.537  54.544  0.00  0.00     0.000 A 
ATOM     12  C   UNL d   1      54.349  33.013  55.118  0.00  0.00     0.000 A 
ATOM     13  C   UNL d   1      54.131  33.798  55.196  0.00  0.00     0.000 A 
ATOM     14  C   UNL d   1      53.556  34.118  54.685  0.00  0.00     0.005 A 
ENDBRANCH   7   9
ENDBRANCH   2   6
BRANCH   3  15
ATOM     15  C   UNL d   1      49.517  34.824  52.507  0.00  0.00     0.036 A 
ATOM     16  C   UNL d   1      49.251  35.265  53.151  0.00  0.00     0.003 A 
ATOM     17  C   UNL d   1      48.509  35.632  53.124  0.00  0.00     0.000 A 
ATOM     18  C   UNL d   1      48.036  35.555  52.450  0.00  0.00     0.000 A 
ATOM     19  C   UNL d   1      48.303  35.111  51.803  0.00  0.00     0.000 A 
ATOM     20  C   UNL d   1      49.048  34.746  51.836  0.00  0.00     0.003 A 
ENDBRANCH   3  15
TORSDOF 3
ENDMDL
