MODEL 1
REMARK VINA RESULT:      -1.9      0.000      0.000
REMARK  7 active torsions:
REMARK  status: ('A' for Active; 'I' for Inactive)
REMARK    1  A    between atoms: N_6  and  C_1 
REMARK    2  A    between atoms: S_9  and  C_3 
REMARK       I    between atoms: C_7  and  N_6 
REMARK    3  A    between atoms: C_14  and  C_7 
REMARK    4  A    between atoms: C_8  and  C_13 
REMARK       I    between atoms: N_10  and  C_8 
REMARK    5  A    between atoms: C_13  and  S_9 
REMARK    6  A    between atoms: C_15  and  N_10 
REMARK    7  A    between atoms: C_22  and  C_14 
ROOT
ATOM      1  C   UNL d   1      58.261  -0.224  30.165  0.00  0.00     0.219 A 
ATOM      2  S   UNL d   1      58.496  -0.142  30.944  0.00  0.00    -0.019 SA
ATOM      3  C   UNL d   1      58.039   0.398  31.285  0.00  0.00     0.165 A 
ATOM      4  N   UNL d   1      57.628   0.304  30.057  0.00  0.00    -0.120 NA
ATOM      5  N   UNL d   1      57.494   0.678  30.730  0.00  0.00    -0.133 NA
ENDROOT
BRANCH   3   6
ATOM      6  S   UNL d   1      58.156   0.599  32.098  0.00  0.00    -0.054 SA
BRANCH   6   7
ATOM      7  C   UNL d   1      57.586   0.393  32.660  0.00  0.00     0.100 C 
BRANCH   7   8
ATOM      8  C   UNL d   1      57.757   0.438  33.466  0.00  0.00     0.286 C 
ATOM      9  N   UNL d   1      57.196   0.252  34.012  0.00  0.00    -0.208 NA
ATOM     10  O   UNL d   1      58.527   0.681  33.723  0.00  0.00    -0.265 OA
BRANCH   9  11
ATOM     11  C   UNL d   1      56.421   0.008  33.748  0.00  0.00     0.085 A 
ATOM     12  C   UNL d   1      56.262  -0.794  33.748  0.00  0.00     0.021 A 
ATOM     13  C   UNL d   1      55.518  -1.043  33.495  0.00  0.00     0.031 A 
ATOM     14  C   UNL d   1      54.953  -0.517  33.252  0.00  0.00     0.140 A 
ATOM     15  C   UNL d   1      55.121   0.308  33.255  0.00  0.00     0.031 A 
ATOM     16  F   UNL d   1      54.272  -0.750  33.021  0.00  0.00    -0.204 F 
ATOM     17  C   UNL d   1      55.866   0.569  33.507  0.00  0.00     0.021 A 
ENDBRANCH   9  11
ENDBRANCH   7   8
ENDBRANCH   6   7
ENDBRANCH   3   6
BRANCH   1  18
ATOM     18  N   UNL d   1      58.565  -0.722  29.568  0.00  0.00    -0.181 NA
ATOM     19  C   UNL d   1      58.502  -1.472  29.179  0.00  0.00     0.281 C 
ATOM     20  O   UNL d   1      57.923  -2.003  29.426  0.00  0.00    -0.265 OA
BRANCH  19  21
ATOM     21  C   UNL d   1      58.954  -1.771  28.557  0.00  0.00     0.063 C 
BRANCH  21  22
ATOM     22  C   UNL d   1      59.655  -2.295  28.769  0.00  0.00     0.005 C 
ATOM     23  C   UNL d   1      60.408  -2.013  28.539  0.00  0.00     0.000 C 
ATOM     24  C   UNL d   1      59.672  -2.899  29.094  0.00  0.00     0.000 C 
ENDBRANCH  21  22
ENDBRANCH  19  21
ENDBRANCH   1  18
TORSDOF 7
ENDMDL
