MODEL 1
REMARK VINA RESULT:       1.0      0.000      0.000
REMARK  4 active torsions:
REMARK  status: ('A' for Active; 'I' for Inactive)
REMARK    1  A    between atoms: C_2  and  C_1 
REMARK    2  A    between atoms: O_18  and  C_16 
REMARK    3  A    between atoms: C_17  and  C_19 
REMARK    4  A    between atoms: C_19  and  O_18 
ROOT
ATOM      1  C   UNL d   1      31.308  17.080 -24.285  0.00  0.00     0.030 A 
ATOM      2  C   UNL d   1      31.882  17.515 -23.882  0.00  0.00     0.027 A 
ATOM      3  C   UNL d   1      32.294  16.139 -24.693  0.00  0.00     0.300 A 
ATOM      4  C   UNL d   1      31.520  16.393 -24.689  0.00  0.00     0.071 A 
ATOM      5  C   UNL d   1      32.667  17.258 -23.885  0.00  0.00     0.103 A 
ATOM      6  O   UNL d   1      32.878  16.570 -24.289  0.00  0.00    -0.273 OA
ATOM      7  C   UNL d   1      31.673  18.211 -23.472  0.00  0.00     0.027 A 
ATOM      8  O   UNL d   1      32.501  15.454 -25.096  0.00  0.00    -0.259 OA
ATOM      9  C   UNL d   1      33.240  17.692 -23.482  0.00  0.00     0.027 A 
ATOM     10  C   UNL d   1      32.248  18.631 -23.078  0.00  0.00     0.100 A 
ATOM     11  C   UNL d   1      33.034  18.377 -23.078  0.00  0.00     0.027 A 
ENDROOT
BRANCH   1  12
ATOM     12  C   UNL d   1      30.515  17.345 -24.278  0.00  0.00     0.100 A 
ATOM     13  O   UNL d   1      30.181  17.905 -24.780  0.00  0.00    -0.307 OA
ATOM     14  C   UNL d   1      29.394  17.989 -24.571  0.00  0.00     0.100 A 
ATOM     15  C   UNL d   1      28.792  18.464 -24.874  0.00  0.00     0.025 A 
ATOM     16  C   UNL d   1      29.231  17.483 -23.939  0.00  0.00     0.025 A 
ATOM     17  C   UNL d   1      28.035  18.430 -24.545  0.00  0.00     0.002 A 
ATOM     18  C   UNL d   1      27.882  17.921 -23.913  0.00  0.00     0.000 A 
ATOM     19  C   UNL d   1      28.487  17.449 -23.615  0.00  0.00     0.002 A 
ATOM     20  C   UNL d   1      29.934  17.083 -23.759  0.00  0.00     0.027 A 
ENDBRANCH   1  12
BRANCH  10  21
ATOM     21  O   UNL d   1      32.038  19.322 -22.670  0.00  0.00    -0.302 OA
BRANCH  21  22
ATOM     22  C   UNL d   1      32.603  19.730 -22.247  0.00  0.00     0.165 C 
BRANCH  22  23
ATOM     23  C   UNL d   1      32.416  20.446 -21.892  0.00  0.00     0.220 C 
ATOM     24  O   UNL d   1      31.702  20.529 -21.489  0.00  0.00    -0.284 OA
ATOM     25  C   UNL d   1      32.938  21.084 -21.936  0.00  0.00     0.048 C 
ENDBRANCH  22  23
ENDBRANCH  21  22
ENDBRANCH  10  21
TORSDOF 4
ENDMDL
MODEL 2
REMARK VINA RESULT:       1.7      3.532      4.876
REMARK  4 active torsions:
REMARK  status: ('A' for Active; 'I' for Inactive)
REMARK    1  A    between atoms: C_2  and  C_1 
REMARK    2  A    between atoms: O_18  and  C_16 
REMARK    3  A    between atoms: C_17  and  C_19 
REMARK    4  A    between atoms: C_19  and  O_18 
ROOT
ATOM      1  C   UNL d   1      33.237  20.431 -22.432  0.00  0.00     0.030 A 
ATOM      2  C   UNL d   1      33.238  20.621 -21.628  0.00  0.00     0.027 A 
ATOM      3  C   UNL d   1      33.239  19.045 -22.112  0.00  0.00     0.300 A 
ATOM      4  C   UNL d   1      33.238  19.641 -22.668  0.00  0.00     0.071 A 
ATOM      5  C   UNL d   1      33.240  20.017 -21.065  0.00  0.00     0.103 A 
ATOM      6  O   UNL d   1      33.241  19.227 -21.303  0.00  0.00    -0.273 OA
ATOM      7  C   UNL d   1      33.237  21.419 -21.384  0.00  0.00     0.027 A 
ATOM      8  O   UNL d   1      33.240  18.259 -22.353  0.00  0.00    -0.259 OA
ATOM      9  C   UNL d   1      33.241  20.207 -20.263  0.00  0.00     0.027 A 
ATOM     10  C   UNL d   1      33.238  21.594 -20.589  0.00  0.00     0.100 A 
ATOM     11  C   UNL d   1      33.240  20.993 -20.023  0.00  0.00     0.027 A 
ENDROOT
BRANCH   1  12
ATOM     12  C   UNL d   1      33.235  21.047 -22.997  0.00  0.00     0.100 A 
ATOM     13  O   UNL d   1      33.241  20.961 -23.815  0.00  0.00    -0.307 OA
ATOM     14  C   UNL d   1      33.236  21.710 -24.144  0.00  0.00     0.100 A 
ATOM     15  C   UNL d   1      33.239  21.967 -24.928  0.00  0.00     0.025 A 
ATOM     16  C   UNL d   1      33.227  22.269 -23.536  0.00  0.00     0.025 A 
ATOM     17  C   UNL d   1      33.233  22.775 -25.097  0.00  0.00     0.002 A 
ATOM     18  C   UNL d   1      33.224  23.326 -24.481  0.00  0.00     0.000 A 
ATOM     19  C   UNL d   1      33.221  23.064 -23.701  0.00  0.00     0.002 A 
ATOM     20  C   UNL d   1      33.226  21.850 -22.821  0.00  0.00     0.027 A 
ENDBRANCH   1  12
BRANCH  10  21
ATOM     21  O   UNL d   1      33.237  22.388 -20.348  0.00  0.00    -0.302 OA
BRANCH  21  22
ATOM     22  C   UNL d   1      33.212  22.569 -19.554  0.00  0.00     0.165 C 
BRANCH  22  23
ATOM     23  C   UNL d   1      32.859  23.265 -19.300  0.00  0.00     0.220 C 
ATOM     24  O   UNL d   1      32.245  23.596 -19.741  0.00  0.00    -0.284 OA
ATOM     25  C   UNL d   1      33.112  23.636 -18.608  0.00  0.00     0.048 C 
ENDBRANCH  22  23
ENDBRANCH  21  22
ENDBRANCH  10  21
TORSDOF 4
ENDMDL
MODEL 3
REMARK VINA RESULT:       2.0      1.542      3.935
REMARK  4 active torsions:
REMARK  status: ('A' for Active; 'I' for Inactive)
REMARK    1  A    between atoms: C_2  and  C_1 
REMARK    2  A    between atoms: O_18  and  C_16 
REMARK    3  A    between atoms: C_17  and  C_19 
REMARK    4  A    between atoms: C_19  and  O_18 
ROOT
ATOM      1  C   UNL d   1      30.102  17.920 -24.334  0.00  0.00     0.030 A 
ATOM      2  C   UNL d   1      30.102  17.097 -24.267  0.00  0.00     0.027 A 
ATOM      3  C   UNL d   1      28.680  17.923 -24.396  0.00  0.00     0.300 A 
ATOM      4  C   UNL d   1      29.387  18.328 -24.398  0.00  0.00     0.071 A 
ATOM      5  C   UNL d   1      29.385  16.687 -24.265  0.00  0.00     0.103 A 
ATOM      6  O   UNL d   1      28.671  17.096 -24.329  0.00  0.00    -0.273 OA
ATOM      7  C   UNL d   1      30.822  16.680 -24.202  0.00  0.00     0.027 A 
ATOM      8  O   UNL d   1      27.971  18.334 -24.459  0.00  0.00    -0.259 OA
ATOM      9  C   UNL d   1      29.386  15.865 -24.198  0.00  0.00     0.027 A 
ATOM     10  C   UNL d   1      30.809  15.869 -24.137  0.00  0.00     0.100 A 
ATOM     11  C   UNL d   1      30.095  15.455 -24.134  0.00  0.00     0.027 A 
ENDROOT
BRANCH   1  12
ATOM     12  C   UNL d   1      30.830  18.330 -24.337  0.00  0.00     0.100 A 
ATOM     13  O   UNL d   1      31.366  18.374 -24.959  0.00  0.00    -0.307 OA
ATOM     14  C   UNL d   1      31.997  18.833 -24.713  0.00  0.00     0.100 A 
ATOM     15  C   UNL d   1      32.690  19.066 -25.094  0.00  0.00     0.025 A 
ATOM     16  C   UNL d   1      31.862  19.078 -23.936  0.00  0.00     0.025 A 
ATOM     17  C   UNL d   1      33.239  19.539 -24.699  0.00  0.00     0.002 A 
ATOM     18  C   UNL d   1      33.094  19.779 -23.922  0.00  0.00     0.000 A 
ATOM     19  C   UNL d   1      32.401  19.544 -23.546  0.00  0.00     0.002 A 
ATOM     20  C   UNL d   1      31.131  18.762 -23.705  0.00  0.00     0.027 A 
ENDBRANCH   1  12
BRANCH  10  21
ATOM     21  O   UNL d   1      31.526  15.456 -24.073  0.00  0.00    -0.302 OA
BRANCH  21  22
ATOM     22  C   UNL d   1      31.929  15.453 -23.364  0.00  0.00     0.165 C 
BRANCH  22  23
ATOM     23  C   UNL d   1      32.748  15.510 -23.355  0.00  0.00     0.220 C 
ATOM     24  O   UNL d   1      33.169  15.459 -24.062  0.00  0.00    -0.284 OA
ATOM     25  C   UNL d   1      33.152  15.619 -22.644  0.00  0.00     0.048 C 
ENDBRANCH  22  23
ENDBRANCH  21  22
ENDBRANCH  10  21
TORSDOF 4
ENDMDL
MODEL 4
REMARK VINA RESULT:       3.3      2.716      5.421
REMARK  4 active torsions:
REMARK  status: ('A' for Active; 'I' for Inactive)
REMARK    1  A    between atoms: C_2  and  C_1 
REMARK    2  A    between atoms: O_18  and  C_16 
REMARK    3  A    between atoms: C_17  and  C_19 
REMARK    4  A    between atoms: C_19  and  O_18 
ROOT
ATOM      1  C   UNL d   1      32.918  22.267 -23.439  0.00  0.00     0.030 A 
ATOM      2  C   UNL d   1      33.026  21.558 -23.848  0.00  0.00     0.027 A 
ATOM      3  C   UNL d   1      32.919  22.986 -24.667  0.00  0.00     0.300 A 
ATOM      4  C   UNL d   1      32.865  22.978 -23.853  0.00  0.00     0.071 A 
ATOM      5  C   UNL d   1      33.080  21.566 -24.672  0.00  0.00     0.103 A 
ATOM      6  O   UNL d   1      33.027  22.278 -25.086  0.00  0.00    -0.273 OA
ATOM      7  C   UNL d   1      33.080  20.836 -23.433  0.00  0.00     0.027 A 
ATOM      8  O   UNL d   1      32.866  23.697 -25.075  0.00  0.00    -0.259 OA
ATOM      9  C   UNL d   1      33.188  20.858 -25.081  0.00  0.00     0.027 A 
ATOM     10  C   UNL d   1      33.186  20.144 -23.848  0.00  0.00     0.100 A 
ATOM     11  C   UNL d   1      33.241  20.147 -24.672  0.00  0.00     0.027 A 
ENDROOT
BRANCH   1  12
ATOM     12  C   UNL d   1      32.863  22.253 -22.604  0.00  0.00     0.100 A 
ATOM     13  O   UNL d   1      32.437  21.716 -22.151  0.00  0.00    -0.307 OA
ATOM     14  C   UNL d   1      32.544  21.914 -21.364  0.00  0.00     0.100 A 
ATOM     15  C   UNL d   1      32.256  21.579 -20.667  0.00  0.00     0.025 A 
ATOM     16  C   UNL d   1      33.038  22.575 -21.320  0.00  0.00     0.025 A 
ATOM     17  C   UNL d   1      32.462  21.905 -19.937  0.00  0.00     0.002 A 
ATOM     18  C   UNL d   1      32.956  22.566 -19.905  0.00  0.00     0.000 A 
ATOM     19  C   UNL d   1      33.241  22.897 -20.602  0.00  0.00     0.002 A 
ATOM     20  C   UNL d   1      33.235  22.784 -22.098  0.00  0.00     0.027 A 
ENDBRANCH   1  12
BRANCH  10  21
ATOM     21  O   UNL d   1      33.239  19.427 -23.434  0.00  0.00    -0.302 OA
BRANCH  21  22
ATOM     22  C   UNL d   1      32.941  18.745 -23.765  0.00  0.00     0.165 C 
BRANCH  22  23
ATOM     23  C   UNL d   1      32.795  18.087 -23.297  0.00  0.00     0.220 C 
ATOM     24  O   UNL d   1      32.410  18.178 -22.573  0.00  0.00    -0.284 OA
ATOM     25  C   UNL d   1      33.029  17.336 -23.543  0.00  0.00     0.048 C 
ENDBRANCH  22  23
ENDBRANCH  21  22
ENDBRANCH  10  21
TORSDOF 4
ENDMDL
