MODEL 1
REMARK VINA RESULT:      -4.6      0.000      0.000
REMARK  5 active torsions:
REMARK  status: ('A' for Active; 'I' for Inactive)
REMARK    1  A    between atoms: N_2  and  S_1 
REMARK    2  A    between atoms: C_7  and  S_1 
REMARK    3  A    between atoms: C_3  and  N_2 
REMARK    4  A    between atoms: C_6  and  O_8 
REMARK    5  A    between atoms: O_8  and  C_9 
ROOT
ATOM      1  C   UNL d   1      56.597  -0.231  32.256  0.00  0.00     0.117 A 
ATOM      2  C   UNL d   1      56.109  -0.220  32.921  0.00  0.00     0.118 A 
ATOM      3  C   UNL d   1      56.729  -0.952  31.874  0.00  0.00     0.022 A 
ATOM      4  C   UNL d   1      55.762  -0.911  33.197  0.00  0.00     0.026 A 
ATOM      5  C   UNL d   1      56.381  -1.642  32.151  0.00  0.00     0.002 A 
ATOM      6  C   UNL d   1      55.894  -1.627  32.816  0.00  0.00     0.002 A 
ENDROOT
BRANCH   1   7
ATOM      7  N   UNL d   1      56.945   0.461  31.979  0.00  0.00    -0.156 NA
BRANCH   7   8
ATOM      8  S   UNL d   1      57.535   0.426  31.406  0.00  0.00     0.285 S 
ATOM      9  O   UNL d   1      58.120   0.503  32.008  0.00  0.00    -0.198 OA
ATOM     10  O   UNL d   1      56.959   0.351  30.817  0.00  0.00    -0.198 OA
BRANCH   8  11
ATOM     11  C   UNL d   1      58.140   0.391  30.821  0.00  0.00     0.105 A 
ATOM     12  C   UNL d   1      58.907   0.648  31.011  0.00  0.00     0.013 A 
ATOM     13  C   UNL d   1      59.494   0.610  30.431  0.00  0.00     0.001 A 
ATOM     14  C   UNL d   1      59.320   0.317  29.662  0.00  0.00     0.000 A 
ATOM     15  C   UNL d   1      58.562   0.068  29.488  0.00  0.00     0.001 A 
ATOM     16  C   UNL d   1      57.966   0.098  30.052  0.00  0.00     0.013 A 
ENDBRANCH   8  11
ENDBRANCH   7   8
ENDBRANCH   1   7
BRANCH   2  17
ATOM     17  O   UNL d   1      55.976   0.524  33.311  0.00  0.00    -0.306 OA
BRANCH  17  18
ATOM     18  C   UNL d   1      55.490   0.574  33.971  0.00  0.00     0.100 A 
ATOM     19  C   UNL d   1      55.816   0.603  34.734  0.00  0.00     0.025 A 
ATOM     20  C   UNL d   1      55.310   0.654  35.389  0.00  0.00     0.002 A 
ATOM     21  C   UNL d   1      55.568   0.682  36.088  0.00  0.00     0.000 C 
ATOM     22  C   UNL d   1      54.492   0.675  35.286  0.00  0.00     0.000 A 
ATOM     23  C   UNL d   1      54.179   0.645  34.519  0.00  0.00     0.002 A 
ATOM     24  C   UNL d   1      54.687   0.595  33.869  0.00  0.00     0.025 A 
ATOM     25  C   UNL d   1      53.412   0.669  34.501  0.00  0.00     0.000 C 
ENDBRANCH  17  18
ENDBRANCH   2  17
TORSDOF 5
ENDMDL
MODEL 2
REMARK VINA RESULT:      -4.1      1.850      5.443
REMARK  5 active torsions:
REMARK  status: ('A' for Active; 'I' for Inactive)
REMARK    1  A    between atoms: N_2  and  S_1 
REMARK    2  A    between atoms: C_7  and  S_1 
REMARK    3  A    between atoms: C_3  and  N_2 
REMARK    4  A    between atoms: C_6  and  O_8 
REMARK    5  A    between atoms: O_8  and  C_9 
ROOT
ATOM      1  C   UNL d   1      57.770  -0.368  30.724  0.00  0.00     0.117 A 
ATOM      2  C   UNL d   1      58.187  -0.758  30.129  0.00  0.00     0.118 A 
ATOM      3  C   UNL d   1      57.410   0.355  30.545  0.00  0.00     0.022 A 
ATOM      4  C   UNL d   1      58.243  -0.437  29.376  0.00  0.00     0.026 A 
ATOM      5  C   UNL d   1      57.467   0.676  29.792  0.00  0.00     0.002 A 
ATOM      6  C   UNL d   1      57.884   0.282  29.199  0.00  0.00     0.002 A 
ENDROOT
BRANCH   1   7
ATOM      7  N   UNL d   1      57.714  -0.689  31.478  0.00  0.00    -0.156 NA
BRANCH   7   8
ATOM      8  S   UNL d   1      57.075  -0.502  31.961  0.00  0.00     0.285 S 
ATOM      9  O   UNL d   1      57.514   0.139  32.289  0.00  0.00    -0.198 OA
ATOM     10  O   UNL d   1      56.645  -1.131  31.639  0.00  0.00    -0.198 OA
BRANCH   8  11
ATOM     11  C   UNL d   1      56.421  -0.308  32.457  0.00  0.00     0.105 A 
ATOM     12  C   UNL d   1      55.941  -0.916  32.756  0.00  0.00     0.013 A 
ATOM     13  C   UNL d   1      55.302  -0.717  33.242  0.00  0.00     0.001 A 
ATOM     14  C   UNL d   1      55.141   0.087  33.430  0.00  0.00     0.000 A 
ATOM     15  C   UNL d   1      55.622   0.676  33.130  0.00  0.00     0.001 A 
ATOM     16  C   UNL d   1      56.260   0.496  32.646  0.00  0.00     0.013 A 
ENDBRANCH   8  11
ENDBRANCH   7   8
ENDBRANCH   1   7
BRANCH   2  17
ATOM     17  O   UNL d   1      58.556  -1.502  30.317  0.00  0.00    -0.306 OA
BRANCH  17  18
ATOM     18  C   UNL d   1      58.976  -1.920  29.749  0.00  0.00     0.100 A 
ATOM     19  C   UNL d   1      59.741  -1.684  29.531  0.00  0.00     0.025 A 
ATOM     20  C   UNL d   1      60.151  -2.118  28.956  0.00  0.00     0.002 A 
ATOM     21  C   UNL d   1      60.840  -1.935  28.736  0.00  0.00     0.000 C 
ATOM     22  C   UNL d   1      59.804  -2.778  28.603  0.00  0.00     0.000 A 
ATOM     23  C   UNL d   1      59.039  -3.003  28.829  0.00  0.00     0.002 A 
ATOM     24  C   UNL d   1      58.634  -2.568  29.403  0.00  0.00     0.025 A 
ATOM     25  C   UNL d   1      58.782  -3.624  28.459  0.00  0.00     0.000 C 
ENDBRANCH  17  18
ENDBRANCH   2  17
TORSDOF 5
ENDMDL
MODEL 3
REMARK VINA RESULT:      -3.3      1.323      5.370
REMARK  5 active torsions:
REMARK  status: ('A' for Active; 'I' for Inactive)
REMARK    1  A    between atoms: N_2  and  S_1 
REMARK    2  A    between atoms: C_7  and  S_1 
REMARK    3  A    between atoms: C_3  and  N_2 
REMARK    4  A    between atoms: C_6  and  O_8 
REMARK    5  A    between atoms: O_8  and  C_9 
ROOT
ATOM      1  C   UNL d   1      58.056   0.105  31.314  0.00  0.00     0.117 A 
ATOM      2  C   UNL d   1      58.625   0.071  30.718  0.00  0.00     0.118 A 
ATOM      3  C   UNL d   1      58.274   0.415  32.049  0.00  0.00     0.022 A 
ATOM      4  C   UNL d   1      59.390   0.338  30.851  0.00  0.00     0.026 A 
ATOM      5  C   UNL d   1      59.038   0.682  32.182  0.00  0.00     0.002 A 
ATOM      6  C   UNL d   1      59.604   0.645  31.583  0.00  0.00     0.002 A 
ENDROOT
BRANCH   1   7
ATOM      7  N   UNL d   1      57.290  -0.162  31.181  0.00  0.00    -0.156 NA
BRANCH   7   8
ATOM      8  S   UNL d   1      56.751  -0.197  31.801  0.00  0.00     0.285 S 
ATOM      9  O   UNL d   1      56.533   0.604  31.654  0.00  0.00    -0.198 OA
ATOM     10  O   UNL d   1      56.965  -0.982  31.945  0.00  0.00    -0.198 OA
BRANCH   8  11
ATOM     11  C   UNL d   1      56.197  -0.231  32.436  0.00  0.00     0.105 A 
ATOM     12  C   UNL d   1      55.835   0.469  32.699  0.00  0.00     0.013 A 
ATOM     13  C   UNL d   1      55.293   0.427  33.322  0.00  0.00     0.001 A 
ATOM     14  C   UNL d   1      55.111  -0.311  33.683  0.00  0.00     0.000 A 
ATOM     15  C   UNL d   1      55.475  -0.991  33.415  0.00  0.00     0.001 A 
ATOM     16  C   UNL d   1      56.015  -0.968  32.798  0.00  0.00     0.013 A 
ENDBRANCH   8  11
ENDBRANCH   7   8
ENDBRANCH   1   7
BRANCH   2  17
ATOM     17  O   UNL d   1      58.397  -0.249  29.963  0.00  0.00    -0.306 OA
BRANCH  17  18
ATOM     18  C   UNL d   1      58.949  -0.610  29.474  0.00  0.00     0.100 A 
ATOM     19  C   UNL d   1      59.616  -0.192  29.209  0.00  0.00     0.025 A 
ATOM     20  C   UNL d   1      60.163  -0.572  28.715  0.00  0.00     0.002 A 
ATOM     21  C   UNL d   1      60.773  -0.227  28.459  0.00  0.00     0.000 C 
ATOM     22  C   UNL d   1      60.048  -1.356  28.488  0.00  0.00     0.000 A 
ATOM     23  C   UNL d   1      59.378  -1.763  28.759  0.00  0.00     0.002 A 
ATOM     24  C   UNL d   1      58.836  -1.380  29.251  0.00  0.00     0.025 A 
ATOM     25  C   UNL d   1      59.338  -2.487  28.508  0.00  0.00     0.000 C 
ENDBRANCH  17  18
ENDBRANCH   2  17
TORSDOF 5
ENDMDL
MODEL 4
REMARK VINA RESULT:      -1.7      1.201      4.924
REMARK  5 active torsions:
REMARK  status: ('A' for Active; 'I' for Inactive)
REMARK    1  A    between atoms: N_2  and  S_1 
REMARK    2  A    between atoms: C_7  and  S_1 
REMARK    3  A    between atoms: C_3  and  N_2 
REMARK    4  A    between atoms: C_6  and  O_8 
REMARK    5  A    between atoms: O_8  and  C_9 
ROOT
ATOM      1  C   UNL d   1      56.859   0.094  32.779  0.00  0.00     0.117 A 
ATOM      2  C   UNL d   1      57.336   0.199  32.115  0.00  0.00     0.118 A 
ATOM      3  C   UNL d   1      57.167   0.288  33.521  0.00  0.00     0.022 A 
ATOM      4  C   UNL d   1      58.100   0.489  32.188  0.00  0.00     0.026 A 
ATOM      5  C   UNL d   1      57.932   0.579  33.595  0.00  0.00     0.002 A 
ATOM      6  C   UNL d   1      58.405   0.682  32.927  0.00  0.00     0.002 A 
ENDROOT
BRANCH   1   7
ATOM      7  N   UNL d   1      56.094  -0.197  32.706  0.00  0.00    -0.156 NA
BRANCH   7   8
ATOM      8  S   UNL d   1      55.514   0.022  33.247  0.00  0.00     0.285 S 
ATOM      9  O   UNL d   1      55.833  -0.523  33.805  0.00  0.00    -0.198 OA
ATOM     10  O   UNL d   1      55.202   0.557  32.699  0.00  0.00    -0.198 OA
BRANCH   8  11
ATOM     11  C   UNL d   1      54.921   0.245  33.804  0.00  0.00     0.105 A 
ATOM     12  C   UNL d   1      54.144   0.376  33.541  0.00  0.00     0.013 A 
ATOM     13  C   UNL d   1      53.569   0.594  34.094  0.00  0.00     0.001 A 
ATOM     14  C   UNL d   1      53.766   0.682  34.907  0.00  0.00     0.000 A 
ATOM     15  C   UNL d   1      54.535   0.550  35.151  0.00  0.00     0.001 A 
ATOM     16  C   UNL d   1      55.118   0.333  34.616  0.00  0.00     0.013 A 
ENDBRANCH   8  11
ENDBRANCH   7   8
ENDBRANCH   1   7
BRANCH   2  17
ATOM     17  O   UNL d   1      57.015  -0.002  31.353  0.00  0.00    -0.306 OA
BRANCH  17  18
ATOM     18  C   UNL d   1      57.506  -0.210  30.729  0.00  0.00     0.100 A 
ATOM     19  C   UNL d   1      57.693  -1.006  30.586  0.00  0.00     0.025 A 
ATOM     20  C   UNL d   1      58.191  -1.197  29.951  0.00  0.00     0.002 A 
ATOM     21  C   UNL d   1      58.380  -1.902  29.793  0.00  0.00     0.000 C 
ATOM     22  C   UNL d   1      58.499  -0.606  29.466  0.00  0.00     0.000 A 
ATOM     23  C   UNL d   1      58.305   0.185  29.620  0.00  0.00     0.002 A 
ATOM     24  C   UNL d   1      57.808   0.372  30.253  0.00  0.00     0.025 A 
ATOM     25  C   UNL d   1      58.627   0.679  29.129  0.00  0.00     0.000 C 
ENDBRANCH  17  18
ENDBRANCH   2  17
TORSDOF 5
ENDMDL
