MODEL 1
REMARK VINA RESULT:      -2.9      0.000      0.000
REMARK  4 active torsions:
REMARK  status: ('A' for Active; 'I' for Inactive)
REMARK    1  A    between atoms: C_7  and  N_1 
REMARK    2  A    between atoms: C_6  and  C_4 
REMARK    3  A    between atoms: C_12  and  C_6 
REMARK    4  A    between atoms: C_8  and  C_7 
ROOT
ATOM      1  N   UNL d   1      29.298  16.746 -24.461  0.00  0.00    -0.229 N 
ATOM      2  C   UNL d   1      29.440  17.489 -24.789  0.00  0.00     0.299 A 
ATOM      3  C   UNL d   1      30.024  16.341 -24.398  0.00  0.00     0.274 A 
ATOM      4  C   UNL d   1      30.622  16.841 -24.690  0.00  0.00     0.090 A 
ATOM      5  S   UNL d   1      30.261  17.548 -24.930  0.00  0.00    -0.022 SA
ATOM      6  O   UNL d   1      28.875  18.072 -24.949  0.00  0.00    -0.259 OA
ATOM      7  O   UNL d   1      30.127  15.578 -24.098  0.00  0.00    -0.266 OA
ENDROOT
BRANCH   4   8
ATOM      8  C   UNL d   1      31.424  16.666 -24.732  0.00  0.00     0.011 C 
BRANCH   8   9
ATOM      9  C   UNL d   1      31.878  17.262 -24.380  0.00  0.00     0.001 A 
ATOM     10  C   UNL d   1      32.041  17.229 -23.569  0.00  0.00     0.003 A 
ATOM     11  C   UNL d   1      32.493  17.823 -23.221  0.00  0.00     0.042 A 
ATOM     12  C   UNL d   1      32.781  18.447 -23.676  0.00  0.00     0.196 A 
ATOM     13  C   UNL d   1      32.615  18.473 -24.481  0.00  0.00     0.042 A 
ATOM     14  O   UNL d   1      33.237  19.045 -23.326  0.00  0.00    -0.287 OA
ATOM     15  C   UNL d   1      32.166  17.885 -24.835  0.00  0.00     0.003 A 
ENDBRANCH   8   9
ENDBRANCH   4   8
BRANCH   1  16
ATOM     16  C   UNL d   1      28.503  16.610 -24.292  0.00  0.00     0.157 C 
BRANCH  16  17
ATOM     17  C   UNL d   1      28.286  16.226 -23.589  0.00  0.00     0.230 C 
ATOM     18  O   UNL d   1      27.991  15.453 -23.611  0.00  0.00    -0.643 OA
ATOM     19  O   UNL d   1      28.363  16.613 -22.865  0.00  0.00    -0.643 OA
ENDBRANCH  16  17
ENDBRANCH   1  16
TORSDOF 4
ENDMDL
MODEL 2
REMARK VINA RESULT:      -2.6      1.152      1.567
REMARK  4 active torsions:
REMARK  status: ('A' for Active; 'I' for Inactive)
REMARK    1  A    between atoms: C_7  and  N_1 
REMARK    2  A    between atoms: C_6  and  C_4 
REMARK    3  A    between atoms: C_12  and  C_6 
REMARK    4  A    between atoms: C_8  and  C_7 
ROOT
ATOM      1  N   UNL d   1      29.549  15.623 -23.550  0.00  0.00    -0.229 N 
ATOM      2  C   UNL d   1      30.038  15.611 -22.886  0.00  0.00     0.299 A 
ATOM      3  C   UNL d   1      30.013  15.806 -24.217  0.00  0.00     0.274 A 
ATOM      4  C   UNL d   1      30.799  15.907 -23.962  0.00  0.00     0.090 A 
ATOM      5  S   UNL d   1      30.813  15.787 -23.141  0.00  0.00    -0.022 SA
ATOM      6  O   UNL d   1      29.805  15.453 -22.107  0.00  0.00    -0.259 OA
ATOM      7  O   UNL d   1      29.739  15.874 -24.994  0.00  0.00    -0.266 OA
ENDROOT
BRANCH   4   8
ATOM      8  C   UNL d   1      31.445  16.093 -24.436  0.00  0.00     0.011 C 
BRANCH   8   9
ATOM      9  C   UNL d   1      31.889  16.709 -24.108  0.00  0.00     0.001 A 
ATOM     10  C   UNL d   1      32.548  16.536 -23.638  0.00  0.00     0.003 A 
ATOM     11  C   UNL d   1      32.988  17.150 -23.312  0.00  0.00     0.042 A 
ATOM     12  C   UNL d   1      32.775  17.934 -23.452  0.00  0.00     0.196 A 
ATOM     13  C   UNL d   1      32.119  18.099 -23.919  0.00  0.00     0.042 A 
ATOM     14  O   UNL d   1      33.218  18.553 -23.124  0.00  0.00    -0.287 OA
ATOM     15  C   UNL d   1      31.675  17.492 -24.247  0.00  0.00     0.003 A 
ENDBRANCH   8   9
ENDBRANCH   4   8
BRANCH   1  16
ATOM     16  C   UNL d   1      28.760  15.458 -23.378  0.00  0.00     0.157 C 
BRANCH  16  17
ATOM     17  C   UNL d   1      28.155  15.913 -23.717  0.00  0.00     0.230 C 
ATOM     18  O   UNL d   1      28.026  16.690 -23.462  0.00  0.00    -0.643 OA
ATOM     19  O   UNL d   1      27.679  15.594 -24.311  0.00  0.00    -0.643 OA
ENDBRANCH  16  17
ENDBRANCH   1  16
TORSDOF 4
ENDMDL
MODEL 3
REMARK VINA RESULT:      -2.6      1.360      3.743
REMARK  4 active torsions:
REMARK  status: ('A' for Active; 'I' for Inactive)
REMARK    1  A    between atoms: C_7  and  N_1 
REMARK    2  A    between atoms: C_6  and  C_4 
REMARK    3  A    between atoms: C_12  and  C_6 
REMARK    4  A    between atoms: C_8  and  C_7 
ROOT
ATOM      1  N   UNL d   1      32.021  17.291 -24.078  0.00  0.00    -0.229 N 
ATOM      2  C   UNL d   1      31.456  17.458 -24.655  0.00  0.00     0.299 A 
ATOM      3  C   UNL d   1      31.877  16.526 -23.781  0.00  0.00     0.274 A 
ATOM      4  C   UNL d   1      31.215  16.217 -24.178  0.00  0.00     0.090 A 
ATOM      5  S   UNL d   1      30.955  16.792 -24.717  0.00  0.00    -0.022 SA
ATOM      6  O   UNL d   1      31.393  18.157 -25.094  0.00  0.00    -0.259 OA
ATOM      7  O   UNL d   1      32.317  16.145 -23.193  0.00  0.00    -0.266 OA
ENDROOT
BRANCH   4   8
ATOM      8  C   UNL d   1      30.877  15.477 -24.059  0.00  0.00     0.011 C 
BRANCH   8   9
ATOM      9  C   UNL d   1      30.063  15.538 -23.924  0.00  0.00     0.001 A 
ATOM     10  C   UNL d   1      29.782  15.654 -23.154  0.00  0.00     0.003 A 
ATOM     11  C   UNL d   1      28.971  15.715 -23.022  0.00  0.00     0.042 A 
ATOM     12  C   UNL d   1      28.442  15.661 -23.652  0.00  0.00     0.196 A 
ATOM     13  C   UNL d   1      28.729  15.545 -24.414  0.00  0.00     0.042 A 
ATOM     14  O   UNL d   1      27.626  15.722 -23.519  0.00  0.00    -0.287 OA
ATOM     15  C   UNL d   1      29.534  15.484 -24.553  0.00  0.00     0.003 A 
ENDBRANCH   8   9
ENDBRANCH   4   8
BRANCH   1  16
ATOM     16  C   UNL d   1      32.557  17.905 -23.958  0.00  0.00     0.157 C 
BRANCH  16  17
ATOM     17  C   UNL d   1      32.683  18.205 -23.195  0.00  0.00     0.230 C 
ATOM     18  O   UNL d   1      32.249  18.858 -22.927  0.00  0.00    -0.643 OA
ATOM     19  O   UNL d   1      33.241  17.854 -22.699  0.00  0.00    -0.643 OA
ENDBRANCH  16  17
ENDBRANCH   1  16
TORSDOF 4
ENDMDL
MODEL 4
REMARK VINA RESULT:      -2.4      2.619      4.826
REMARK  4 active torsions:
REMARK  status: ('A' for Active; 'I' for Inactive)
REMARK    1  A    between atoms: C_7  and  N_1 
REMARK    2  A    between atoms: C_6  and  C_4 
REMARK    3  A    between atoms: C_12  and  C_6 
REMARK    4  A    between atoms: C_8  and  C_7 
ROOT
ATOM      1  N   UNL d   1      33.237  20.313 -22.046  0.00  0.00    -0.229 N 
ATOM      2  C   UNL d   1      33.239  19.558 -21.716  0.00  0.00     0.299 A 
ATOM      3  C   UNL d   1      33.237  20.239 -22.876  0.00  0.00     0.274 A 
ATOM      4  C   UNL d   1      33.240  19.428 -23.061  0.00  0.00     0.090 A 
ATOM      5  S   UNL d   1      33.241  19.008 -22.345  0.00  0.00    -0.022 SA
ATOM      6  O   UNL d   1      33.239  19.374 -20.909  0.00  0.00    -0.259 OA
ATOM      7  O   UNL d   1      33.235  20.864 -23.418  0.00  0.00    -0.266 OA
ENDROOT
BRANCH   4   8
ATOM      8  C   UNL d   1      33.241  19.100 -23.815  0.00  0.00     0.011 C 
BRANCH   8   9
ATOM      9  C   UNL d   1      32.792  18.406 -23.839  0.00  0.00     0.001 A 
ATOM     10  C   UNL d   1      31.995  18.438 -24.061  0.00  0.00     0.003 A 
ATOM     11  C   UNL d   1      31.550  17.746 -24.084  0.00  0.00     0.042 A 
ATOM     12  C   UNL d   1      31.895  17.024 -23.888  0.00  0.00     0.196 A 
ATOM     13  C   UNL d   1      32.687  16.998 -23.669  0.00  0.00     0.042 A 
ATOM     14  O   UNL d   1      31.447  16.326 -23.912  0.00  0.00    -0.287 OA
ATOM     15  C   UNL d   1      33.137  17.683 -23.644  0.00  0.00     0.003 A 
ENDBRANCH   8   9
ENDBRANCH   4   8
BRANCH   1  16
ATOM     16  C   UNL d   1      33.234  20.916 -21.484  0.00  0.00     0.157 C 
BRANCH  16  17
ATOM     17  C   UNL d   1      32.650  21.504 -21.506  0.00  0.00     0.230 C 
ATOM     18  O   UNL d   1      31.899  21.356 -21.190  0.00  0.00    -0.643 OA
ATOM     19  O   UNL d   1      32.814  22.239 -21.842  0.00  0.00    -0.643 OA
ENDBRANCH  16  17
ENDBRANCH   1  16
TORSDOF 4
ENDMDL
MODEL 5
REMARK VINA RESULT:      -2.2      0.957      1.541
REMARK  4 active torsions:
REMARK  status: ('A' for Active; 'I' for Inactive)
REMARK    1  A    between atoms: C_7  and  N_1 
REMARK    2  A    between atoms: C_6  and  C_4 
REMARK    3  A    between atoms: C_12  and  C_6 
REMARK    4  A    between atoms: C_8  and  C_7 
ROOT
ATOM      1  N   UNL d   1      29.694  16.454 -24.070  0.00  0.00    -0.229 N 
ATOM      2  C   UNL d   1      30.062  15.957 -23.524  0.00  0.00     0.299 A 
ATOM      3  C   UNL d   1      30.284  16.860 -24.496  0.00  0.00     0.274 A 
ATOM      4  C   UNL d   1      31.024  16.611 -24.210  0.00  0.00     0.090 A 
ATOM      5  S   UNL d   1      30.887  16.054 -23.611  0.00  0.00    -0.022 SA
ATOM      6  O   UNL d   1      29.685  15.453 -22.987  0.00  0.00    -0.259 OA
ATOM      7  O   UNL d   1      30.152  17.413 -25.097  0.00  0.00    -0.266 OA
ENDROOT
BRANCH   4   8
ATOM      8  C   UNL d   1      31.760  16.869 -24.473  0.00  0.00     0.011 C 
BRANCH   8   9
ATOM      9  C   UNL d   1      32.130  17.343 -23.904  0.00  0.00     0.001 A 
ATOM     10  C   UNL d   1      32.058  18.166 -23.943  0.00  0.00     0.003 A 
ATOM     11  C   UNL d   1      32.427  18.635 -23.377  0.00  0.00     0.042 A 
ATOM     12  C   UNL d   1      32.867  18.287 -22.773  0.00  0.00     0.196 A 
ATOM     13  C   UNL d   1      32.936  17.469 -22.740  0.00  0.00     0.042 A 
ATOM     14  O   UNL d   1      33.240  18.759 -22.201  0.00  0.00    -0.287 OA
ATOM     15  C   UNL d   1      32.571  16.995 -23.301  0.00  0.00     0.003 A 
ENDBRANCH   8   9
ENDBRANCH   4   8
BRANCH   1  16
ATOM     16  C   UNL d   1      28.872  16.415 -24.046  0.00  0.00     0.157 C 
BRANCH  16  17
ATOM     17  C   UNL d   1      28.425  17.101 -23.913  0.00  0.00     0.230 C 
ATOM     18  O   UNL d   1      28.377  17.687 -24.497  0.00  0.00    -0.643 OA
ATOM     19  O   UNL d   1      28.026  17.204 -23.198  0.00  0.00    -0.643 OA
ENDBRANCH  16  17
ENDBRANCH   1  16
TORSDOF 4
ENDMDL
MODEL 6
REMARK VINA RESULT:      -2.1      2.779      4.798
REMARK  4 active torsions:
REMARK  status: ('A' for Active; 'I' for Inactive)
REMARK    1  A    between atoms: C_7  and  N_1 
REMARK    2  A    between atoms: C_6  and  C_4 
REMARK    3  A    between atoms: C_12  and  C_6 
REMARK    4  A    between atoms: C_8  and  C_7 
ROOT
ATOM      1  N   UNL d   1      33.101  20.578 -21.994  0.00  0.00    -0.229 N 
ATOM      2  C   UNL d   1      33.179  20.619 -22.814  0.00  0.00     0.299 A 
ATOM      3  C   UNL d   1      33.115  19.776 -21.767  0.00  0.00     0.274 A 
ATOM      4  C   UNL d   1      33.201  19.317 -22.456  0.00  0.00     0.090 A 
ATOM      5  S   UNL d   1      33.241  19.837 -23.100  0.00  0.00    -0.022 SA
ATOM      6  O   UNL d   1      33.193  21.309 -23.272  0.00  0.00    -0.259 OA
ATOM      7  O   UNL d   1      33.052  19.490 -20.994  0.00  0.00    -0.266 OA
ENDROOT
BRANCH   4   8
ATOM      8  C   UNL d   1      33.241  18.496 -22.492  0.00  0.00     0.011 C 
BRANCH   8   9
ATOM      9  C   UNL d   1      32.822  18.206 -23.144  0.00  0.00     0.001 A 
ATOM     10  C   UNL d   1      32.054  17.913 -23.042  0.00  0.00     0.003 A 
ATOM     11  C   UNL d   1      31.639  17.624 -23.692  0.00  0.00     0.042 A 
ATOM     12  C   UNL d   1      31.985  17.627 -24.440  0.00  0.00     0.196 A 
ATOM     13  C   UNL d   1      32.747  17.920 -24.534  0.00  0.00     0.042 A 
ATOM     14  O   UNL d   1      31.567  17.337 -25.096  0.00  0.00    -0.287 OA
ATOM     15  C   UNL d   1      33.167  18.209 -23.892  0.00  0.00     0.003 A 
ENDBRANCH   8   9
ENDBRANCH   4   8
BRANCH   1  16
ATOM     16  C   UNL d   1      33.034  21.316 -21.634  0.00  0.00     0.157 C 
BRANCH  16  17
ATOM     17  C   UNL d   1      32.713  21.380 -20.871  0.00  0.00     0.230 C 
ATOM     18  O   UNL d   1      31.895  21.454 -20.769  0.00  0.00    -0.643 OA
ATOM     19  O   UNL d   1      33.208  21.371 -20.211  0.00  0.00    -0.643 OA
ENDBRANCH  16  17
ENDBRANCH   1  16
TORSDOF 4
ENDMDL
MODEL 7
REMARK VINA RESULT:      -1.9      1.420      2.262
REMARK  4 active torsions:
REMARK  status: ('A' for Active; 'I' for Inactive)
REMARK    1  A    between atoms: C_7  and  N_1 
REMARK    2  A    between atoms: C_6  and  C_4 
REMARK    3  A    between atoms: C_12  and  C_6 
REMARK    4  A    between atoms: C_8  and  C_7 
ROOT
ATOM      1  N   UNL d   1      31.060  16.693 -24.113  0.00  0.00    -0.229 N 
ATOM      2  C   UNL d   1      31.447  16.351 -23.470  0.00  0.00     0.299 A 
ATOM      3  C   UNL d   1      31.529  17.317 -24.404  0.00  0.00     0.274 A 
ATOM      4  C   UNL d   1      32.215  17.361 -23.936  0.00  0.00     0.090 A 
ATOM      5  S   UNL d   1      32.164  16.765 -23.360  0.00  0.00    -0.022 SA
ATOM      6  O   UNL d   1      31.178  15.714 -23.015  0.00  0.00    -0.259 OA
ATOM      7  O   UNL d   1      31.343  17.803 -25.046  0.00  0.00    -0.266 OA
ENDROOT
BRANCH   4   8
ATOM      8  C   UNL d   1      32.833  17.897 -24.026  0.00  0.00     0.011 C 
BRANCH   8   9
ATOM      9  C   UNL d   1      32.870  18.419 -23.385  0.00  0.00     0.001 A 
ATOM     10  C   UNL d   1      32.570  19.186 -23.461  0.00  0.00     0.003 A 
ATOM     11  C   UNL d   1      32.608  19.704 -22.822  0.00  0.00     0.042 A 
ATOM     12  C   UNL d   1      32.944  19.461 -22.110  0.00  0.00     0.196 A 
ATOM     13  C   UNL d   1      33.240  18.697 -22.041  0.00  0.00     0.042 A 
ATOM     14  O   UNL d   1      32.983  19.982 -21.466  0.00  0.00    -0.287 OA
ATOM     15  C   UNL d   1      33.206  18.176 -22.673  0.00  0.00     0.003 A 
ENDBRANCH   8   9
ENDBRANCH   4   8
BRANCH   1  16
ATOM     16  C   UNL d   1      30.337  16.336 -24.286  0.00  0.00     0.157 C 
BRANCH  16  17
ATOM     17  C   UNL d   1      29.651  16.796 -24.354  0.00  0.00     0.230 C 
ATOM     18  O   UNL d   1      29.234  17.025 -23.675  0.00  0.00    -0.643 OA
ATOM     19  O   UNL d   1      29.379  17.029 -25.097  0.00  0.00    -0.643 OA
ENDBRANCH  16  17
ENDBRANCH   1  16
TORSDOF 4
ENDMDL
MODEL 8
REMARK VINA RESULT:      -1.6      1.631      3.917
REMARK  4 active torsions:
REMARK  status: ('A' for Active; 'I' for Inactive)
REMARK    1  A    between atoms: C_7  and  N_1 
REMARK    2  A    between atoms: C_6  and  C_4 
REMARK    3  A    between atoms: C_12  and  C_6 
REMARK    4  A    between atoms: C_8  and  C_7 
ROOT
ATOM      1  N   UNL d   1      32.908  18.919 -23.251  0.00  0.00    -0.229 N 
ATOM      2  C   UNL d   1      32.746  19.153 -24.024  0.00  0.00     0.299 A 
ATOM      3  C   UNL d   1      32.685  18.121 -23.164  0.00  0.00     0.274 A 
ATOM      4  C   UNL d   1      32.381  17.859 -23.892  0.00  0.00     0.090 A 
ATOM      5  S   UNL d   1      32.419  18.496 -24.423  0.00  0.00    -0.022 SA
ATOM      6  O   UNL d   1      32.881  19.902 -24.350  0.00  0.00    -0.259 OA
ATOM      7  O   UNL d   1      32.755  17.671 -22.473  0.00  0.00    -0.266 OA
ENDROOT
BRANCH   4   8
ATOM      8  C   UNL d   1      32.095  17.106 -24.058  0.00  0.00     0.011 C 
BRANCH   8   9
ATOM      9  C   UNL d   1      31.283  17.123 -24.218  0.00  0.00     0.001 A 
ATOM     10  C   UNL d   1      30.746  16.862 -23.645  0.00  0.00     0.003 A 
ATOM     11  C   UNL d   1      29.939  16.880 -23.806  0.00  0.00     0.042 A 
ATOM     12  C   UNL d   1      29.666  17.158 -24.533  0.00  0.00     0.196 A 
ATOM     13  C   UNL d   1      30.206  17.416 -25.097  0.00  0.00     0.042 A 
ATOM     14  O   UNL d   1      28.853  17.177 -24.696  0.00  0.00    -0.287 OA
ATOM     15  C   UNL d   1      31.011  17.401 -24.944  0.00  0.00     0.003 A 
ENDBRANCH   8   9
ENDBRANCH   4   8
BRANCH   1  16
ATOM     16  C   UNL d   1      33.236  19.518 -22.789  0.00  0.00     0.157 C 
BRANCH  16  17
ATOM     17  C   UNL d   1      32.883  19.731 -22.070  0.00  0.00     0.230 C 
ATOM     18  O   UNL d   1      32.169  20.150 -22.064  0.00  0.00    -0.643 OA
ATOM     19  O   UNL d   1      33.241  19.525 -21.356  0.00  0.00    -0.643 OA
ENDBRANCH  16  17
ENDBRANCH   1  16
TORSDOF 4
ENDMDL
MODEL 9
REMARK VINA RESULT:      -1.2      3.126      4.591
REMARK  4 active torsions:
REMARK  status: ('A' for Active; 'I' for Inactive)
REMARK    1  A    between atoms: C_7  and  N_1 
REMARK    2  A    between atoms: C_6  and  C_4 
REMARK    3  A    between atoms: C_12  and  C_6 
REMARK    4  A    between atoms: C_8  and  C_7 
ROOT
ATOM      1  N   UNL d   1      33.019  19.090 -23.483  0.00  0.00    -0.229 N 
ATOM      2  C   UNL d   1      32.996  19.887 -23.690  0.00  0.00     0.299 A 
ATOM      3  C   UNL d   1      33.114  19.034 -22.657  0.00  0.00     0.274 A 
ATOM      4  C   UNL d   1      33.150  19.806 -22.350  0.00  0.00     0.090 A 
ATOM      5  S   UNL d   1      33.077  20.332 -22.988  0.00  0.00    -0.022 SA
ATOM      6  O   UNL d   1      32.908  20.195 -24.454  0.00  0.00    -0.259 OA
ATOM      7  O   UNL d   1      33.164  18.332 -22.223  0.00  0.00    -0.266 OA
ENDROOT
BRANCH   4   8
ATOM      8  C   UNL d   1      33.241  20.012 -21.560  0.00  0.00     0.011 C 
BRANCH   8   9
ATOM      9  C   UNL d   1      32.878  20.738 -21.397  0.00  0.00     0.001 A 
ATOM     10  C   UNL d   1      32.191  20.760 -20.936  0.00  0.00     0.003 A 
ATOM     11  C   UNL d   1      31.831  21.483 -20.775  0.00  0.00     0.042 A 
ATOM     12  C   UNL d   1      32.153  22.181 -21.071  0.00  0.00     0.196 A 
ATOM     13  C   UNL d   1      32.835  22.152 -21.529  0.00  0.00     0.042 A 
ATOM     14  O   UNL d   1      31.791  22.910 -20.910  0.00  0.00    -0.287 OA
ATOM     15  C   UNL d   1      33.199  21.436 -21.693  0.00  0.00     0.003 A 
ENDBRANCH   8   9
ENDBRANCH   4   8
BRANCH   1  16
ATOM     16  C   UNL d   1      32.945  18.582 -24.128  0.00  0.00     0.157 C 
BRANCH  16  17
ATOM     17  C   UNL d   1      32.292  18.074 -24.186  0.00  0.00     0.230 C 
ATOM     18  O   UNL d   1      31.532  18.351 -24.007  0.00  0.00    -0.643 OA
ATOM     19  O   UNL d   1      32.395  17.290 -24.422  0.00  0.00    -0.643 OA
ENDBRANCH  16  17
ENDBRANCH   1  16
TORSDOF 4
ENDMDL
