MODEL 1
REMARK VINA RESULT:      -8.2      0.000      0.000
REMARK  5 active torsions:
REMARK  status: ('A' for Active; 'I' for Inactive)
REMARK    1  A    between atoms: C_6  and  C_1 
REMARK    2  A    between atoms: C_7  and  C_6 
REMARK    3  A    between atoms: C_9  and  C_19 
REMARK       I    between atoms: N_17  and  C_9 
REMARK    4  A    between atoms: O_20  and  C_18 
REMARK    5  A    between atoms: C_19  and  O_20 
ROOT
ATOM      1  C   UNL d   1     -48.266  14.496  22.739  0.00  0.00     0.141 A 
ATOM      2  C   UNL d   1     -47.000  14.086  22.808  0.00  0.00     0.064 A 
ATOM      3  C   UNL d   1     -47.488  14.716  22.583  0.00  0.00     0.220 A 
ATOM      4  C   UNL d   1     -47.484  13.480  23.103  0.00  0.00     0.105 A 
ATOM      5  O   UNL d   1     -48.271  13.736  23.059  0.00  0.00    -0.304 OA
ATOM      6  C   UNL d   1     -47.140  12.780  23.370  0.00  0.00     0.050 A 
ATOM      7  C   UNL d   1     -46.177  13.985  22.784  0.00  0.00     0.007 A 
ATOM      8  O   UNL d   1     -47.237  15.431  22.261  0.00  0.00    -0.284 OA
ATOM      9  C   UNL d   1     -46.321  12.682  23.345  0.00  0.00     0.102 A 
ATOM     10  C   UNL d   1     -45.842  13.281  23.054  0.00  0.00     0.025 A 
ENDROOT
BRANCH   1  11
ATOM     11  C   UNL d   1     -48.937  14.963  22.597  0.00  0.00     0.053 C 
BRANCH  11  12
ATOM     12  C   UNL d   1     -49.668  14.603  22.439  0.00  0.00     0.102 A 
ATOM     13  O   UNL d   1     -49.852  14.167  21.764  0.00  0.00    -0.307 OA
ATOM     14  C   UNL d   1     -50.630  13.915  21.838  0.00  0.00     0.100 A 
ATOM     15  C   UNL d   1     -51.049  13.458  21.287  0.00  0.00     0.027 C 
ATOM     16  C   UNL d   1     -50.931  14.192  22.555  0.00  0.00     0.027 A 
ATOM     17  C   UNL d   1     -50.324  14.623  22.927  0.00  0.00     0.027 A 
ENDBRANCH  11  12
ENDBRANCH   1  11
BRANCH   9  18
ATOM     18  O   UNL d   1     -45.983  11.975  23.615  0.00  0.00    -0.300 OA
BRANCH  18  19
ATOM     19  C   UNL d   1     -45.405  11.602  23.176  0.00  0.00     0.187 C 
BRANCH  19  20
ATOM     20  C   UNL d   1     -45.084  10.888  23.437  0.00  0.00     0.323 C 
ATOM     21  O   UNL d   1     -45.575  10.286  23.697  0.00  0.00    -0.261 OA
ATOM     22  N   UNL d   1     -44.261  10.782  23.435  0.00  0.00    -0.083 NA
ATOM     23  N   UNL d   1     -43.935  10.065  23.698  0.00  0.00    -0.019 N 
ENDBRANCH  19  20
ENDBRANCH  18  19
ENDBRANCH   9  18
TORSDOF 5
ENDMDL
MODEL 2
REMARK VINA RESULT:      -7.9      1.594      2.303
REMARK  5 active torsions:
REMARK  status: ('A' for Active; 'I' for Inactive)
REMARK    1  A    between atoms: C_6  and  C_1 
REMARK    2  A    between atoms: C_7  and  C_6 
REMARK    3  A    between atoms: C_9  and  C_19 
REMARK       I    between atoms: N_17  and  C_9 
REMARK    4  A    between atoms: O_20  and  C_18 
REMARK    5  A    between atoms: C_19  and  O_20 
ROOT
ATOM      1  C   UNL d   1     -49.137  12.637  22.864  0.00  0.00     0.141 A 
ATOM      2  C   UNL d   1     -47.942  12.171  23.229  0.00  0.00     0.064 A 
ATOM      3  C   UNL d   1     -48.758  12.041  23.288  0.00  0.00     0.220 A 
ATOM      4  C   UNL d   1     -47.825  12.850  22.766  0.00  0.00     0.105 A 
ATOM      5  O   UNL d   1     -48.568  13.138  22.540  0.00  0.00    -0.304 OA
ATOM      6  C   UNL d   1     -47.057  13.110  22.615  0.00  0.00     0.050 A 
ATOM      7  C   UNL d   1     -47.291  11.761  23.536  0.00  0.00     0.007 A 
ATOM      8  O   UNL d   1     -49.122  11.427  23.698  0.00  0.00    -0.284 OA
ATOM      9  C   UNL d   1     -46.410  12.699  22.922  0.00  0.00     0.102 A 
ATOM     10  C   UNL d   1     -46.527  12.029  23.380  0.00  0.00     0.025 A 
ENDROOT
BRANCH   1  11
ATOM     11  C   UNL d   1     -49.958  12.720  22.776  0.00  0.00     0.053 C 
BRANCH  11  12
ATOM     12  C   UNL d   1     -50.298  13.475  22.746  0.00  0.00     0.102 A 
ATOM     13  O   UNL d   1     -50.390  13.986  23.387  0.00  0.00    -0.307 OA
ATOM     14  C   UNL d   1     -50.750  14.669  23.107  0.00  0.00     0.100 A 
ATOM     15  C   UNL d   1     -50.950  15.335  23.560  0.00  0.00     0.027 C 
ATOM     16  C   UNL d   1     -50.883  14.587  22.297  0.00  0.00     0.027 A 
ATOM     17  C   UNL d   1     -50.598  13.837  22.076  0.00  0.00     0.027 A 
ENDBRANCH  11  12
ENDBRANCH   1  11
BRANCH   9  18
ATOM     18  O   UNL d   1     -45.641  12.967  22.766  0.00  0.00    -0.300 OA
BRANCH  18  19
ATOM     19  C   UNL d   1     -45.283  12.796  22.054  0.00  0.00     0.187 C 
BRANCH  19  20
ATOM     20  C   UNL d   1     -44.513  13.053  21.906  0.00  0.00     0.323 C 
ATOM     21  O   UNL d   1     -44.327  13.849  21.958  0.00  0.00    -0.261 OA
ATOM     22  N   UNL d   1     -43.927  12.501  21.705  0.00  0.00    -0.083 NA
ATOM     23  N   UNL d   1     -43.152  12.757  21.555  0.00  0.00    -0.019 N 
ENDBRANCH  19  20
ENDBRANCH  18  19
ENDBRANCH   9  18
TORSDOF 5
ENDMDL
MODEL 3
REMARK VINA RESULT:      -5.8      8.184      9.702
REMARK  5 active torsions:
REMARK  status: ('A' for Active; 'I' for Inactive)
REMARK    1  A    between atoms: C_6  and  C_1 
REMARK    2  A    between atoms: C_7  and  C_6 
REMARK    3  A    between atoms: C_9  and  C_19 
REMARK       I    between atoms: N_17  and  C_9 
REMARK    4  A    between atoms: O_20  and  C_18 
REMARK    5  A    between atoms: C_19  and  O_20 
ROOT
ATOM      1  C   UNL d   1     -39.911  15.016  17.734  0.00  0.00     0.141 A 
ATOM      2  C   UNL d   1     -40.405  14.653  18.919  0.00  0.00     0.064 A 
ATOM      3  C   UNL d   1     -40.578  14.711  18.111  0.00  0.00     0.220 A 
ATOM      4  C   UNL d   1     -39.629  14.924  19.034  0.00  0.00     0.105 A 
ATOM      5  O   UNL d   1     -39.324  15.149  18.297  0.00  0.00    -0.304 OA
ATOM      6  C   UNL d   1     -39.310  14.928  19.794  0.00  0.00     0.050 A 
ATOM      7  C   UNL d   1     -40.853  14.389  19.565  0.00  0.00     0.007 A 
ATOM      8  O   UNL d   1     -41.288  14.501  17.752  0.00  0.00    -0.284 OA
ATOM      9  C   UNL d   1     -39.758  14.664  20.436  0.00  0.00     0.102 A 
ATOM     10  C   UNL d   1     -40.524  14.396  20.321  0.00  0.00     0.025 A 
ENDROOT
BRANCH   1  11
ATOM     11  C   UNL d   1     -39.842  15.164  16.921  0.00  0.00     0.053 C 
BRANCH  11  12
ATOM     12  C   UNL d   1     -39.172  14.904  16.507  0.00  0.00     0.102 A 
ATOM     13  O   UNL d   1     -39.030  14.129  16.265  0.00  0.00    -0.307 OA
ATOM     14  C   UNL d   1     -38.306  14.122  15.876  0.00  0.00     0.100 A 
ATOM     15  C   UNL d   1     -37.941  13.458  15.539  0.00  0.00     0.027 C 
ATOM     16  C   UNL d   1     -37.998  14.887  15.875  0.00  0.00     0.027 A 
ATOM     17  C   UNL d   1     -38.545  15.374  16.271  0.00  0.00     0.027 A 
ENDBRANCH  11  12
ENDBRANCH   1  11
BRANCH   9  18
ATOM     18  O   UNL d   1     -39.429  14.671  21.197  0.00  0.00    -0.300 OA
BRANCH  18  19
ATOM     19  C   UNL d   1     -39.246  13.970  21.571  0.00  0.00     0.187 C 
BRANCH  19  20
ATOM     20  C   UNL d   1     -38.912  13.979  22.325  0.00  0.00     0.323 C 
ATOM     21  O   UNL d   1     -38.665  14.687  22.658  0.00  0.00    -0.261 OA
ATOM     22  N   UNL d   1     -38.827  13.270  22.747  0.00  0.00    -0.083 NA
ATOM     23  N   UNL d   1     -38.490  13.277  23.506  0.00  0.00    -0.019 N 
ENDBRANCH  19  20
ENDBRANCH  18  19
ENDBRANCH   9  18
TORSDOF 5
ENDMDL
