MODEL 1
REMARK VINA RESULT:      35.4      0.000      0.000
REMARK  1 active torsions:
REMARK  status: ('A' for Active; 'I' for Inactive)
REMARK    1  A    between atoms: C_9  and  N_4 
ROOT
ATOM      1  C   UNL d   1      14.884  13.365  -1.188  0.00  0.00     0.096 A 
ATOM      2  C   UNL d   1      14.769  14.101  -1.522  0.00  0.00     0.109 A 
ATOM      3  N   UNL d   1      14.379  14.004  -2.237  0.00  0.00    -0.162 NA
ATOM      4  N   UNL d   1      14.254  13.195  -2.339  0.00  0.00    -0.195 N 
ATOM      5  C   UNL d   1      14.566  12.806  -1.692  0.00  0.00     0.283 A 
ATOM      6  C   UNL d   1      15.269  13.293  -0.454  0.00  0.00     0.105 A 
ATOM      7  C   UNL d   1      15.035  14.771  -1.132  0.00  0.00     0.037 A 
ATOM      8  N   UNL d   1      15.534  13.965  -0.066  0.00  0.00    -0.244 NA
ATOM      9  C   UNL d   1      15.419  14.712  -0.403  0.00  0.00     0.083 A 
ATOM     10  O   UNL d   1      14.560  11.990  -1.572  0.00  0.00    -0.265 OA
ATOM     11  C   UNL d   1      14.920  15.516  -1.467  0.00  0.00     0.003 A 
ATOM     12  C   UNL d   1      15.685  15.392  -0.014  0.00  0.00     0.019 A 
ATOM     13  C   UNL d   1      15.189  16.191  -1.072  0.00  0.00     0.000 A 
ATOM     14  C   UNL d   1      15.568  16.129  -0.351  0.00  0.00     0.002 A 
ENDROOT
BRANCH   4  15
ATOM     15  C   UNL d   1      13.880  12.837  -2.983  0.00  0.00     0.086 A 
ATOM     16  C   UNL d   1      13.920  13.191  -3.729  0.00  0.00     0.020 A 
ATOM     17  C   UNL d   1      13.552  12.841  -4.369  0.00  0.00     0.013 A 
ATOM     18  C   UNL d   1      13.138  12.133  -4.272  0.00  0.00     0.058 A 
ATOM     19  C   UNL d   1      13.098  11.779  -3.525  0.00  0.00     0.013 A 
ATOM     20 CL   UNL d   1      12.769  11.780  -4.904  0.00  0.00    -0.082 Cl
ATOM     21  C   UNL d   1      13.464  12.125  -2.888  0.00  0.00     0.020 A 
ENDBRANCH   4  15
TORSDOF 1
ENDMDL
