MODEL 1
REMARK VINA RESULT:      -3.9      0.000      0.000
REMARK  7 active torsions:
REMARK  status: ('A' for Active; 'I' for Inactive)
REMARK    1  A    between atoms: C_2  and  S_1 
REMARK    2  A    between atoms: N_3  and  S_1 
REMARK    3  A    between atoms: C_11  and  N_3 
REMARK    4  A    between atoms: C_4  and  C_7 
REMARK       I    between atoms: N_12  and  C_4 
REMARK    5  A    between atoms: C_22  and  N_12 
REMARK    6  A    between atoms: O_20  and  C_24 
REMARK    7  A    between atoms: C_24  and  C_22 
ROOT
ATOM      1  C   UNL d   1      57.399   0.303  31.969  0.00  0.00     0.058 A 
ATOM      2  C   UNL d   1      58.150   0.428  30.510  0.00  0.00     0.094 A 
ATOM      3  C   UNL d   1      57.014   0.050  31.285  0.00  0.00     0.006 A 
ATOM      4  C   UNL d   1      58.161   0.619  31.924  0.00  0.00     0.006 A 
ATOM      5  C   UNL d   1      57.389   0.113  30.556  0.00  0.00     0.020 A 
ATOM      6  C   UNL d   1      58.536   0.681  31.194  0.00  0.00     0.020 A 
ENDROOT
BRANCH   2   7
ATOM      7  N   UNL d   1      58.525   0.490  29.781  0.00  0.00    -0.158 NA
BRANCH   7   8
ATOM      8  S   UNL d   1      58.927  -0.160  29.469  0.00  0.00     0.285 S 
ATOM      9  O   UNL d   1      58.294  -0.307  28.961  0.00  0.00    -0.198 OA
ATOM     10  O   UNL d   1      59.557  -0.009  29.978  0.00  0.00    -0.198 OA
BRANCH   8  11
ATOM     11  C   UNL d   1      59.334  -0.805  29.162  0.00  0.00     0.105 A 
ATOM     12  C   UNL d   1      60.043  -0.700  28.759  0.00  0.00     0.012 A 
ATOM     13  C   UNL d   1      60.444  -1.352  28.455  0.00  0.00     0.001 A 
ATOM     14  C   UNL d   1      60.344   0.071  28.666  0.00  0.00     0.001 C 
ATOM     15  C   UNL d   1      60.140  -2.108  28.552  0.00  0.00     0.000 A 
ATOM     16  C   UNL d   1      59.428  -2.218  28.956  0.00  0.00     0.001 A 
ATOM     17  C   UNL d   1      59.022  -1.571  29.263  0.00  0.00     0.013 A 
ATOM     18  C   UNL d   1      59.122  -2.989  29.053  0.00  0.00     0.000 C 
ENDBRANCH   8  11
ENDBRANCH   7   8
ENDBRANCH   2   7
BRANCH   1  19
ATOM     19  C   UNL d   1      57.024   0.243  32.711  0.00  0.00     0.279 C 
ATOM     20  O   UNL d   1      57.468   0.112  33.393  0.00  0.00    -0.265 OA
ATOM     21  N   UNL d   1      56.207   0.314  32.757  0.00  0.00    -0.204 NA
BRANCH  21  22
ATOM     22  C   UNL d   1      55.833   0.255  33.490  0.00  0.00     0.128 C 
BRANCH  22  23
ATOM     23  C   UNL d   1      55.051   0.502  33.577  0.00  0.00     0.137 C 
BRANCH  23  24
ATOM     24  O   UNL d   1      54.750   0.681  34.342  0.00  0.00    -0.325 OA
ATOM     25  C   UNL d   1      53.940   0.682  34.472  0.00  0.00     0.182 C 
ENDBRANCH  23  24
ENDBRANCH  22  23
ENDBRANCH  21  22
ENDBRANCH   1  19
TORSDOF 7
ENDMDL
