MODEL 1
REMARK VINA RESULT:      -7.2      0.000      0.000
REMARK  3 active torsions:
REMARK  status: ('A' for Active; 'I' for Inactive)
REMARK    1  A    between atoms: C_6  and  C_1 
REMARK       I    between atoms: N_8  and  C_6 
REMARK    2  A    between atoms: C_16  and  N_8 
REMARK       I    between atoms: C_12  and  N_13 
REMARK    3  A    between atoms: N_13  and  C_17 
ROOT
ATOM      1  C   UNL d   1     -41.929-122.792 -50.838  0.00  0.00     0.302 C 
ATOM      2  N   UNL d   1     -41.367-123.128 -51.340  0.00  0.00    -0.206 NA
ATOM      3  O   UNL d   1     -42.484-122.268 -51.135  0.00  0.00    -0.263 OA
ENDROOT
BRANCH   1   4
ATOM      4  C   UNL d   1     -41.930-122.984 -50.036  0.00  0.00     0.158 A 
ATOM      5  O   UNL d   1     -41.260-123.076 -49.554  0.00  0.00    -0.302 OA
ATOM      6  C   UNL d   1     -41.527-123.270 -48.788  0.00  0.00     0.100 A 
ATOM      7  C   UNL d   1     -41.123-123.426 -48.080  0.00  0.00     0.025 A 
ATOM      8  C   UNL d   1     -42.355-123.298 -48.796  0.00  0.00     0.025 A 
ATOM      9  C   UNL d   1     -41.542-123.605 -47.395  0.00  0.00     0.002 A 
ATOM     10  C   UNL d   1     -41.138-123.760 -46.691  0.00  0.00     0.000 C 
ATOM     11  C   UNL d   1     -42.370-123.631 -47.411  0.00  0.00     0.000 A 
ATOM     12  C   UNL d   1     -42.775-123.477 -48.111  0.00  0.00     0.002 A 
ATOM     13  C   UNL d   1     -42.787-123.811 -46.725  0.00  0.00     0.000 C 
ATOM     14  C   UNL d   1     -42.618-123.125 -49.555  0.00  0.00     0.029 A 
ATOM     15  C   UNL d   1     -43.402-123.091 -49.812  0.00  0.00     0.002 C 
ENDBRANCH   1   4
BRANCH   2  16
ATOM     16  C   UNL d   1     -41.363-122.937 -52.143  0.00  0.00     0.085 A 
ATOM     17  C   UNL d   1     -41.497-123.531 -52.699  0.00  0.00     0.021 A 
ATOM     18  C   UNL d   1     -41.493-123.342 -53.497  0.00  0.00     0.021 A 
ATOM     19  C   UNL d   1     -41.356-122.562 -53.745  0.00  0.00     0.085 A 
ATOM     20  C   UNL d   1     -41.222-121.975 -53.181  0.00  0.00     0.021 A 
ATOM     21  C   UNL d   1     -41.225-122.160 -52.377  0.00  0.00     0.021 A 
BRANCH  19  22
ATOM     22  N   UNL d   1     -41.352-122.376 -54.548  0.00  0.00    -0.208 NA
ATOM     23  C   UNL d   1     -42.050-122.128 -54.914  0.00  0.00     0.279 C 
ATOM     24  O   UNL d   1     -42.755-122.065 -54.481  0.00  0.00    -0.265 OA
ATOM     25  C   UNL d   1     -42.055-121.940 -55.718  0.00  0.00     0.068 C 
ENDBRANCH  19  22
ENDBRANCH   2  16
TORSDOF 3
ENDMDL
