MODEL 1
REMARK VINA RESULT:      89.4      0.000      0.000
REMARK  6 active torsions:
REMARK  status: ('A' for Active; 'I' for Inactive)
REMARK    1  A    between atoms: C_7  and  C_1 
REMARK    2  A    between atoms: C_19  and  N_2 
REMARK    3  A    between atoms: C_18  and  N_3 
REMARK    4  A    between atoms: C_13  and  C_9 
REMARK    5  A    between atoms: O_20  and  C_13 
REMARK    6  A    between atoms: C_23  and  O_20 
ROOT
ATOM      1  C   UNL d   1      60.555  48.126  50.761  0.00  0.00     0.013 A 
ATOM      2  C   UNL d   1      59.919  48.464  50.349  0.00  0.00     0.030 A 
ATOM      3  C   UNL d   1      59.631  49.205  50.554  0.00  0.00     0.163 A 
ATOM      4  O   UNL d   1      59.977  49.628  51.182  0.00  0.00    -0.302 OA
ATOM      5  C   UNL d   1      60.905  48.540  51.387  0.00  0.00     0.023 A 
ATOM      6  C   UNL d   1      60.615  49.292  51.597  0.00  0.00     0.100 A 
ATOM      7  C   UNL d   1      61.539  48.214  51.804  0.00  0.00     0.002 A 
ATOM      8  C   UNL d   1      60.967  49.708  52.226  0.00  0.00     0.025 A 
ATOM      9  C   UNL d   1      61.887  48.625  52.427  0.00  0.00     0.000 A 
ATOM     10  C   UNL d   1      61.598  49.379  52.641  0.00  0.00     0.002 A 
ENDROOT
BRANCH   1  11
ATOM     11  C   UNL d   1      60.842  47.382  50.553  0.00  0.00     0.113 A 
ATOM     12  C   UNL d   1      60.515  46.705  50.901  0.00  0.00     0.271 A 
ATOM     13  N   UNL d   1      60.798  45.962  50.697  0.00  0.00    -0.250 N 
ATOM     14  O   UNL d   1      59.906  46.780  51.453  0.00  0.00    -0.266 OA
ATOM     15  C   UNL d   1      61.405  45.890  50.147  0.00  0.00     0.196 A 
ATOM     16  N   UNL d   1      61.731  46.566  49.799  0.00  0.00    -0.250 N 
ATOM     17  S   UNL d   1      61.692  45.141  49.938  0.00  0.00    -0.039 SA
ATOM     18  C   UNL d   1      61.452  47.319  50.000  0.00  0.00     0.271 A 
ATOM     19  O   UNL d   1      61.777  47.993  49.654  0.00  0.00    -0.266 OA
BRANCH  13  20
ATOM     20  C   UNL d   1      60.473  45.288  51.043  0.00  0.00     0.085 C 
ATOM     21  C   UNL d   1      60.964  44.697  51.334  0.00  0.00     0.021 C 
ENDBRANCH  13  20
BRANCH  16  22
ATOM     22  C   UNL d   1      62.341  46.488  49.247  0.00  0.00     0.085 C 
ATOM     23  C   UNL d   1      62.513  45.753  48.919  0.00  0.00     0.021 C 
ENDBRANCH  16  22
ENDBRANCH   1  11
BRANCH   3  24
ATOM     24  C   UNL d   1      59.002  49.531  50.140  0.00  0.00     0.323 C 
ATOM     25  O   UNL d   1      59.080  49.696  49.337  0.00  0.00    -0.257 OA
BRANCH  24  26
ATOM     26  O   UNL d   1      58.294  49.693  50.526  0.00  0.00    -0.270 OA
BRANCH  26  27
ATOM     27  C   UNL d   1      57.588  49.708  50.103  0.00  0.00     0.126 C 
ATOM     28  C   UNL d   1      56.914  49.348  50.409  0.00  0.00     0.029 C 
ENDBRANCH  26  27
ENDBRANCH  24  26
ENDBRANCH   3  24
TORSDOF 6
ENDMDL
MODEL 2
REMARK VINA RESULT:      91.7      0.225      1.484
REMARK  6 active torsions:
REMARK  status: ('A' for Active; 'I' for Inactive)
REMARK    1  A    between atoms: C_7  and  C_1 
REMARK    2  A    between atoms: C_19  and  N_2 
REMARK    3  A    between atoms: C_18  and  N_3 
REMARK    4  A    between atoms: C_13  and  C_9 
REMARK    5  A    between atoms: O_20  and  C_13 
REMARK    6  A    between atoms: C_23  and  O_20 
ROOT
ATOM      1  C   UNL d   1      60.460  48.033  50.718  0.00  0.00     0.013 A 
ATOM      2  C   UNL d   1      59.775  48.300  50.333  0.00  0.00     0.030 A 
ATOM      3  C   UNL d   1      59.442  49.025  50.526  0.00  0.00     0.163 A 
ATOM      4  O   UNL d   1      59.789  49.502  51.112  0.00  0.00    -0.302 OA
ATOM      5  C   UNL d   1      60.813  48.501  51.302  0.00  0.00     0.023 A 
ATOM      6  C   UNL d   1      60.476  49.237  51.499  0.00  0.00     0.100 A 
ATOM      7  C   UNL d   1      61.495  48.244  51.691  0.00  0.00     0.002 A 
ATOM      8  C   UNL d   1      60.830  49.707  52.087  0.00  0.00     0.025 A 
ATOM      9  C   UNL d   1      61.845  48.711  52.273  0.00  0.00     0.000 A 
ATOM     10  C   UNL d   1      61.510  49.449  52.473  0.00  0.00     0.002 A 
ENDROOT
BRANCH   1  11
ATOM     11  C   UNL d   1      60.793  47.304  50.522  0.00  0.00     0.113 A 
ATOM     12  C   UNL d   1      61.388  47.267  49.947  0.00  0.00     0.271 A 
ATOM     13  N   UNL d   1      61.722  46.543  49.749  0.00  0.00    -0.250 N 
ATOM     14  O   UNL d   1      61.642  47.957  49.573  0.00  0.00    -0.266 OA
ATOM     15  C   UNL d   1      61.467  45.857  50.122  0.00  0.00     0.196 A 
ATOM     16  N   UNL d   1      60.873  45.895  50.698  0.00  0.00    -0.250 N 
ATOM     17  S   UNL d   1      61.803  45.125  49.925  0.00  0.00    -0.039 SA
ATOM     18  C   UNL d   1      60.531  46.619  50.902  0.00  0.00     0.271 A 
ATOM     19  O   UNL d   1      59.940  46.657  51.475  0.00  0.00    -0.266 OA
BRANCH  13  20
ATOM     20  C   UNL d   1      62.314  46.506  49.176  0.00  0.00     0.085 C 
ATOM     21  C   UNL d   1      62.607  45.777  48.935  0.00  0.00     0.021 C 
ENDBRANCH  13  20
BRANCH  16  22
ATOM     22  C   UNL d   1      60.621  45.201  51.070  0.00  0.00     0.085 C 
ATOM     23  C   UNL d   1      61.125  44.793  51.576  0.00  0.00     0.021 C 
ENDBRANCH  16  22
ENDBRANCH   1  11
BRANCH   3  24
ATOM     24  C   UNL d   1      58.763  49.281  50.140  0.00  0.00     0.323 C 
ATOM     25  O   UNL d   1      58.827  49.704  49.435  0.00  0.00    -0.257 OA
BRANCH  24  26
ATOM     26  O   UNL d   1      58.022  49.117  50.455  0.00  0.00    -0.270 OA
BRANCH  26  27
ATOM     27  C   UNL d   1      57.376  49.586  50.254  0.00  0.00     0.126 C 
ATOM     28  C   UNL d   1      56.640  49.446  50.594  0.00  0.00     0.029 C 
ENDBRANCH  26  27
ENDBRANCH  24  26
ENDBRANCH   3  24
TORSDOF 6
ENDMDL
