MODEL 1
REMARK VINA RESULT:      41.5      0.000      0.000
REMARK  4 active torsions:
REMARK  status: ('A' for Active; 'I' for Inactive)
REMARK    1  A    between atoms: N_4  and  C_1 
REMARK    2  A    between atoms: C_11  and  C_3 
REMARK       I    between atoms: C_6  and  N_4 
REMARK    3  A    between atoms: C_8  and  C_6 
REMARK    4  A    between atoms: C_9  and  C_8 
ROOT
ATOM      1  C   UNL d   1     -54.771-101.590 -40.547  0.00  0.00     0.197 A 
ATOM      2  N   UNL d   1     -54.861-101.365 -39.764  0.00  0.00    -0.221 NA
ATOM      3  C   UNL d   1     -54.869-102.050 -39.300  0.00  0.00     0.092 A 
ATOM      4  S   UNL d   1     -54.724-102.411 -40.576  0.00  0.00    -0.046 SA
ATOM      5  C   UNL d   1     -54.784-102.702 -39.809  0.00  0.00     0.058 A 
ENDROOT
BRANCH   1   6
ATOM      6  N   UNL d   1     -54.734-101.086 -41.203  0.00  0.00    -0.183 NA
ATOM      7  C   UNL d   1     -54.765-101.407 -41.964  0.00  0.00     0.281 C 
ATOM      8  O   UNL d   1     -54.832-102.219 -42.062  0.00  0.00    -0.265 OA
BRANCH   7   9
ATOM      9  C   UNL d   1     -54.729-100.912 -42.622  0.00  0.00     0.069 C 
BRANCH   9  10
ATOM     10  C   UNL d   1     -55.198-101.113 -43.266  0.00  0.00     0.034 A 
ATOM     11  S   UNL d   1     -55.262-101.859 -43.609  0.00  0.00    -0.086 SA
ATOM     12  C   UNL d   1     -55.794-101.811 -44.240  0.00  0.00     0.035 A 
ATOM     13  C   UNL d   1     -56.060-101.027 -44.284  0.00  0.00     0.007 A 
ATOM     14  C   UNL d   1     -55.692-100.597 -43.682  0.00  0.00     0.007 A 
ENDBRANCH   9  10
ENDBRANCH   7   9
ENDBRANCH   1   6
BRANCH   3  15
ATOM     15  C   UNL d   1     -54.948-102.088 -38.482  0.00  0.00     0.037 A 
ATOM     16  C   UNL d   1     -55.092-102.818 -38.132  0.00  0.00     0.100 A 
ATOM     17  N   UNL d   1     -55.172-102.864 -37.315  0.00  0.00    -0.242 NA
ATOM     18  C   UNL d   1     -55.108-102.183 -36.851  0.00  0.00     0.099 A 
ATOM     19  C   UNL d   1     -54.964-101.464 -37.211  0.00  0.00     0.021 A 
ATOM     20  C   UNL d   1     -54.882-101.408 -38.034  0.00  0.00     0.005 A 
ENDBRANCH   3  15
TORSDOF 4
ENDMDL
MODEL 2
REMARK VINA RESULT:      42.9      1.410      2.410
REMARK  4 active torsions:
REMARK  status: ('A' for Active; 'I' for Inactive)
REMARK    1  A    between atoms: N_4  and  C_1 
REMARK    2  A    between atoms: C_11  and  C_3 
REMARK       I    between atoms: C_6  and  N_4 
REMARK    3  A    between atoms: C_8  and  C_6 
REMARK    4  A    between atoms: C_9  and  C_8 
ROOT
ATOM      1  C   UNL d   1     -54.988-101.534 -42.807  0.00  0.00     0.197 A 
ATOM      2  N   UNL d   1     -54.725-101.402 -42.042  0.00  0.00    -0.221 NA
ATOM      3  C   UNL d   1     -55.051-101.985 -41.554  0.00  0.00     0.092 A 
ATOM      4  S   UNL d   1     -55.477-102.196 -42.802  0.00  0.00    -0.046 SA
ATOM      5  C   UNL d   1     -55.521-102.480 -42.030  0.00  0.00     0.058 A 
ENDROOT
BRANCH   1   6
ATOM      6  N   UNL d   1     -54.799-101.085 -43.476  0.00  0.00    -0.183 NA
ATOM      7  C   UNL d   1     -55.106-101.304 -44.212  0.00  0.00     0.281 C 
ATOM      8  O   UNL d   1     -55.592-101.963 -44.272  0.00  0.00    -0.265 OA
BRANCH   7   9
ATOM      9  C   UNL d   1     -54.923-100.862 -44.884  0.00  0.00     0.069 C 
BRANCH   9  10
ATOM     10  C   UNL d   1     -55.059-100.053 -44.844  0.00  0.00     0.034 A 
ATOM     11  S   UNL d   1     -54.712 -99.524 -44.316  0.00  0.00    -0.086 SA
ATOM     12  C   UNL d   1     -55.006 -98.768 -44.473  0.00  0.00     0.035 A 
ATOM     13  C   UNL d   1     -55.539 -98.833 -45.104  0.00  0.00     0.007 A 
ATOM     14  C   UNL d   1     -55.571 -99.626 -45.333  0.00  0.00     0.007 A 
ENDBRANCH   9  10
ENDBRANCH   7   9
ENDBRANCH   1   6
BRANCH   3  15
ATOM     15  C   UNL d   1     -54.938-102.067 -40.744  0.00  0.00     0.037 A 
ATOM     16  C   UNL d   1     -54.881-101.390 -40.281  0.00  0.00     0.100 A 
ATOM     17  N   UNL d   1     -54.767-101.465 -39.471  0.00  0.00    -0.242 NA
ATOM     18  C   UNL d   1     -54.711-102.213 -39.124  0.00  0.00     0.099 A 
ATOM     19  C   UNL d   1     -54.770-102.878 -39.596  0.00  0.00     0.021 A 
ATOM     20  C   UNL d   1     -54.884-102.813 -40.414  0.00  0.00     0.005 A 
ENDBRANCH   3  15
TORSDOF 4
ENDMDL
