MODEL 1
REMARK VINA RESULT:      -8.4      0.000      0.000
REMARK  2 active torsions:
REMARK  status: ('A' for Active; 'I' for Inactive)
REMARK    1  A    between atoms: C_13  and  C_2 
REMARK    2  A    between atoms: N_12  and  C_8 
ROOT
ATOM      1  N   UNL d   1     -49.547  13.327  22.918  0.00  0.00    -0.301 N 
ATOM      2  C   UNL d   1     -50.088  14.651  22.925  0.00  0.00     0.121 A 
ATOM      3  C   UNL d   1     -48.792  13.638  22.929  0.00  0.00     0.092 A 
ATOM      4  C   UNL d   1     -48.129  13.129  22.930  0.00  0.00     0.134 A 
ATOM      5  C   UNL d   1     -48.678  14.455  22.937  0.00  0.00     0.060 A 
ATOM      6  C   UNL d   1     -50.201  13.834  22.917  0.00  0.00     0.090 A 
ATOM      7  C   UNL d   1     -49.321  14.952  22.935  0.00  0.00     0.204 A 
ATOM      8  C   UNL d   1     -47.362  13.438  22.941  0.00  0.00     0.116 A 
ATOM      9  O   UNL d   1     -48.244  12.303  22.922  0.00  0.00    -0.301 OA
ATOM     10  C   UNL d   1     -47.248  14.256  22.949  0.00  0.00     0.158 A 
ATOM     11  C   UNL d   1     -47.921  14.757  22.947  0.00  0.00     0.036 A 
ATOM     12  C   UNL d   1     -49.660  12.513  22.910  0.00  0.00     0.089 A 
ATOM     13  O   UNL d   1     -49.206  15.777  22.943  0.00  0.00    -0.286 OA
ATOM     14  C   UNL d   1     -49.020  12.004  22.912  0.00  0.00     0.140 A 
ATOM     15  F   UNL d   1     -46.479  14.582  22.959  0.00  0.00    -0.203 F 
ATOM     16  C   UNL d   1     -50.429  12.200  22.900  0.00  0.00     0.021 C 
ENDROOT
BRANCH   8  17
ATOM     17  N   UNL d   1     -46.708  12.934  22.942  0.00  0.00    -0.298 N 
ATOM     18  C   UNL d   1     -46.217  12.894  22.268  0.00  0.00     0.100 A 
ATOM     19  C   UNL d   1     -45.559  12.380  22.285  0.00  0.00     0.100 A 
ATOM     20  N   UNL d   1     -45.399  11.922  22.951  0.00  0.00    -0.299 N 
ATOM     21  C   UNL d   1     -45.909  11.985  23.610  0.00  0.00     0.100 A 
ATOM     22  C   UNL d   1     -44.744  11.414  22.959  0.00  0.00     0.100 C 
ATOM     23  C   UNL d   1     -46.547  12.476  23.609  0.00  0.00     0.100 A 
ENDBRANCH   8  17
BRANCH   2  24
ATOM     24  C   UNL d   1     -50.738  15.176  22.923  0.00  0.00     0.215 C 
ATOM     25  O   UNL d   1     -51.064  15.453  22.207  0.00  0.00    -0.644 OA
ATOM     26  O   UNL d   1     -51.064  15.426  23.634  0.00  0.00    -0.644 OA
ENDBRANCH   2  24
TORSDOF 2
ENDMDL
MODEL 2
REMARK VINA RESULT:      -8.1      1.654      4.583
REMARK  2 active torsions:
REMARK  status: ('A' for Active; 'I' for Inactive)
REMARK    1  A    between atoms: C_13  and  C_2 
REMARK    2  A    between atoms: N_12  and  C_8 
ROOT
ATOM      1  N   UNL d   1     -46.340  12.836  22.879  0.00  0.00    -0.301 N 
ATOM      2  C   UNL d   1     -45.842  11.551  23.262  0.00  0.00     0.121 A 
ATOM      3  C   UNL d   1     -47.101  12.587  23.042  0.00  0.00     0.092 A 
ATOM      4  C   UNL d   1     -47.745  13.107  22.934  0.00  0.00     0.134 A 
ATOM      5  C   UNL d   1     -47.238  11.821  23.315  0.00  0.00     0.060 A 
ATOM      6  C   UNL d   1     -45.704  12.318  22.989  0.00  0.00     0.090 A 
ATOM      7  C   UNL d   1     -46.613  11.312  23.422  0.00  0.00     0.204 A 
ATOM      8  C   UNL d   1     -48.517  12.860  23.097  0.00  0.00     0.116 A 
ATOM      9  O   UNL d   1     -47.606  13.882  22.658  0.00  0.00    -0.301 OA
ATOM     10  C   UNL d   1     -48.655  12.094  23.370  0.00  0.00     0.158 A 
ATOM     11  C   UNL d   1     -48.000  11.579  23.476  0.00  0.00     0.036 A 
ATOM     12  C   UNL d   1     -46.203  13.600  22.608  0.00  0.00     0.089 A 
ATOM     13  O   UNL d   1     -46.752  10.538  23.698  0.00  0.00    -0.286 OA
ATOM     14  C   UNL d   1     -46.826  14.120  22.497  0.00  0.00     0.140 A 
ATOM     15  F   UNL d   1     -49.430  11.830  23.539  0.00  0.00    -0.203 F 
ATOM     16  C   UNL d   1     -45.430  13.850  22.443  0.00  0.00     0.021 C 
ENDROOT
BRANCH   8  17
ATOM     17  N   UNL d   1     -49.153  13.376  22.989  0.00  0.00    -0.298 N 
ATOM     18  C   UNL d   1     -49.578  13.361  22.270  0.00  0.00     0.100 A 
ATOM     19  C   UNL d   1     -50.218  13.888  22.175  0.00  0.00     0.100 A 
ATOM     20  N   UNL d   1     -50.426  14.412  22.777  0.00  0.00    -0.299 N 
ATOM     21  C   UNL d   1     -49.981  14.403  23.485  0.00  0.00     0.100 A 
ATOM     22  C   UNL d   1     -51.063  14.932  22.674  0.00  0.00     0.100 C 
ATOM     23  C   UNL d   1     -49.361  13.900  23.591  0.00  0.00     0.100 A 
ENDBRANCH   8  17
BRANCH   2  24
ATOM     24  C   UNL d   1     -45.210  11.016  23.377  0.00  0.00     0.215 C 
ATOM     25  O   UNL d   1     -44.428  11.225  23.174  0.00  0.00    -0.644 OA
ATOM     26  O   UNL d   1     -45.356  10.273  23.693  0.00  0.00    -0.644 OA
ENDBRANCH   2  24
TORSDOF 2
ENDMDL
MODEL 3
REMARK VINA RESULT:      -6.4      8.692     10.017
REMARK  2 active torsions:
REMARK  status: ('A' for Active; 'I' for Inactive)
REMARK    1  A    between atoms: C_13  and  C_2 
REMARK    2  A    between atoms: N_12  and  C_8 
ROOT
ATOM      1  N   UNL d   1     -39.772  14.993  21.083  0.00  0.00    -0.301 N 
ATOM      2  C   UNL d   1     -38.936  14.065  21.781  0.00  0.00     0.121 A 
ATOM      3  C   UNL d   1     -39.517  14.684  20.372  0.00  0.00     0.092 A 
ATOM      4  C   UNL d   1     -39.808  14.992  19.652  0.00  0.00     0.134 A 
ATOM      5  C   UNL d   1     -38.972  14.065  20.358  0.00  0.00     0.060 A 
ATOM      6  C   UNL d   1     -39.481  14.684  21.794  0.00  0.00     0.090 A 
ATOM      7  C   UNL d   1     -38.687  13.762  21.056  0.00  0.00     0.204 A 
ATOM      8  C   UNL d   1     -39.554  14.683  18.928  0.00  0.00     0.116 A 
ATOM      9  O   UNL d   1     -40.360  15.618  19.666  0.00  0.00    -0.301 OA
ATOM     10  C   UNL d   1     -39.009  14.064  18.914  0.00  0.00     0.158 A 
ATOM     11  C   UNL d   1     -38.723  13.762  19.643  0.00  0.00     0.036 A 
ATOM     12  C   UNL d   1     -40.315  15.609  21.097  0.00  0.00     0.089 A 
ATOM     13  O   UNL d   1     -38.136  13.137  21.042  0.00  0.00    -0.286 OA
ATOM     14  C   UNL d   1     -40.608  15.921  20.399  0.00  0.00     0.140 A 
ATOM     15  F   UNL d   1     -38.743  13.742  18.191  0.00  0.00    -0.203 F 
ATOM     16  C   UNL d   1     -40.572  15.922  21.822  0.00  0.00     0.021 C 
ENDROOT
BRANCH   8  17
ATOM     17  N   UNL d   1     -39.843  14.990  18.218  0.00  0.00    -0.298 N 
ATOM     18  C   UNL d   1     -39.430  15.608  17.838  0.00  0.00     0.100 A 
ATOM     19  C   UNL d   1     -39.733  15.908  17.121  0.00  0.00     0.100 A 
ATOM     20  N   UNL d   1     -40.426  15.601  16.795  0.00  0.00    -0.299 N 
ATOM     21  C   UNL d   1     -40.816  14.982  17.199  0.00  0.00     0.100 A 
ATOM     22  C   UNL d   1     -40.721  15.905  16.082  0.00  0.00     0.100 C 
ATOM     23  C   UNL d   1     -40.535  14.682  17.892  0.00  0.00     0.100 A 
ENDBRANCH   8  17
BRANCH   2  24
ATOM     24  C   UNL d   1     -38.633  13.743  22.490  0.00  0.00     0.215 C 
ATOM     25  O   UNL d   1     -37.940  14.048  22.839  0.00  0.00    -0.644 OA
ATOM     26  O   UNL d   1     -39.020  13.116  22.853  0.00  0.00    -0.644 OA
ENDBRANCH   2  24
TORSDOF 2
ENDMDL
MODEL 4
REMARK VINA RESULT:      -6.3      8.438     10.462
REMARK  2 active torsions:
REMARK  status: ('A' for Active; 'I' for Inactive)
REMARK    1  A    between atoms: C_13  and  C_2 
REMARK    2  A    between atoms: N_12  and  C_8 
ROOT
ATOM      1  N   UNL d   1     -39.125  15.195  19.707  0.00  0.00    -0.301 N 
ATOM      2  C   UNL d   1     -40.215  14.628  20.439  0.00  0.00     0.121 A 
ATOM      3  C   UNL d   1     -39.465  14.943  19.009  0.00  0.00     0.092 A 
ATOM      4  C   UNL d   1     -39.091  15.099  18.279  0.00  0.00     0.134 A 
ATOM      5  C   UNL d   1     -40.181  14.532  19.020  0.00  0.00     0.060 A 
ATOM      6  C   UNL d   1     -39.499  15.039  20.429  0.00  0.00     0.090 A 
ATOM      7  C   UNL d   1     -40.548  14.379  19.729  0.00  0.00     0.204 A 
ATOM      8  C   UNL d   1     -39.431  14.846  17.569  0.00  0.00     0.116 A 
ATOM      9  O   UNL d   1     -38.368  15.514  18.268  0.00  0.00    -0.301 OA
ATOM     10  C   UNL d   1     -40.147  14.435  17.580  0.00  0.00     0.158 A 
ATOM     11  C   UNL d   1     -40.515  14.284  18.319  0.00  0.00     0.036 A 
ATOM     12  C   UNL d   1     -38.412  15.604  19.697  0.00  0.00     0.089 A 
ATOM     13  O   UNL d   1     -41.270  13.964  19.739  0.00  0.00    -0.286 OA
ATOM     14  C   UNL d   1     -38.034  15.764  18.988  0.00  0.00     0.140 A 
ATOM     15  F   UNL d   1     -40.503  14.173  16.870  0.00  0.00    -0.203 F 
ATOM     16  C   UNL d   1     -38.068  15.860  20.407  0.00  0.00     0.021 C 
ENDROOT
BRANCH   8  17
ATOM     17  N   UNL d   1     -39.060  15.001  16.849  0.00  0.00    -0.298 N 
ATOM     18  C   UNL d   1     -38.553  14.428  16.514  0.00  0.00     0.100 A 
ATOM     19  C   UNL d   1     -38.184  14.599  15.785  0.00  0.00     0.100 A 
ATOM     20  N   UNL d   1     -38.317  15.318  15.404  0.00  0.00    -0.299 N 
ATOM     21  C   UNL d   1     -38.829  15.871  15.764  0.00  0.00     0.100 A 
ATOM     22  C   UNL d   1     -37.946  15.479  14.680  0.00  0.00     0.100 C 
ATOM     23  C   UNL d   1     -39.192  15.721  16.467  0.00  0.00     0.100 A 
ENDBRANCH   8  17
BRANCH   2  24
ATOM     24  C   UNL d   1     -40.604  14.462  21.160  0.00  0.00     0.215 C 
ATOM     25  O   UNL d   1     -40.360  13.828  21.644  0.00  0.00    -0.644 OA
ATOM     26  O   UNL d   1     -41.237  14.927  21.399  0.00  0.00    -0.644 OA
ENDBRANCH   2  24
TORSDOF 2
ENDMDL
MODEL 5
REMARK VINA RESULT:      -6.0      1.233      1.990
REMARK  2 active torsions:
REMARK  status: ('A' for Active; 'I' for Inactive)
REMARK    1  A    between atoms: C_13  and  C_2 
REMARK    2  A    between atoms: N_12  and  C_8 
ROOT
ATOM      1  N   UNL d   1     -48.587  14.426  22.751  0.00  0.00    -0.301 N 
ATOM      2  C   UNL d   1     -50.009  14.556  22.822  0.00  0.00     0.121 A 
ATOM      3  C   UNL d   1     -48.649  13.645  22.984  0.00  0.00     0.092 A 
ATOM      4  C   UNL d   1     -47.963  13.177  23.069  0.00  0.00     0.134 A 
ATOM      5  C   UNL d   1     -49.389  13.315  23.138  0.00  0.00     0.060 A 
ATOM      6  C   UNL d   1     -49.269  14.887  22.669  0.00  0.00     0.090 A 
ATOM      7  C   UNL d   1     -50.059  13.767  23.056  0.00  0.00     0.204 A 
ATOM      8  C   UNL d   1     -48.019  12.386  23.304  0.00  0.00     0.116 A 
ATOM      9  O   UNL d   1     -47.214  13.511  22.914  0.00  0.00    -0.301 OA
ATOM     10  C   UNL d   1     -48.759  12.055  23.458  0.00  0.00     0.158 A 
ATOM     11  C   UNL d   1     -49.443  12.535  23.370  0.00  0.00     0.036 A 
ATOM     12  C   UNL d   1     -47.850  14.755  22.598  0.00  0.00     0.089 A 
ATOM     13  O   UNL d   1     -50.806  13.433  23.211  0.00  0.00    -0.286 OA
ATOM     14  C   UNL d   1     -47.169  14.307  22.677  0.00  0.00     0.140 A 
ATOM     15  F   UNL d   1     -48.833  11.257  23.697  0.00  0.00    -0.203 F 
ATOM     16  C   UNL d   1     -47.789  15.548  22.362  0.00  0.00     0.021 C 
ENDROOT
BRANCH   8  17
ATOM     17  N   UNL d   1     -47.340  11.925  23.387  0.00  0.00    -0.298 N 
ATOM     18  C   UNL d   1     -46.622  12.286  23.616  0.00  0.00     0.100 A 
ATOM     19  C   UNL d   1     -45.943  11.807  23.695  0.00  0.00     0.100 A 
ATOM     20  N   UNL d   1     -45.980  10.995  23.553  0.00  0.00    -0.299 N 
ATOM     21  C   UNL d   1     -46.714  10.664  23.326  0.00  0.00     0.100 A 
ATOM     22  C   UNL d   1     -45.301  10.527  23.634  0.00  0.00     0.100 C 
ATOM     23  C   UNL d   1     -47.377  11.113  23.245  0.00  0.00     0.100 A 
ENDBRANCH   8  17
BRANCH   2  24
ATOM     24  C   UNL d   1     -50.708  15.009  22.743  0.00  0.00     0.215 C 
ATOM     25  O   UNL d   1     -51.053  15.137  21.995  0.00  0.00    -0.644 OA
ATOM     26  O   UNL d   1     -51.062  15.334  23.408  0.00  0.00    -0.644 OA
ENDBRANCH   2  24
TORSDOF 2
ENDMDL
