MODEL 1
REMARK VINA RESULT:      -0.4      0.000      0.000
REMARK  6 active torsions:
REMARK  status: ('A' for Active; 'I' for Inactive)
REMARK    1  A    between atoms: N_2  and  S_1 
REMARK    2  A    between atoms: C_11  and  S_1 
REMARK    3  A    between atoms: C_3  and  N_2 
REMARK    4  A    between atoms: C_4  and  C_3 
REMARK    5  A    between atoms: N_5  and  C_4 
REMARK    6  A    between atoms: C_6  and  C_4 
ROOT
ATOM      1  C   UNL d   1     -41.792-122.404 -51.369  0.00  0.00     0.089 C 
ENDROOT
BRANCH   1   2
ATOM      2  C   UNL d   1     -41.548-122.870 -52.002  0.00  0.00     0.110 C 
ATOM      3  C   UNL d   1     -41.123-123.563 -51.864  0.00  0.00     0.023 C 
BRANCH   2   4
ATOM      4  N   UNL d   1     -41.728-122.645 -52.769  0.00  0.00    -0.157 NA
BRANCH   4   5
ATOM      5  S   UNL d   1     -41.521-123.121 -53.407  0.00  0.00     0.285 S 
ATOM      6  O   UNL d   1     -41.172-123.624 -52.847  0.00  0.00    -0.198 OA
ATOM      7  O   UNL d   1     -41.146-123.817 -53.651  0.00  0.00    -0.198 OA
BRANCH   5   8
ATOM      8  C   UNL d   1     -41.845-122.669 -54.012  0.00  0.00     0.105 A 
ATOM      9  C   UNL d   1     -42.662-122.557 -54.044  0.00  0.00     0.013 A 
ATOM     10  C   UNL d   1     -42.980-122.102 -54.654  0.00  0.00     0.001 A 
ATOM     11  C   UNL d   1     -42.496-121.763 -55.225  0.00  0.00     0.000 A 
ATOM     12  C   UNL d   1     -41.679-121.877 -55.189  0.00  0.00     0.001 A 
ATOM     13  C   UNL d   1     -41.362-122.332 -54.579  0.00  0.00     0.013 A 
ENDBRANCH   5   8
ENDBRANCH   4   5
ENDBRANCH   2   4
ENDBRANCH   1   2
BRANCH   1  14
ATOM     14  N   UNL d   1     -42.291-122.714 -50.797  0.00  0.00    -0.300 N 
ATOM     15  C   UNL d   1     -43.077-122.469 -50.753  0.00  0.00     0.100 A 
ATOM     16  C   UNL d   1     -43.579-122.783 -50.174  0.00  0.00     0.100 A 
ATOM     17  N   UNL d   1     -43.298-123.341 -49.640  0.00  0.00    -0.299 N 
ATOM     18  C   UNL d   1     -42.508-123.589 -49.683  0.00  0.00     0.100 A 
ATOM     19  C   UNL d   1     -43.804-123.655 -49.061  0.00  0.00     0.100 C 
ATOM     20  C   UNL d   1     -42.010-123.279 -50.255  0.00  0.00     0.100 A 
ENDBRANCH   1  14
BRANCH   1  21
ATOM     21  C   UNL d   1     -41.533-121.623 -51.312  0.00  0.00     0.047 A 
ATOM     22  S   UNL d   1     -41.361-121.216 -50.610  0.00  0.00    -0.085 SA
ATOM     23  C   UNL d   1     -41.123-120.452 -50.818  0.00  0.00     0.035 A 
ATOM     24  C   UNL d   1     -41.144-120.378 -51.632  0.00  0.00     0.007 A 
ATOM     25  C   UNL d   1     -41.400-121.107 -51.943  0.00  0.00     0.009 A 
ENDBRANCH   1  21
TORSDOF 6
ENDMDL
