MODEL 1
REMARK VINA RESULT:      -7.8      0.000      0.000
REMARK  3 active torsions:
REMARK  status: ('A' for Active; 'I' for Inactive)
REMARK    1  A    between atoms: C_6  and  C_1 
REMARK    2  A    between atoms: C_7  and  C_6 
REMARK    3  A    between atoms: O_17  and  C_15 
ROOT
ATOM      1  C   UNL d   1     -49.267  12.422  23.189  0.00  0.00     0.141 A 
ATOM      2  C   UNL d   1     -48.036  11.982  23.459  0.00  0.00     0.064 A 
ATOM      3  C   UNL d   1     -48.832  11.776  23.462  0.00  0.00     0.220 A 
ATOM      4  C   UNL d   1     -47.973  12.758  23.183  0.00  0.00     0.105 A 
ATOM      5  O   UNL d   1     -48.738  13.036  23.014  0.00  0.00    -0.304 OA
ATOM      6  C   UNL d   1     -47.237  13.111  23.121  0.00  0.00     0.049 A 
ATOM      7  C   UNL d   1     -47.359  11.561  23.671  0.00  0.00     0.007 A 
ATOM      8  O   UNL d   1     -49.150  11.046  23.698  0.00  0.00    -0.284 OA
ATOM      9  C   UNL d   1     -46.560  12.691  23.334  0.00  0.00     0.096 A 
ATOM     10  C   UNL d   1     -46.623  11.919  23.608  0.00  0.00     0.024 A 
ENDROOT
BRANCH   1  11
ATOM     11  C   UNL d   1     -50.087  12.458  23.103  0.00  0.00     0.053 C 
BRANCH  11  12
ATOM     12  C   UNL d   1     -50.432  12.991  22.570  0.00  0.00     0.102 A 
ATOM     13  O   UNL d   1     -50.479  12.907  21.752  0.00  0.00    -0.305 OA
ATOM     14  C   UNL d   1     -50.867  13.568  21.445  0.00  0.00     0.123 A 
ATOM     15  C   UNL d   1     -51.064  14.070  22.075  0.00  0.00     0.029 A 
ATOM     16  C   UNL d   1     -50.796  13.715  22.773  0.00  0.00     0.027 A 
ENDBRANCH  11  12
ENDBRANCH   1  11
BRANCH   9  17
ATOM     17  O   UNL d   1     -45.818  13.048  23.271  0.00  0.00    -0.328 OA
ATOM     18  C   UNL d   1     -45.521  13.255  22.532  0.00  0.00     0.181 C 
ENDBRANCH   9  17
TORSDOF 3
ENDMDL
MODEL 2
REMARK VINA RESULT:      -7.8      1.555      2.332
REMARK  3 active torsions:
REMARK  status: ('A' for Active; 'I' for Inactive)
REMARK    1  A    between atoms: C_6  and  C_1 
REMARK    2  A    between atoms: C_7  and  C_6 
REMARK    3  A    between atoms: O_17  and  C_15 
ROOT
ATOM      1  C   UNL d   1     -48.304  14.393  22.665  0.00  0.00     0.141 A 
ATOM      2  C   UNL d   1     -47.251  13.624  22.947  0.00  0.00     0.064 A 
ATOM      3  C   UNL d   1     -47.480  14.374  22.701  0.00  0.00     0.220 A 
ATOM      4  C   UNL d   1     -47.933  13.173  23.065  0.00  0.00     0.105 A 
ATOM      5  O   UNL d   1     -48.592  13.649  22.890  0.00  0.00    -0.304 OA
ATOM      6  C   UNL d   1     -47.871  12.396  23.314  0.00  0.00     0.049 A 
ATOM      7  C   UNL d   1     -46.507  13.292  23.080  0.00  0.00     0.007 A 
ATOM      8  O   UNL d   1     -46.975  15.007  22.519  0.00  0.00    -0.284 OA
ATOM      9  C   UNL d   1     -47.128  12.063  23.447  0.00  0.00     0.096 A 
ATOM     10  C   UNL d   1     -46.450  12.512  23.330  0.00  0.00     0.024 A 
ENDROOT
BRANCH   1  11
ATOM     11  C   UNL d   1     -48.769  15.039  22.443  0.00  0.00     0.053 C 
BRANCH  11  12
ATOM     12  C   UNL d   1     -49.497  15.181  22.813  0.00  0.00     0.102 A 
ATOM     13  O   UNL d   1     -49.615  15.552  23.539  0.00  0.00    -0.305 OA
ATOM     14  C   UNL d   1     -50.426  15.574  23.690  0.00  0.00     0.123 A 
ATOM     15  C   UNL d   1     -50.819  15.215  23.054  0.00  0.00     0.029 A 
ATOM     16  C   UNL d   1     -50.246  14.971  22.509  0.00  0.00     0.027 A 
ENDBRANCH  11  12
ENDBRANCH   1  11
BRANCH   9  17
ATOM     17  O   UNL d   1     -47.067  11.280  23.698  0.00  0.00    -0.328 OA
ATOM     18  C   UNL d   1     -46.346  10.886  23.653  0.00  0.00     0.181 C 
ENDBRANCH   9  17
TORSDOF 3
ENDMDL
MODEL 3
REMARK VINA RESULT:      -7.6      1.148      1.922
REMARK  3 active torsions:
REMARK  status: ('A' for Active; 'I' for Inactive)
REMARK    1  A    between atoms: C_6  and  C_1 
REMARK    2  A    between atoms: C_7  and  C_6 
REMARK    3  A    between atoms: O_17  and  C_15 
ROOT
ATOM      1  C   UNL d   1     -48.589  14.178  22.758  0.00  0.00     0.141 A 
ATOM      2  C   UNL d   1     -47.267  14.017  22.841  0.00  0.00     0.064 A 
ATOM      3  C   UNL d   1     -47.861  14.546  22.636  0.00  0.00     0.220 A 
ATOM      4  C   UNL d   1     -47.623  13.315  23.091  0.00  0.00     0.105 A 
ATOM      5  O   UNL d   1     -48.448  13.412  23.042  0.00  0.00    -0.304 OA
ATOM      6  C   UNL d   1     -47.161  12.684  23.330  0.00  0.00     0.049 A 
ATOM      7  C   UNL d   1     -46.444  14.082  22.831  0.00  0.00     0.007 A 
ATOM      8  O   UNL d   1     -47.754  15.320  22.355  0.00  0.00    -0.284 OA
ATOM      9  C   UNL d   1     -46.338  12.748  23.321  0.00  0.00     0.096 A 
ATOM     10  C   UNL d   1     -45.983  13.447  23.072  0.00  0.00     0.024 A 
ENDROOT
BRANCH   1  11
ATOM     11  C   UNL d   1     -49.333  14.509  22.624  0.00  0.00     0.053 C 
BRANCH  11  12
ATOM     12  C   UNL d   1     -49.942  14.056  22.289  0.00  0.00     0.102 A 
ATOM     13  O   UNL d   1     -50.014  13.838  21.498  0.00  0.00    -0.305 OA
ATOM     14  C   UNL d   1     -50.702  13.391  21.414  0.00  0.00     0.123 A 
ATOM     15  C   UNL d   1     -51.064  13.328  22.158  0.00  0.00     0.029 A 
ATOM     16  C   UNL d   1     -50.595  13.739  22.702  0.00  0.00     0.027 A 
ENDBRANCH  11  12
ENDBRANCH   1  11
BRANCH   9  17
ATOM     17  O   UNL d   1     -45.873  12.112  23.562  0.00  0.00    -0.328 OA
ATOM     18  C   UNL d   1     -46.200  11.359  23.619  0.00  0.00     0.181 C 
ENDBRANCH   9  17
TORSDOF 3
ENDMDL
MODEL 4
REMARK VINA RESULT:      -6.8      1.378      3.958
REMARK  3 active torsions:
REMARK  status: ('A' for Active; 'I' for Inactive)
REMARK    1  A    between atoms: C_6  and  C_1 
REMARK    2  A    between atoms: C_7  and  C_6 
REMARK    3  A    between atoms: O_17  and  C_15 
ROOT
ATOM      1  C   UNL d   1     -48.539  13.222  22.198  0.00  0.00     0.141 A 
ATOM      2  C   UNL d   1     -49.739  13.731  21.912  0.00  0.00     0.064 A 
ATOM      3  C   UNL d   1     -49.196  13.149  21.706  0.00  0.00     0.220 A 
ATOM      4  C   UNL d   1     -49.420  14.169  22.535  0.00  0.00     0.105 A 
ATOM      5  O   UNL d   1     -48.672  13.855  22.717  0.00  0.00    -0.304 OA
ATOM      6  C   UNL d   1     -49.844  14.792  22.856  0.00  0.00     0.049 A 
ATOM      7  C   UNL d   1     -50.484  13.919  21.612  0.00  0.00     0.007 A 
ATOM      8  O   UNL d   1     -49.288  12.583  21.106  0.00  0.00    -0.284 OA
ATOM      9  C   UNL d   1     -50.589  14.981  22.557  0.00  0.00     0.096 A 
ATOM     10  C   UNL d   1     -50.906  14.544  21.937  0.00  0.00     0.024 A 
ENDROOT
BRANCH   1  11
ATOM     11  C   UNL d   1     -47.861  12.750  22.184  0.00  0.00     0.053 C 
BRANCH  11  12
ATOM     12  C   UNL d   1     -47.131  13.053  22.434  0.00  0.00     0.102 A 
ATOM     13  O   UNL d   1     -46.628  13.543  22.004  0.00  0.00    -0.305 OA
ATOM     14  C   UNL d   1     -45.966  13.707  22.467  0.00  0.00     0.123 A 
ATOM     15  C   UNL d   1     -46.053  13.316  23.194  0.00  0.00     0.029 A 
ATOM     16  C   UNL d   1     -46.774  12.910  23.176  0.00  0.00     0.027 A 
ENDBRANCH  11  12
ENDBRANCH   1  11
BRANCH   9  17
ATOM     17  O   UNL d   1     -51.015  15.608  22.881  0.00  0.00    -0.328 OA
ATOM     18  C   UNL d   1     -51.041  15.712  23.697  0.00  0.00     0.181 C 
ENDBRANCH   9  17
TORSDOF 3
ENDMDL
MODEL 5
REMARK VINA RESULT:      -5.8      8.796     10.317
REMARK  3 active torsions:
REMARK  status: ('A' for Active; 'I' for Inactive)
REMARK    1  A    between atoms: C_6  and  C_1 
REMARK    2  A    between atoms: C_7  and  C_6 
REMARK    3  A    between atoms: O_17  and  C_15 
ROOT
ATOM      1  C   UNL d   1     -40.284  14.998  18.059  0.00  0.00     0.141 A 
ATOM      2  C   UNL d   1     -40.574  14.697  19.326  0.00  0.00     0.064 A 
ATOM      3  C   UNL d   1     -40.619  14.428  18.551  0.00  0.00     0.220 A 
ATOM      4  C   UNL d   1     -40.210  15.438  19.319  0.00  0.00     0.105 A 
ATOM      5  O   UNL d   1     -40.027  15.629  18.531  0.00  0.00    -0.304 OA
ATOM      6  C   UNL d   1     -40.090  15.842  20.021  0.00  0.00     0.049 A 
ATOM      7  C   UNL d   1     -40.819  14.363  20.040  0.00  0.00     0.007 A 
ATOM      8  O   UNL d   1     -40.946  13.706  18.301  0.00  0.00    -0.284 OA
ATOM      9  C   UNL d   1     -40.335  15.509  20.735  0.00  0.00     0.096 A 
ATOM     10  C   UNL d   1     -40.698  14.772  20.742  0.00  0.00     0.024 A 
ENDROOT
BRANCH   1  11
ATOM     11  C   UNL d   1     -40.212  14.954  17.237  0.00  0.00     0.053 C 
BRANCH  11  12
ATOM     12  C   UNL d   1     -39.513  15.194  16.861  0.00  0.00     0.102 A 
ATOM     13  O   UNL d   1     -38.800  14.782  16.840  0.00  0.00    -0.305 OA
ATOM     14  C   UNL d   1     -38.257  15.226  16.406  0.00  0.00     0.123 A 
ATOM     15  C   UNL d   1     -38.632  15.922  16.153  0.00  0.00     0.029 A 
ATOM     16  C   UNL d   1     -39.411  15.904  16.433  0.00  0.00     0.027 A 
ENDBRANCH  11  12
ENDBRANCH   1  11
BRANCH   9  17
ATOM     17  O   UNL d   1     -40.214  15.917  21.441  0.00  0.00    -0.328 OA
ATOM     18  C   UNL d   1     -39.592  15.709  21.938  0.00  0.00     0.181 C 
ENDBRANCH   9  17
TORSDOF 3
ENDMDL
MODEL 6
REMARK VINA RESULT:      -5.7      8.908     10.448
REMARK  3 active torsions:
REMARK  status: ('A' for Active; 'I' for Inactive)
REMARK    1  A    between atoms: C_6  and  C_1 
REMARK    2  A    between atoms: C_7  and  C_6 
REMARK    3  A    between atoms: O_17  and  C_15 
ROOT
ATOM      1  C   UNL d   1     -40.447  14.974  18.871  0.00  0.00     0.141 A 
ATOM      2  C   UNL d   1     -39.885  14.740  17.684  0.00  0.00     0.064 A 
ATOM      3  C   UNL d   1     -40.449  14.471  18.217  0.00  0.00     0.220 A 
ATOM      4  C   UNL d   1     -39.529  15.413  18.004  0.00  0.00     0.105 A 
ATOM      5  O   UNL d   1     -39.876  15.563  18.744  0.00  0.00    -0.304 OA
ATOM      6  C   UNL d   1     -38.940  15.802  17.588  0.00  0.00     0.049 A 
ATOM      7  C   UNL d   1     -39.648  14.458  16.945  0.00  0.00     0.007 A 
ATOM      8  O   UNL d   1     -40.939  13.808  18.121  0.00  0.00    -0.284 OA
ATOM      9  C   UNL d   1     -38.703  15.521  16.850  0.00  0.00     0.096 A 
ATOM     10  C   UNL d   1     -39.057  14.851  16.531  0.00  0.00     0.024 A 
ENDROOT
BRANCH   1  11
ATOM     11  C   UNL d   1     -40.927  14.910  19.540  0.00  0.00     0.053 C 
BRANCH  11  12
ATOM     12  C   UNL d   1     -40.661  15.179  20.278  0.00  0.00     0.102 A 
ATOM     13  O   UNL d   1     -40.083  14.830  20.749  0.00  0.00    -0.305 OA
ATOM     14  C   UNL d   1     -39.997  15.284  21.432  0.00  0.00     0.123 A 
ATOM     15  C   UNL d   1     -40.524  15.922  21.390  0.00  0.00     0.029 A 
ATOM     16  C   UNL d   1     -40.938  15.860  20.675  0.00  0.00     0.027 A 
ENDBRANCH  11  12
ENDBRANCH   1  11
BRANCH   9  17
ATOM     17  O   UNL d   1     -38.110  15.913  16.432  0.00  0.00    -0.328 OA
ATOM     18  C   UNL d   1     -38.120  15.921  15.609  0.00  0.00     0.181 C 
ENDBRANCH   9  17
TORSDOF 3
ENDMDL
