MODEL 1
REMARK VINA RESULT:      -7.5      0.000      0.000
REMARK  9 active torsions:
REMARK  status: ('A' for Active; 'I' for Inactive)
REMARK    1  A    between atoms: C_2  and  N_1 
REMARK    2  A    between atoms: C_6  and  C_2 
REMARK    3  A    between atoms: C_8  and  C_2 
REMARK    4  A    between atoms: C_10  and  N_3 
REMARK       I    between atoms: C_4  and  N_7 
REMARK    5  A    between atoms: C_5  and  C_4 
REMARK       I    between atoms: N_9  and  C_5 
REMARK    6  A    between atoms: N_7  and  C_8 
REMARK    7  A    between atoms: C_24  and  N_9 
REMARK    8  A    between atoms: C_26  and  C_24 
REMARK    9  A    between atoms: O_29  and  C_25 
ROOT
ATOM      1  C   UNL d   1      52.576  33.790  53.356  0.00  0.00     0.106 C 
ENDROOT
BRANCH   1   2
ATOM      2  N   UNL d   1      51.838  33.963  53.010  0.00  0.00    -0.298 N 
ATOM      3  C   UNL d   1      51.146  33.779  53.405  0.00  0.00     0.100 A 
ATOM      4  C   UNL d   1      50.409  33.952  53.059  0.00  0.00     0.100 A 
ATOM      5  N   UNL d   1      50.380  34.309  52.316  0.00  0.00    -0.301 N 
ATOM      6  C   UNL d   1      51.090  34.492  51.924  0.00  0.00     0.100 A 
ATOM      7  C   UNL d   1      51.810  34.320  52.267  0.00  0.00     0.100 A 
BRANCH   5   8
ATOM      8  C   UNL d   1      49.670  34.481  51.973  0.00  0.00     0.064 A 
ATOM      9  C   UNL d   1      49.070  34.849  52.414  0.00  0.00     0.020 A 
ATOM     10  C   UNL d   1      48.343  35.028  52.071  0.00  0.00     0.026 A 
ATOM     11  C   UNL d   1      48.206  34.838  51.280  0.00  0.00     0.094 A 
ATOM     12  C   UNL d   1      48.805  34.469  50.834  0.00  0.00     0.026 A 
ATOM     13  C   UNL d   1      49.533  34.292  51.181  0.00  0.00     0.020 A 
BRANCH  11  14
ATOM     14  O   UNL d   1      47.474  35.017  50.933  0.00  0.00    -0.328 OA
ATOM     15  C   UNL d   1      46.969  35.564  51.290  0.00  0.00     0.181 C 
ENDBRANCH  11  14
ENDBRANCH   5   8
ENDBRANCH   1   2
BRANCH   1  16
ATOM     16  C   UNL d   1      52.821  34.226  54.030  0.00  0.00     0.118 A 
ATOM     17  O   UNL d   1      52.738  34.089  54.842  0.00  0.00    -0.304 OA
ATOM     18  C   UNL d   1      53.100  34.724  55.236  0.00  0.00     0.123 A 
ATOM     19  C   UNL d   1      53.399  35.240  54.680  0.00  0.00     0.029 A 
ATOM     20  C   UNL d   1      53.227  34.933  53.929  0.00  0.00     0.028 A 
ENDBRANCH   1  16
BRANCH   1  21
ATOM     21  C   UNL d   1      53.065  33.203  53.052  0.00  0.00     0.122 C 
BRANCH  21  22
ATOM     22  N   UNL d   1      52.815  32.403  53.074  0.00  0.00    -0.201 NA
ATOM     23  C   UNL d   1      53.357  31.795  52.957  0.00  0.00     0.337 C 
ATOM     24  O   UNL d   1      54.142  31.965  52.817  0.00  0.00    -0.260 OA
BRANCH  23  25
ATOM     25  C   UNL d   1      53.096  31.018  52.982  0.00  0.00     0.337 C 
ATOM     26  N   UNL d   1      53.311  30.538  53.619  0.00  0.00    -0.200 NA
ATOM     27  O   UNL d   1      52.627  30.712  52.386  0.00  0.00    -0.260 OA
BRANCH  26  28
ATOM     28  C   UNL d   1      53.053  29.755  53.652  0.00  0.00     0.127 C 
BRANCH  28  29
ATOM     29  C   UNL d   1      53.176  29.310  54.335  0.00  0.00     0.119 A 
ATOM     30  O   UNL d   1      52.931  29.416  55.115  0.00  0.00    -0.304 OA
ATOM     31  C   UNL d   1      53.227  28.782  55.558  0.00  0.00     0.123 A 
ATOM     32  C   UNL d   1      53.648  28.293  55.057  0.00  0.00     0.029 A 
ATOM     33  C   UNL d   1      53.620  28.615  54.299  0.00  0.00     0.028 A 
ENDBRANCH  28  29
ENDBRANCH  26  28
ENDBRANCH  23  25
ENDBRANCH  21  22
ENDBRANCH   1  21
TORSDOF 9
ENDMDL
MODEL 2
REMARK VINA RESULT:      -6.5      1.327      5.865
REMARK  9 active torsions:
REMARK  status: ('A' for Active; 'I' for Inactive)
REMARK    1  A    between atoms: C_2  and  N_1 
REMARK    2  A    between atoms: C_6  and  C_2 
REMARK    3  A    between atoms: C_8  and  C_2 
REMARK    4  A    between atoms: C_10  and  N_3 
REMARK       I    between atoms: C_4  and  N_7 
REMARK    5  A    between atoms: C_5  and  C_4 
REMARK       I    between atoms: N_9  and  C_5 
REMARK    6  A    between atoms: N_7  and  C_8 
REMARK    7  A    between atoms: C_24  and  N_9 
REMARK    8  A    between atoms: C_26  and  C_24 
REMARK    9  A    between atoms: O_29  and  C_25 
ROOT
ATOM      1  C   UNL d   1      52.212  34.071  53.050  0.00  0.00     0.106 C 
ENDROOT
BRANCH   1   2
ATOM      2  N   UNL d   1      52.385  33.269  53.194  0.00  0.00    -0.298 N 
ATOM      3  C   UNL d   1      53.080  32.943  52.911  0.00  0.00     0.100 A 
ATOM      4  C   UNL d   1      53.254  32.142  53.055  0.00  0.00     0.100 A 
ATOM      5  N   UNL d   1      52.722  31.679  53.484  0.00  0.00    -0.301 N 
ATOM      6  C   UNL d   1      52.019  32.022  53.766  0.00  0.00     0.100 A 
ATOM      7  C   UNL d   1      51.853  32.807  53.623  0.00  0.00     0.100 A 
BRANCH   5   8
ATOM      8  C   UNL d   1      52.882  30.901  53.628  0.00  0.00     0.064 A 
ATOM      9  C   UNL d   1      53.239  30.673  54.343  0.00  0.00     0.020 A 
ATOM     10  C   UNL d   1      53.406  29.882  54.498  0.00  0.00     0.026 A 
ATOM     11  C   UNL d   1      53.216  29.306  53.938  0.00  0.00     0.094 A 
ATOM     12  C   UNL d   1      52.858  29.531  53.220  0.00  0.00     0.026 A 
ATOM     13  C   UNL d   1      52.692  30.326  53.068  0.00  0.00     0.020 A 
BRANCH  11  14
ATOM     14  O   UNL d   1      53.383  28.509  54.093  0.00  0.00    -0.328 OA
ATOM     15  C   UNL d   1      53.571  28.266  54.859  0.00  0.00     0.181 C 
ENDBRANCH  11  14
ENDBRANCH   5   8
ENDBRANCH   1   2
BRANCH   1  16
ATOM     16  C   UNL d   1      52.506  34.653  53.578  0.00  0.00     0.118 A 
ATOM     17  O   UNL d   1      52.233  34.930  54.309  0.00  0.00    -0.304 OA
ATOM     18  C   UNL d   1      52.766  35.514  54.564  0.00  0.00     0.123 A 
ATOM     19  C   UNL d   1      53.353  35.594  54.004  0.00  0.00     0.029 A 
ATOM     20  C   UNL d   1      53.194  35.060  53.389  0.00  0.00     0.028 A 
ENDBRANCH   1  16
BRANCH   1  21
ATOM     21  C   UNL d   1      51.759  34.302  52.403  0.00  0.00     0.122 C 
BRANCH  21  22
ATOM     22  N   UNL d   1      50.925  34.355  52.479  0.00  0.00    -0.201 NA
ATOM     23  C   UNL d   1      50.455  34.498  51.819  0.00  0.00     0.337 C 
ATOM     24  O   UNL d   1      50.797  34.589  51.084  0.00  0.00    -0.260 OA
BRANCH  23  25
ATOM     25  C   UNL d   1      49.642  34.547  51.911  0.00  0.00     0.337 C 
ATOM     26  N   UNL d   1      49.321  35.162  52.358  0.00  0.00    -0.200 NA
ATOM     27  O   UNL d   1      49.146  33.995  51.566  0.00  0.00    -0.260 OA
BRANCH  26  28
ATOM     28  C   UNL d   1      48.504  35.219  52.456  0.00  0.00     0.127 C 
BRANCH  28  29
ATOM     29  C   UNL d   1      48.188  35.790  52.961  0.00  0.00     0.119 A 
ATOM     30  O   UNL d   1      48.512  36.204  53.596  0.00  0.00    -0.304 OA
ATOM     31  C   UNL d   1      47.923  36.707  53.890  0.00  0.00     0.123 A 
ATOM     32  C   UNL d   1      47.248  36.603  53.443  0.00  0.00     0.029 A 
ATOM     33  C   UNL d   1      47.406  36.036  52.866  0.00  0.00     0.028 A 
ENDBRANCH  28  29
ENDBRANCH  26  28
ENDBRANCH  23  25
ENDBRANCH  21  22
ENDBRANCH   1  21
TORSDOF 9
ENDMDL
MODEL 3
REMARK VINA RESULT:      -5.1      2.053      6.774
REMARK  9 active torsions:
REMARK  status: ('A' for Active; 'I' for Inactive)
REMARK    1  A    between atoms: C_2  and  N_1 
REMARK    2  A    between atoms: C_6  and  C_2 
REMARK    3  A    between atoms: C_8  and  C_2 
REMARK    4  A    between atoms: C_10  and  N_3 
REMARK       I    between atoms: C_4  and  N_7 
REMARK    5  A    between atoms: C_5  and  C_4 
REMARK       I    between atoms: N_9  and  C_5 
REMARK    6  A    between atoms: N_7  and  C_8 
REMARK    7  A    between atoms: C_24  and  N_9 
REMARK    8  A    between atoms: C_26  and  C_24 
REMARK    9  A    between atoms: O_29  and  C_25 
ROOT
ATOM      1  C   UNL d   1      49.423  34.854  52.555  0.00  0.00     0.106 C 
ENDROOT
BRANCH   1   2
ATOM      2  N   UNL d   1      50.104  34.401  52.716  0.00  0.00    -0.298 N 
ATOM      3  C   UNL d   1      50.820  34.602  52.376  0.00  0.00     0.100 A 
ATOM      4  C   UNL d   1      51.500  34.150  52.537  0.00  0.00     0.100 A 
ATOM      5  N   UNL d   1      51.447  33.498  53.040  0.00  0.00    -0.301 N 
ATOM      6  C   UNL d   1      50.714  33.303  53.379  0.00  0.00     0.100 A 
ATOM      7  C   UNL d   1      50.051  33.749  53.219  0.00  0.00     0.100 A 
BRANCH   5   8
ATOM      8  C   UNL d   1      52.102  33.053  53.202  0.00  0.00     0.064 A 
ATOM      9  C   UNL d   1      52.131  32.254  52.976  0.00  0.00     0.020 A 
ATOM     10  C   UNL d   1      52.794  31.794  53.137  0.00  0.00     0.026 A 
ATOM     11  C   UNL d   1      53.439  32.128  53.528  0.00  0.00     0.094 A 
ATOM     12  C   UNL d   1      53.414  32.929  53.756  0.00  0.00     0.026 A 
ATOM     13  C   UNL d   1      52.747  33.388  53.593  0.00  0.00     0.020 A 
BRANCH  11  14
ATOM     14  O   UNL d   1      54.108  31.666  53.691  0.00  0.00    -0.328 OA
ATOM     15  C   UNL d   1      54.135  30.876  53.452  0.00  0.00     0.181 C 
ENDBRANCH  11  14
ENDBRANCH   5   8
ENDBRANCH   1   2
BRANCH   1  16
ATOM     16  C   UNL d   1      48.957  34.663  51.884  0.00  0.00     0.118 A 
ATOM     17  O   UNL d   1      48.481  34.009  51.704  0.00  0.00    -0.304 OA
ATOM     18  C   UNL d   1      48.158  34.141  50.951  0.00  0.00     0.123 A 
ATOM     19  C   UNL d   1      48.428  34.858  50.673  0.00  0.00     0.029 A 
ATOM     20  C   UNL d   1      48.924  35.185  51.251  0.00  0.00     0.028 A 
ENDBRANCH   1  16
BRANCH   1  21
ATOM     21  C   UNL d   1      49.201  35.481  53.039  0.00  0.00     0.122 C 
BRANCH  21  22
ATOM     22  N   UNL d   1      48.448  35.472  53.408  0.00  0.00    -0.201 NA
ATOM     23  C   UNL d   1      48.222  36.086  53.907  0.00  0.00     0.337 C 
ATOM     24  O   UNL d   1      48.729  36.709  54.047  0.00  0.00    -0.260 OA
BRANCH  23  25
ATOM     25  C   UNL d   1      47.483  36.062  54.261  0.00  0.00     0.337 C 
ATOM     26  N   UNL d   1      46.809  36.002  53.787  0.00  0.00    -0.200 NA
ATOM     27  O   UNL d   1      47.404  36.095  55.074  0.00  0.00    -0.260 OA
BRANCH  26  28
ATOM     28  C   UNL d   1      46.061  35.977  54.134  0.00  0.00     0.127 C 
BRANCH  28  29
ATOM     29  C   UNL d   1      45.403  35.773  53.680  0.00  0.00     0.119 A 
ATOM     30  O   UNL d   1      45.096  35.042  53.451  0.00  0.00    -0.304 OA
ATOM     31  C   UNL d   1      44.420  35.189  52.995  0.00  0.00     0.123 A 
ATOM     32  C   UNL d   1      44.314  35.998  52.945  0.00  0.00     0.029 A 
ATOM     33  C   UNL d   1      44.920  36.363  53.367  0.00  0.00     0.028 A 
ENDBRANCH  28  29
ENDBRANCH  26  28
ENDBRANCH  23  25
ENDBRANCH  21  22
ENDBRANCH   1  21
TORSDOF 9
ENDMDL
