MODEL 1
REMARK VINA RESULT:      18.8      0.000      0.000
REMARK  3 active torsions:
REMARK  status: ('A' for Active; 'I' for Inactive)
REMARK    1  A    between atoms: C_14  and  C_4 
REMARK    2  A    between atoms: C_5  and  S_10 
REMARK    3  A    between atoms: S_10  and  C_14 
ROOT
ATOM      1  N   UNL d   1     -54.924-102.875 -37.601  0.00  0.00    -0.226 NA
ATOM      2  N   UNL d   1     -54.772-101.542 -37.361  0.00  0.00    -0.288 N 
ATOM      3  C   UNL d   1     -54.899-102.275 -37.004  0.00  0.00     0.148 A 
ATOM      4  C   UNL d   1     -54.808-102.468 -38.313  0.00  0.00     0.107 A 
ATOM      5  C   UNL d   1     -54.715-101.671 -38.188  0.00  0.00     0.101 A 
ATOM      6  C   UNL d   1     -54.725-100.864 -36.893  0.00  0.00     0.082 A 
ATOM      7  C   UNL d   1     -54.982-102.341 -36.173  0.00  0.00     0.037 A 
ATOM      8  C   UNL d   1     -54.808-100.931 -36.062  0.00  0.00     0.019 A 
ATOM      9  C   UNL d   1     -54.931-101.641 -35.716  0.00  0.00     0.005 A 
ENDROOT
BRANCH   4  10
ATOM     10  C   UNL d   1     -54.790-102.830 -39.049  0.00  0.00     0.058 C 
BRANCH  10  11
ATOM     11  S   UNL d   1     -55.347-102.652 -39.608  0.00  0.00    -0.059 SA
BRANCH  11  12
ATOM     12  C   UNL d   1     -55.117-102.314 -40.359  0.00  0.00     0.141 A 
ATOM     13  N   UNL d   1     -55.052-101.531 -40.614  0.00  0.00    -0.230 NA
ATOM     14  C   UNL d   1     -54.802-101.590 -41.401  0.00  0.00     0.107 A 
ATOM     15  C   UNL d   1     -54.719-102.348 -41.615  0.00  0.00     0.058 A 
ATOM     16  S   UNL d   1     -54.910-102.800 -40.981  0.00  0.00    -0.059 SA
ENDBRANCH  11  12
ENDBRANCH  10  11
ENDBRANCH   4  10
TORSDOF 3
ENDMDL
