MODEL 1
REMARK VINA RESULT:      17.0      0.000      0.000
REMARK  5 active torsions:
REMARK  status: ('A' for Active; 'I' for Inactive)
REMARK    1  A    between atoms: N_2  and  S_1 
REMARK    2  A    between atoms: C_8  and  S_1 
REMARK    3  A    between atoms: S_7  and  C_3 
REMARK    4  A    between atoms: C_11  and  S_7 
REMARK    5  A    between atoms: C_12  and  C_11 
ROOT
ATOM      1  N   UNL d   1      45.113 -14.332  44.621  0.00  0.00    -0.208 N 
ATOM      2  C   UNL d   1      44.962 -15.151  44.586  0.00  0.00     0.189 A 
ATOM      3  N   UNL d   1      44.168 -15.277  44.793  0.00  0.00    -0.219 NA
ATOM      4  C   UNL d   1      44.406 -13.951  44.851  0.00  0.00     0.114 A 
ATOM      5  C   UNL d   1      43.830 -14.536  44.955  0.00  0.00     0.121 A 
ENDROOT
BRANCH   1   6
ATOM      6  S   UNL d   1      45.839 -13.963  44.455  0.00  0.00     0.273 S 
ATOM      7  O   UNL d   1      46.189 -14.511  44.955  0.00  0.00    -0.200 OA
ATOM      8  O   UNL d   1      46.646 -13.776  44.449  0.00  0.00    -0.200 OA
BRANCH   6   9
ATOM      9  C   UNL d   1      45.503 -13.402  43.948  0.00  0.00     0.104 A 
ATOM     10  C   UNL d   1      45.192 -12.709  44.261  0.00  0.00     0.013 A 
ATOM     11  C   UNL d   1      44.858 -12.151  43.755  0.00  0.00     0.001 A 
ATOM     12  C   UNL d   1      44.836 -12.291  42.942  0.00  0.00     0.000 A 
ATOM     13  C   UNL d   1      45.148 -12.985  42.634  0.00  0.00     0.001 A 
ATOM     14  C   UNL d   1      45.484 -13.545  43.146  0.00  0.00     0.013 A 
ENDBRANCH   6   9
ENDBRANCH   1   6
BRANCH   2  15
ATOM     15  S   UNL d   1      45.514 -15.740  44.379  0.00  0.00    -0.049 SA
BRANCH  15  16
ATOM     16  C   UNL d   1      45.377 -16.526  44.596  0.00  0.00     0.038 C 
BRANCH  16  17
ATOM     17  C   UNL d   1      45.777 -17.134  44.204  0.00  0.00     0.007 A 
ATOM     18  C   UNL d   1      45.825 -17.142  43.381  0.00  0.00     0.001 A 
ATOM     19  C   UNL d   1      46.233 -17.763  43.000  0.00  0.00     0.000 A 
ATOM     20  C   UNL d   1      46.585 -18.365  43.446  0.00  0.00     0.000 A 
ATOM     21  C   UNL d   1      46.539 -18.360  44.266  0.00  0.00     0.000 A 
ATOM     22  C   UNL d   1      46.139 -17.751  44.648  0.00  0.00     0.001 A 
ENDBRANCH  16  17
ENDBRANCH  15  16
ENDBRANCH   2  15
TORSDOF 5
ENDMDL
