MODEL 1
REMARK VINA RESULT:      57.0      0.000      0.000
REMARK  9 active torsions:
REMARK  status: ('A' for Active; 'I' for Inactive)
REMARK    1  A    between atoms: S_3  and  C_1 
REMARK    2  A    between atoms: C_7  and  S_3 
REMARK    3  A    between atoms: N_8  and  C_4 
REMARK    4  A    between atoms: C_19  and  N_8 
REMARK    5  A    between atoms: C_20  and  N_8 
REMARK    6  A    between atoms: O_17  and  C_22 
REMARK    7  A    between atoms: O_18  and  C_21 
REMARK    8  A    between atoms: C_21  and  C_19 
REMARK    9  A    between atoms: C_22  and  C_20 
ROOT
ATOM      1  C   UNL d   1     -55.583-102.295 -41.386  0.00  0.00     0.187 A 
ATOM      2  N   UNL d   1     -55.135-102.032 -42.012  0.00  0.00    -0.209 NA
ATOM      3  C   UNL d   1     -55.595-102.117 -42.696  0.00  0.00     0.181 A 
ATOM      4  S   UNL d   1     -56.319-102.431 -42.476  0.00  0.00    -0.036 SA
ATOM      5  C   UNL d   1     -56.307-102.539 -41.667  0.00  0.00     0.118 A 
ATOM      6 CL   UNL d   1     -56.752-102.803 -41.024  0.00  0.00    -0.073 Cl
ENDROOT
BRANCH   1   7
ATOM      7  S   UNL d   1     -55.341-102.310 -40.600  0.00  0.00     0.228 S 
ATOM      8  O   UNL d   1     -55.720-101.844 -40.045  0.00  0.00    -0.216 OA
ATOM      9  O   UNL d   1     -54.715-102.795 -40.372  0.00  0.00    -0.216 OA
BRANCH   7  10
ATOM     10  C   UNL d   1     -55.189-102.240 -39.786  0.00  0.00     0.089 A 
ATOM     11  C   UNL d   1     -55.360-102.880 -39.278  0.00  0.00     0.011 A 
ATOM     12  C   UNL d   1     -55.208-102.808 -38.468  0.00  0.00     0.001 A 
ATOM     13  C   UNL d   1     -54.888-102.108 -38.164  0.00  0.00     0.000 A 
ATOM     14  C   UNL d   1     -54.717-101.467 -38.674  0.00  0.00     0.001 A 
ATOM     15  C   UNL d   1     -54.736-102.034 -37.362  0.00  0.00     0.000 C 
ATOM     16  C   UNL d   1     -54.869-101.540 -39.481  0.00  0.00     0.011 A 
ENDBRANCH   7  10
ENDBRANCH   1   7
BRANCH   3  17
ATOM     17  N   UNL d   1     -55.155-101.856 -43.333  0.00  0.00    -0.280 N 
BRANCH  17  18
ATOM     18  C   UNL d   1     -54.711-101.165 -43.271  0.00  0.00     0.108 C 
BRANCH  18  19
ATOM     19  C   UNL d   1     -55.063-100.434 -43.419  0.00  0.00     0.135 C 
BRANCH  19  20
ATOM     20  O   UNL d   1     -55.127-100.154 -44.191  0.00  0.00    -0.325 OA
ATOM     21  C   UNL d   1     -54.885 -99.387 -44.375  0.00  0.00     0.182 C 
ENDBRANCH  19  20
ENDBRANCH  18  19
ENDBRANCH  17  18
BRANCH  17  22
ATOM     22  C   UNL d   1     -54.899-101.952 -44.109  0.00  0.00     0.108 C 
BRANCH  22  23
ATOM     23  C   UNL d   1     -54.750-102.699 -44.401  0.00  0.00     0.135 C 
BRANCH  23  24
ATOM     24  O   UNL d   1     -54.881-102.865 -45.198  0.00  0.00    -0.325 OA
ATOM     25  C   UNL d   1     -55.581-102.639 -45.557  0.00  0.00     0.182 C 
ENDBRANCH  23  24
ENDBRANCH  22  23
ENDBRANCH  17  22
ENDBRANCH   3  17
TORSDOF 9
ENDMDL
