MODEL 1
REMARK VINA RESULT:      -2.5      0.000      0.000
REMARK  2 active torsions:
REMARK  status: ('A' for Active; 'I' for Inactive)
REMARK    1  A    between atoms: C_9  and  N_2 
REMARK    2  A    between atoms: C_7  and  C_4 
ROOT
ATOM      1  C   UNL d   1      57.994  -0.089  30.902  0.00  0.00     0.136 A 
ATOM      2  N   UNL d   1      58.334  -0.565  30.319  0.00  0.00    -0.281 N 
ATOM      3  C   UNL d   1      57.378  -0.391  31.367  0.00  0.00     0.152 A 
ATOM      4  C   UNL d   1      58.058  -1.343  30.203  0.00  0.00     0.175 A 
ATOM      5  N   UNL d   1      57.443  -1.637  30.671  0.00  0.00    -0.188 NA
ATOM      6  C   UNL d   1      57.105  -1.160  31.252  0.00  0.00     0.292 A 
ATOM      7  C   UNL d   1      57.040   0.085  31.948  0.00  0.00     0.108 C 
ATOM      8  N   UNL d   1      56.696   0.562  32.534  0.00  0.00    -0.191 NA
ATOM      9  S   UNL d   1      58.262   0.682  31.024  0.00  0.00    -0.058 SA
ATOM     10  O   UNL d   1      56.487  -1.454  31.723  0.00  0.00    -0.264 OA
ENDROOT
BRANCH   2  11
ATOM     11  C   UNL d   1      58.944  -0.271  29.856  0.00  0.00     0.066 A 
ATOM     12  C   UNL d   1      58.769   0.111  29.146  0.00  0.00     0.020 A 
ATOM     13  C   UNL d   1      59.383   0.406  28.684  0.00  0.00     0.031 A 
ATOM     14  C   UNL d   1      60.170   0.322  28.927  0.00  0.00     0.140 A 
ATOM     15  C   UNL d   1      60.342  -0.063  29.641  0.00  0.00     0.031 A 
ATOM     16  F   UNL d   1      60.782   0.621  28.457  0.00  0.00    -0.204 F 
ATOM     17  C   UNL d   1      59.728  -0.358  30.105  0.00  0.00     0.020 A 
ENDBRANCH   2  11
BRANCH   4  18
ATOM     18  C   UNL d   1      58.396  -1.819  29.622  0.00  0.00     0.135 A 
ATOM     19  O   UNL d   1      58.178  -1.842  28.831  0.00  0.00    -0.302 OA
ATOM     20  C   UNL d   1      58.659  -2.391  28.456  0.00  0.00     0.123 A 
ATOM     21  C   UNL d   1      59.174  -2.706  29.015  0.00  0.00     0.029 A 
ATOM     22  C   UNL d   1      59.020  -2.360  29.733  0.00  0.00     0.030 A 
ENDBRANCH   4  18
TORSDOF 2
ENDMDL
MODEL 2
REMARK VINA RESULT:       0.1      2.067      3.340
REMARK  2 active torsions:
REMARK  status: ('A' for Active; 'I' for Inactive)
REMARK    1  A    between atoms: C_9  and  N_2 
REMARK    2  A    between atoms: C_7  and  C_4 
ROOT
ATOM      1  C   UNL d   1      60.089  -2.984  28.885  0.00  0.00     0.136 A 
ATOM      2  N   UNL d   1      59.651  -2.311  29.084  0.00  0.00    -0.281 N 
ATOM      3  C   UNL d   1      59.712  -3.720  28.852  0.00  0.00     0.152 A 
ATOM      4  C   UNL d   1      58.838  -2.378  29.249  0.00  0.00     0.175 A 
ATOM      5  N   UNL d   1      58.469  -3.117  29.214  0.00  0.00    -0.188 NA
ATOM      6  C   UNL d   1      58.907  -3.787  29.016  0.00  0.00     0.292 A 
ATOM      7  C   UNL d   1      60.150  -4.390  28.654  0.00  0.00     0.108 C 
ATOM      8  N   UNL d   1      60.587  -5.066  28.455  0.00  0.00    -0.191 NA
ATOM      9  S   UNL d   1      60.896  -2.926  28.720  0.00  0.00    -0.058 SA
ATOM     10  O   UNL d   1      58.538  -4.530  28.980  0.00  0.00    -0.264 OA
ENDROOT
BRANCH   2  11
ATOM     11  C   UNL d   1      60.021  -1.579  29.117  0.00  0.00     0.066 A 
ATOM     12  C   UNL d   1      59.947  -1.056  28.484  0.00  0.00     0.020 A 
ATOM     13  C   UNL d   1      60.319  -0.322  28.520  0.00  0.00     0.031 A 
ATOM     14  C   UNL d   1      60.762  -0.110  29.185  0.00  0.00     0.140 A 
ATOM     15  C   UNL d   1      60.834  -0.638  29.820  0.00  0.00     0.031 A 
ATOM     16  F   UNL d   1      61.133   0.630  29.215  0.00  0.00    -0.204 F 
ATOM     17  C   UNL d   1      60.463  -1.372  29.785  0.00  0.00     0.020 A 
ENDBRANCH   2  11
BRANCH   4  18
ATOM     18  C   UNL d   1      58.400  -1.709  29.447  0.00  0.00     0.135 A 
ATOM     19  O   UNL d   1      58.092  -1.161  28.919  0.00  0.00    -0.302 OA
ATOM     20  C   UNL d   1      57.698  -0.589  29.355  0.00  0.00     0.123 A 
ATOM     21  C   UNL d   1      57.763  -0.783  30.152  0.00  0.00     0.029 A 
ATOM     22  C   UNL d   1      58.192  -1.469  30.218  0.00  0.00     0.030 A 
ENDBRANCH   4  18
TORSDOF 2
ENDMDL
