MODEL 1
REMARK VINA RESULT:      -7.5      0.000      0.000
REMARK  4 active torsions:
REMARK  status: ('A' for Active; 'I' for Inactive)
REMARK    1  A    between atoms: C_2  and  S_1 
REMARK    2  A    between atoms: C_5  and  S_1 
REMARK    3  A    between atoms: C_7  and  C_5 
REMARK       I    between atoms: N_11  and  C_7 
REMARK    4  A    between atoms: C_14  and  N_11 
ROOT
ATOM      1  S   UNL d   1     -47.011  13.818  22.710  0.00  0.00     0.217 S 
ATOM      2  O   UNL d   1     -47.352  13.370  22.099  0.00  0.00    -0.217 OA
ATOM      3  O   UNL d   1     -46.668  14.266  23.323  0.00  0.00    -0.217 OA
ENDROOT
BRANCH   1   4
ATOM      4  C   UNL d   1     -46.552  13.168  22.934  0.00  0.00     0.109 A 
ATOM      5  C   UNL d   1     -46.752  12.607  23.505  0.00  0.00     0.110 A 
ATOM      6  N   UNL d   1     -46.141  12.060  23.551  0.00  0.00    -0.243 NA
ATOM      7  C   UNL d   1     -45.560  12.283  23.005  0.00  0.00     0.082 A 
ATOM      8  C   UNL d   1     -45.820  12.965  22.629  0.00  0.00     0.030 A 
ATOM      9  C   UNL d   1     -44.831  11.948  22.808  0.00  0.00     0.019 A 
ATOM     10  C   UNL d   1     -45.351  13.322  22.049  0.00  0.00     0.002 A 
ATOM     11  C   UNL d   1     -44.623  12.988  21.852  0.00  0.00     0.000 A 
ATOM     12  C   UNL d   1     -44.367  12.307  22.229  0.00  0.00     0.002 A 
ENDBRANCH   1   4
BRANCH   1  13
ATOM     13  C   UNL d   1     -47.473  14.481  22.488  0.00  0.00     0.161 C 
BRANCH  13  14
ATOM     14  C   UNL d   1     -48.244  14.554  22.782  0.00  0.00     0.291 C 
ATOM     15  N   UNL d   1     -48.740  15.134  22.467  0.00  0.00    -0.207 NA
ATOM     16  O   UNL d   1     -48.514  14.061  23.377  0.00  0.00    -0.264 OA
BRANCH  15  17
ATOM     17  C   UNL d   1     -49.511  15.211  22.758  0.00  0.00     0.085 A 
ATOM     18  C   UNL d   1     -49.669  15.691  23.410  0.00  0.00     0.019 A 
ATOM     19  C   UNL d   1     -50.441  15.765  23.697  0.00  0.00     0.002 A 
ATOM     20  C   UNL d   1     -51.064  15.355  23.332  0.00  0.00     0.000 A 
ATOM     21  C   UNL d   1     -50.902  14.875  22.679  0.00  0.00     0.002 A 
ATOM     22  C   UNL d   1     -50.129  14.804  22.396  0.00  0.00     0.019 A 
ENDBRANCH  15  17
ENDBRANCH  13  14
ENDBRANCH   1  13
TORSDOF 4
ENDMDL
MODEL 2
REMARK VINA RESULT:      -6.2      1.712      4.657
REMARK  4 active torsions:
REMARK  status: ('A' for Active; 'I' for Inactive)
REMARK    1  A    between atoms: C_2  and  S_1 
REMARK    2  A    between atoms: C_5  and  S_1 
REMARK    3  A    between atoms: C_7  and  C_5 
REMARK       I    between atoms: N_11  and  C_7 
REMARK    4  A    between atoms: C_14  and  N_11 
ROOT
ATOM      1  S   UNL d   1     -48.075  13.017  22.929  0.00  0.00     0.217 S 
ATOM      2  O   UNL d   1     -48.308  13.249  22.167  0.00  0.00    -0.217 OA
ATOM      3  O   UNL d   1     -47.843  12.783  23.695  0.00  0.00    -0.217 OA
ENDROOT
BRANCH   1   4
ATOM      4  C   UNL d   1     -48.731  12.515  22.980  0.00  0.00     0.109 A 
ATOM      5  C   UNL d   1     -48.743  11.713  22.791  0.00  0.00     0.110 A 
ATOM      6  N   UNL d   1     -49.503  11.431  22.921  0.00  0.00    -0.243 NA
ATOM      7  C   UNL d   1     -49.964  12.062  23.192  0.00  0.00     0.082 A 
ATOM      8  C   UNL d   1     -49.483  12.727  23.226  0.00  0.00     0.030 A 
ATOM      9  C   UNL d   1     -50.759  12.111  23.411  0.00  0.00     0.019 A 
ATOM     10  C   UNL d   1     -49.792  13.449  23.480  0.00  0.00     0.002 A 
ATOM     11  C   UNL d   1     -50.586  13.499  23.698  0.00  0.00     0.000 A 
ATOM     12  C   UNL d   1     -51.064  12.833  23.663  0.00  0.00     0.002 A 
ENDBRANCH   1   4
BRANCH   1  13
ATOM     13  C   UNL d   1     -47.409  13.523  22.885  0.00  0.00     0.161 C 
BRANCH  13  14
ATOM     14  C   UNL d   1     -46.719  13.253  22.514  0.00  0.00     0.291 C 
ATOM     15  N   UNL d   1     -45.999  13.313  22.913  0.00  0.00    -0.207 NA
ATOM     16  O   UNL d   1     -46.746  12.932  21.762  0.00  0.00    -0.264 OA
BRANCH  15  17
ATOM     17  C   UNL d   1     -45.308  13.045  22.546  0.00  0.00     0.085 A 
ATOM     18  C   UNL d   1     -44.980  12.315  22.748  0.00  0.00     0.019 A 
ATOM     19  C   UNL d   1     -44.289  12.051  22.378  0.00  0.00     0.002 A 
ATOM     20  C   UNL d   1     -43.919  12.518  21.800  0.00  0.00     0.000 A 
ATOM     21  C   UNL d   1     -44.250  13.249  21.601  0.00  0.00     0.002 A 
ATOM     22  C   UNL d   1     -44.941  13.508  21.973  0.00  0.00     0.019 A 
ENDBRANCH  15  17
ENDBRANCH  13  14
ENDBRANCH   1  13
TORSDOF 4
ENDMDL
MODEL 3
REMARK VINA RESULT:      -6.2      0.920      4.778
REMARK  4 active torsions:
REMARK  status: ('A' for Active; 'I' for Inactive)
REMARK    1  A    between atoms: C_2  and  S_1 
REMARK    2  A    between atoms: C_5  and  S_1 
REMARK    3  A    between atoms: C_7  and  C_5 
REMARK       I    between atoms: N_11  and  C_7 
REMARK    4  A    between atoms: C_14  and  N_11 
ROOT
ATOM      1  S   UNL d   1     -48.456  13.809  22.927  0.00  0.00     0.217 S 
ATOM      2  O   UNL d   1     -48.122  14.471  22.551  0.00  0.00    -0.217 OA
ATOM      3  O   UNL d   1     -48.792  13.145  23.303  0.00  0.00    -0.217 OA
ENDROOT
BRANCH   1   4
ATOM      4  C   UNL d   1     -49.174  13.950  22.542  0.00  0.00     0.109 A 
ATOM      5  C   UNL d   1     -49.439  13.575  21.857  0.00  0.00     0.110 A 
ATOM      6  N   UNL d   1     -50.177  13.881  21.667  0.00  0.00    -0.243 NA
ATOM      7  C   UNL d   1     -50.371  14.448  22.238  0.00  0.00     0.082 A 
ATOM      8  C   UNL d   1     -49.749  14.486  22.773  0.00  0.00     0.030 A 
ATOM      9  C   UNL d   1     -51.033  14.931  22.332  0.00  0.00     0.019 A 
ATOM     10  C   UNL d   1     -49.784  15.009  23.412  0.00  0.00     0.002 A 
ATOM     11  C   UNL d   1     -50.445  15.492  23.507  0.00  0.00     0.000 A 
ATOM     12  C   UNL d   1     -51.064  15.452  22.970  0.00  0.00     0.002 A 
ENDBRANCH   1   4
BRANCH   1  13
ATOM     13  C   UNL d   1     -47.730  13.661  23.320  0.00  0.00     0.161 C 
BRANCH  13  14
ATOM     14  C   UNL d   1     -47.094  13.349  22.892  0.00  0.00     0.291 C 
ATOM     15  N   UNL d   1     -46.329  13.439  23.188  0.00  0.00    -0.207 NA
ATOM     16  O   UNL d   1     -47.217  12.956  22.184  0.00  0.00    -0.264 OA
BRANCH  15  17
ATOM     17  C   UNL d   1     -45.690  13.129  22.763  0.00  0.00     0.085 A 
ATOM     18  C   UNL d   1     -45.407  12.370  22.922  0.00  0.00     0.019 A 
ATOM     19  C   UNL d   1     -44.768  12.065  22.495  0.00  0.00     0.002 A 
ATOM     20  C   UNL d   1     -44.406  12.518  21.902  0.00  0.00     0.000 A 
ATOM     21  C   UNL d   1     -44.693  13.278  21.745  0.00  0.00     0.002 A 
ATOM     22  C   UNL d   1     -45.331  13.579  22.175  0.00  0.00     0.019 A 
ENDBRANCH  15  17
ENDBRANCH  13  14
ENDBRANCH   1  13
TORSDOF 4
ENDMDL
MODEL 4
REMARK VINA RESULT:      -5.9      1.195      4.786
REMARK  4 active torsions:
REMARK  status: ('A' for Active; 'I' for Inactive)
REMARK    1  A    between atoms: C_2  and  S_1 
REMARK    2  A    between atoms: C_5  and  S_1 
REMARK    3  A    between atoms: C_7  and  C_5 
REMARK       I    between atoms: N_11  and  C_7 
REMARK    4  A    between atoms: C_14  and  N_11 
ROOT
ATOM      1  S   UNL d   1     -47.222  13.283  22.653  0.00  0.00     0.217 S 
ATOM      2  O   UNL d   1     -47.050  13.659  23.373  0.00  0.00    -0.217 OA
ATOM      3  O   UNL d   1     -47.396  12.906  21.930  0.00  0.00    -0.217 OA
ENDROOT
BRANCH   1   4
ATOM      4  C   UNL d   1     -48.031  13.340  22.813  0.00  0.00     0.109 A 
ATOM      5  C   UNL d   1     -48.497  12.758  23.166  0.00  0.00     0.110 A 
ATOM      6  N   UNL d   1     -49.266  13.044  23.220  0.00  0.00    -0.243 NA
ATOM      7  C   UNL d   1     -49.276  13.806  22.898  0.00  0.00     0.082 A 
ATOM      8  C   UNL d   1     -48.512  13.982  22.650  0.00  0.00     0.030 A 
ATOM      9  C   UNL d   1     -49.883  14.357  22.803  0.00  0.00     0.019 A 
ATOM     10  C   UNL d   1     -48.349  14.713  22.302  0.00  0.00     0.002 A 
ATOM     11  C   UNL d   1     -48.956  15.264  22.206  0.00  0.00     0.000 A 
ATOM     12  C   UNL d   1     -49.716  15.085  22.456  0.00  0.00     0.002 A 
ENDBRANCH   1   4
BRANCH   1  13
ATOM     13  C   UNL d   1     -46.403  13.223  22.484  0.00  0.00     0.161 C 
BRANCH  13  14
ATOM     14  C   UNL d   1     -45.946  12.664  22.890  0.00  0.00     0.291 C 
ATOM     15  N   UNL d   1     -45.605  12.042  22.467  0.00  0.00    -0.207 NA
ATOM     16  O   UNL d   1     -45.832  12.723  23.698  0.00  0.00    -0.264 OA
BRANCH  15  17
ATOM     17  C   UNL d   1     -45.148  11.481  22.869  0.00  0.00     0.085 A 
ATOM     18  C   UNL d   1     -45.507  10.876  23.298  0.00  0.00     0.019 A 
ATOM     19  C   UNL d   1     -45.045  10.317  23.698  0.00  0.00     0.002 A 
ATOM     20  C   UNL d   1     -44.217  10.362  23.670  0.00  0.00     0.000 A 
ATOM     21  C   UNL d   1     -43.861  10.971  23.239  0.00  0.00     0.002 A 
ATOM     22  C   UNL d   1     -44.326  11.526  22.841  0.00  0.00     0.019 A 
ENDBRANCH  15  17
ENDBRANCH  13  14
ENDBRANCH   1  13
TORSDOF 4
ENDMDL
MODEL 5
REMARK VINA RESULT:      -5.7      8.044      8.730
REMARK  4 active torsions:
REMARK  status: ('A' for Active; 'I' for Inactive)
REMARK    1  A    between atoms: C_2  and  S_1 
REMARK    2  A    between atoms: C_5  and  S_1 
REMARK    3  A    between atoms: C_7  and  C_5 
REMARK       I    between atoms: N_11  and  C_7 
REMARK    4  A    between atoms: C_14  and  N_11 
ROOT
ATOM      1  S   UNL d   1     -40.066  14.707  20.536  0.00  0.00     0.217 S 
ATOM      2  O   UNL d   1     -39.333  14.535  20.186  0.00  0.00    -0.217 OA
ATOM      3  O   UNL d   1     -40.802  14.881  20.887  0.00  0.00    -0.217 OA
ENDROOT
BRANCH   1   4
ATOM      4  C   UNL d   1     -39.681  14.996  21.208  0.00  0.00     0.109 A 
ATOM      5  C   UNL d   1     -39.532  15.789  21.378  0.00  0.00     0.110 A 
ATOM      6  N   UNL d   1     -39.139  15.827  22.098  0.00  0.00    -0.243 NA
ATOM      7  C   UNL d   1     -39.044  15.053  22.376  0.00  0.00     0.082 A 
ATOM      8  C   UNL d   1     -39.380  14.547  21.823  0.00  0.00     0.030 A 
ATOM      9  C   UNL d   1     -38.695  14.751  23.060  0.00  0.00     0.019 A 
ATOM     10  C   UNL d   1     -39.370  13.730  21.949  0.00  0.00     0.002 A 
ATOM     11  C   UNL d   1     -39.021  13.428  22.633  0.00  0.00     0.000 A 
ATOM     12  C   UNL d   1     -38.687  13.937  23.183  0.00  0.00     0.002 A 
ENDBRANCH   1   4
BRANCH   1  13
ATOM     13  C   UNL d   1     -40.463  14.416  19.857  0.00  0.00     0.161 C 
BRANCH  13  14
ATOM     14  C   UNL d   1     -40.496  14.884  19.175  0.00  0.00     0.291 C 
ATOM     15  N   UNL d   1     -40.554  14.516  18.438  0.00  0.00    -0.207 NA
ATOM     16  O   UNL d   1     -40.471  15.701  19.225  0.00  0.00    -0.264 OA
BRANCH  15  17
ATOM     17  C   UNL d   1     -40.587  14.980  17.754  0.00  0.00     0.085 A 
ATOM     18  C   UNL d   1     -41.288  15.353  17.531  0.00  0.00     0.019 A 
ATOM     19  C   UNL d   1     -41.317  15.816  16.846  0.00  0.00     0.002 A 
ATOM     20  C   UNL d   1     -40.639  15.910  16.377  0.00  0.00     0.000 A 
ATOM     21  C   UNL d   1     -39.938  15.534  16.603  0.00  0.00     0.002 A 
ATOM     22  C   UNL d   1     -39.914  15.073  17.288  0.00  0.00     0.019 A 
ENDBRANCH  15  17
ENDBRANCH  13  14
ENDBRANCH   1  13
TORSDOF 4
ENDMDL
MODEL 6
REMARK VINA RESULT:      -5.7      8.227      9.209
REMARK  4 active torsions:
REMARK  status: ('A' for Active; 'I' for Inactive)
REMARK    1  A    between atoms: C_2  and  S_1 
REMARK    2  A    between atoms: C_5  and  S_1 
REMARK    3  A    between atoms: C_7  and  C_5 
REMARK       I    between atoms: N_11  and  C_7 
REMARK    4  A    between atoms: C_14  and  N_11 
ROOT
ATOM      1  S   UNL d   1     -40.072  15.041  19.467  0.00  0.00     0.217 S 
ATOM      2  O   UNL d   1     -39.534  15.666  19.366  0.00  0.00    -0.217 OA
ATOM      3  O   UNL d   1     -40.613  14.414  19.568  0.00  0.00    -0.217 OA
ENDROOT
BRANCH   1   4
ATOM      4  C   UNL d   1     -39.983  14.831  18.673  0.00  0.00     0.109 A 
ATOM      5  C   UNL d   1     -39.456  14.271  18.376  0.00  0.00     0.110 A 
ATOM      6  N   UNL d   1     -39.550  14.238  17.561  0.00  0.00    -0.243 NA
ATOM      7  C   UNL d   1     -40.139  14.780  17.352  0.00  0.00     0.082 A 
ATOM      8  C   UNL d   1     -40.401  15.142  18.041  0.00  0.00     0.030 A 
ATOM      9  C   UNL d   1     -40.465  14.986  16.622  0.00  0.00     0.019 A 
ATOM     10  C   UNL d   1     -40.995  15.716  18.007  0.00  0.00     0.002 A 
ATOM     11  C   UNL d   1     -41.321  15.922  17.279  0.00  0.00     0.000 A 
ATOM     12  C   UNL d   1     -41.057  15.558  16.592  0.00  0.00     0.002 A 
ENDBRANCH   1   4
BRANCH   1  13
ATOM     13  C   UNL d   1     -40.168  15.249  20.274  0.00  0.00     0.161 C 
BRANCH  13  14
ATOM     14  C   UNL d   1     -39.618  14.977  20.830  0.00  0.00     0.291 C 
ATOM     15  N   UNL d   1     -39.891  14.655  21.540  0.00  0.00    -0.207 NA
ATOM     16  O   UNL d   1     -38.814  15.024  20.683  0.00  0.00    -0.264 OA
BRANCH  15  17
ATOM     17  C   UNL d   1     -39.344  14.382  22.098  0.00  0.00     0.085 A 
ATOM     18  C   UNL d   1     -39.002  14.901  22.641  0.00  0.00     0.019 A 
ATOM     19  C   UNL d   1     -38.456  14.623  23.197  0.00  0.00     0.002 A 
ATOM     20  C   UNL d   1     -38.249  13.820  23.215  0.00  0.00     0.000 A 
ATOM     21  C   UNL d   1     -38.594  13.303  22.669  0.00  0.00     0.002 A 
ATOM     22  C   UNL d   1     -39.138  13.585  22.115  0.00  0.00     0.019 A 
ENDBRANCH  15  17
ENDBRANCH  13  14
ENDBRANCH   1  13
TORSDOF 4
ENDMDL
MODEL 7
REMARK VINA RESULT:      -5.2      8.453      9.743
REMARK  4 active torsions:
REMARK  status: ('A' for Active; 'I' for Inactive)
REMARK    1  A    between atoms: C_2  and  S_1 
REMARK    2  A    between atoms: C_5  and  S_1 
REMARK    3  A    between atoms: C_7  and  C_5 
REMARK       I    between atoms: N_11  and  C_7 
REMARK    4  A    between atoms: C_14  and  N_11 
ROOT
ATOM      1  S   UNL d   1     -39.349  14.164  18.185  0.00  0.00     0.217 S 
ATOM      2  O   UNL d   1     -38.691  14.657  18.301  0.00  0.00    -0.217 OA
ATOM      3  O   UNL d   1     -40.010  13.669  18.067  0.00  0.00    -0.217 OA
ENDROOT
BRANCH   1   4
ATOM      4  C   UNL d   1     -38.896  13.667  17.704  0.00  0.00     0.109 A 
ATOM      5  C   UNL d   1     -38.578  12.939  17.922  0.00  0.00     0.110 A 
ATOM      6  N   UNL d   1     -38.169  12.635  17.278  0.00  0.00    -0.243 NA
ATOM      7  C   UNL d   1     -38.235  13.177  16.657  0.00  0.00     0.082 A 
ATOM      8  C   UNL d   1     -38.684  13.811  16.926  0.00  0.00     0.030 A 
ATOM      9  C   UNL d   1     -37.943  13.171  15.885  0.00  0.00     0.019 A 
ATOM     10  C   UNL d   1     -38.845  14.446  16.423  0.00  0.00     0.002 A 
ATOM     11  C   UNL d   1     -38.554  14.440  15.652  0.00  0.00     0.000 A 
ATOM     12  C   UNL d   1     -38.106  13.806  15.387  0.00  0.00     0.002 A 
ENDBRANCH   1   4
BRANCH   1  13
ATOM     13  C   UNL d   1     -39.815  14.664  18.672  0.00  0.00     0.161 C 
BRANCH  13  14
ATOM     14  C   UNL d   1     -39.581  14.797  19.455  0.00  0.00     0.291 C 
ATOM     15  N   UNL d   1     -40.142  14.735  20.057  0.00  0.00    -0.207 NA
ATOM     16  O   UNL d   1     -38.806  14.988  19.635  0.00  0.00    -0.264 OA
BRANCH  15  17
ATOM     17  C   UNL d   1     -39.913  14.867  20.841  0.00  0.00     0.085 A 
ATOM     18  C   UNL d   1     -39.936  15.626  21.164  0.00  0.00     0.019 A 
ATOM     19  C   UNL d   1     -39.706  15.754  21.948  0.00  0.00     0.002 A 
ATOM     20  C   UNL d   1     -39.451  15.119  22.418  0.00  0.00     0.000 A 
ATOM     21  C   UNL d   1     -39.429  14.360  22.090  0.00  0.00     0.002 A 
ATOM     22  C   UNL d   1     -39.660  14.237  21.307  0.00  0.00     0.019 A 
ENDBRANCH  15  17
ENDBRANCH  13  14
ENDBRANCH   1  13
TORSDOF 4
ENDMDL
