MODEL 1
REMARK VINA RESULT:     105.9      0.000      0.000
REMARK  5 active torsions:
REMARK  status: ('A' for Active; 'I' for Inactive)
REMARK    1  A    between atoms: C_6  and  C_1 
REMARK    2  A    between atoms: C_9  and  C_5 
REMARK       I    between atoms: N_13  and  C_6 
REMARK    3  A    between atoms: C_7  and  C_15 
REMARK    4  A    between atoms: N_10  and  N_13 
REMARK    5  A    between atoms: C_15  and  N_10 
ROOT
ATOM      1  C   UNL d   1      61.705  47.600  49.723  0.00  0.00     0.316 C 
ATOM      2  N   UNL d   1      61.356  48.294  50.303  0.00  0.00    -0.104 NA
ATOM      3  O   UNL d   1      62.004  47.848  49.000  0.00  0.00    -0.262 OA
ENDROOT
BRANCH   1   4
ATOM      4  C   UNL d   1      61.718  46.803  49.910  0.00  0.00     0.164 A 
ATOM      5  C   UNL d   1      62.195  46.292  49.479  0.00  0.00     0.047 A 
ATOM      6  C   UNL d   1      61.756  45.207  50.269  0.00  0.00     0.105 A 
ATOM      7  N   UNL d   1      61.279  45.717  50.700  0.00  0.00    -0.148 NA
ATOM      8  N   UNL d   1      61.259  46.518  50.521  0.00  0.00    -0.143 NA
BRANCH   6   9
ATOM      9  C   UNL d   1      61.914  44.404  50.287  0.00  0.00     0.019 A 
ATOM     10  C   UNL d   1      61.935  44.014  51.005  0.00  0.00     0.002 A 
ATOM     11  C   UNL d   1      62.093  43.208  51.027  0.00  0.00     0.000 A 
ATOM     12  C   UNL d   1      62.115  42.814  51.742  0.00  0.00     0.000 A 
ATOM     13  C   UNL d   1      62.229  42.799  50.324  0.00  0.00     0.000 A 
ATOM     14  C   UNL d   1      62.271  42.016  51.764  0.00  0.00     0.000 A 
ATOM     15  C   UNL d   1      62.408  41.599  51.067  0.00  0.00     0.000 A 
ATOM     16  C   UNL d   1      62.387  41.990  50.349  0.00  0.00     0.000 A 
ATOM     17  C   UNL d   1      62.206  43.196  49.619  0.00  0.00     0.000 A 
ATOM     18  C   UNL d   1      62.048  43.999  49.601  0.00  0.00     0.002 A 
ENDBRANCH   6   9
ENDBRANCH   1   4
BRANCH   2  19
ATOM     19  N   UNL d   1      61.285  49.288  50.191  0.00  0.00    -0.143 NA
BRANCH  19  20
ATOM     20  C   UNL d   1      60.518  49.663  50.104  0.00  0.00     0.126 C 
BRANCH  20  21
ATOM     21  C   UNL d   1      59.966  49.677  50.769  0.00  0.00     0.060 A 
ATOM     22  C   UNL d   1      59.118  49.685  50.630  0.00  0.00     0.005 A 
ATOM     23  C   UNL d   1      58.566  49.700  51.295  0.00  0.00     0.000 A 
ATOM     24  C   UNL d   1      58.812  49.679  49.817  0.00  0.00     0.000 A 
ATOM     25  C   UNL d   1      57.708  49.708  51.152  0.00  0.00     0.000 A 
ATOM     26  C   UNL d   1      58.861  49.707  52.109  0.00  0.00     0.003 A 
ATOM     27  C   UNL d   1      57.407  49.701  50.341  0.00  0.00     0.000 A 
ATOM     28  C   UNL d   1      57.954  49.686  49.675  0.00  0.00     0.000 A 
ATOM     29  C   UNL d   1      59.716  49.699  52.242  0.00  0.00     0.042 A 
ATOM     30  C   UNL d   1      60.269  49.684  51.576  0.00  0.00     0.197 A 
ATOM     31  O   UNL d   1      61.113  49.676  51.715  0.00  0.00    -0.286 OA
ENDBRANCH  20  21
ENDBRANCH  19  20
ENDBRANCH   2  19
TORSDOF 5
ENDMDL
MODEL 2
REMARK VINA RESULT:     107.0      0.859      1.736
REMARK  5 active torsions:
REMARK  status: ('A' for Active; 'I' for Inactive)
REMARK    1  A    between atoms: C_6  and  C_1 
REMARK    2  A    between atoms: C_9  and  C_5 
REMARK       I    between atoms: N_13  and  C_6 
REMARK    3  A    between atoms: C_7  and  C_15 
REMARK    4  A    between atoms: N_10  and  N_13 
REMARK    5  A    between atoms: C_15  and  N_10 
ROOT
ATOM      1  C   UNL d   1      61.796  47.171  49.615  0.00  0.00     0.316 C 
ATOM      2  N   UNL d   1      61.347  47.976  49.913  0.00  0.00    -0.104 NA
ATOM      3  O   UNL d   1      62.265  47.244  48.945  0.00  0.00    -0.262 OA
ENDROOT
BRANCH   1   4
ATOM      4  C   UNL d   1      61.736  46.443  49.984  0.00  0.00     0.164 A 
ATOM      5  C   UNL d   1      62.297  45.862  49.831  0.00  0.00     0.047 A 
ATOM      6  C   UNL d   1      61.633  44.981  50.712  0.00  0.00     0.105 A 
ATOM      7  N   UNL d   1      61.073  45.561  50.866  0.00  0.00    -0.148 NA
ATOM      8  N   UNL d   1      61.124  46.295  50.501  0.00  0.00    -0.143 NA
BRANCH   6   9
ATOM      9  C   UNL d   1      61.757  44.212  50.964  0.00  0.00     0.019 A 
ATOM     10  C   UNL d   1      62.330  43.758  50.598  0.00  0.00     0.002 A 
ATOM     11  C   UNL d   1      62.458  42.985  50.848  0.00  0.00     0.000 A 
ATOM     12  C   UNL d   1      63.029  42.527  50.485  0.00  0.00     0.000 A 
ATOM     13  C   UNL d   1      62.008  42.675  51.465  0.00  0.00     0.000 A 
ATOM     14  C   UNL d   1      63.156  41.762  50.732  0.00  0.00     0.000 A 
ATOM     15  C   UNL d   1      62.711  41.444  51.348  0.00  0.00     0.000 A 
ATOM     16  C   UNL d   1      62.139  41.899  51.713  0.00  0.00     0.000 A 
ATOM     17  C   UNL d   1      61.444  43.135  51.819  0.00  0.00     0.000 A 
ATOM     18  C   UNL d   1      61.319  43.904  51.568  0.00  0.00     0.002 A 
ENDBRANCH   6   9
ENDBRANCH   1   4
BRANCH   2  19
ATOM     19  N   UNL d   1      61.340  48.912  49.554  0.00  0.00    -0.143 NA
BRANCH  19  20
ATOM     20  C   UNL d   1      61.186  49.577  50.074  0.00  0.00     0.126 C 
BRANCH  20  21
ATOM     21  C   UNL d   1      60.445  49.617  50.517  0.00  0.00     0.060 A 
ATOM     22  C   UNL d   1      60.453  49.635  51.377  0.00  0.00     0.005 A 
ATOM     23  C   UNL d   1      59.712  49.675  51.820  0.00  0.00     0.000 A 
ATOM     24  C   UNL d   1      61.208  49.614  51.804  0.00  0.00     0.000 A 
ATOM     25  C   UNL d   1      59.721  49.694  52.689  0.00  0.00     0.000 A 
ATOM     26  C   UNL d   1      58.952  49.697  51.403  0.00  0.00     0.003 A 
ATOM     27  C   UNL d   1      60.476  49.672  53.112  0.00  0.00     0.000 A 
ATOM     28  C   UNL d   1      61.218  49.632  52.674  0.00  0.00     0.000 A 
ATOM     29  C   UNL d   1      58.953  49.679  50.537  0.00  0.00     0.042 A 
ATOM     30  C   UNL d   1      59.695  49.639  50.094  0.00  0.00     0.197 A 
ATOM     31  O   UNL d   1      59.686  49.621  49.239  0.00  0.00    -0.286 OA
ENDBRANCH  20  21
ENDBRANCH  19  20
ENDBRANCH   2  19
TORSDOF 5
ENDMDL
