MODEL 1
REMARK VINA RESULT:      13.1      0.000      0.000
REMARK  6 active torsions:
REMARK  status: ('A' for Active; 'I' for Inactive)
REMARK    1  A    between atoms: C_2  and  C_1 
REMARK    2  A    between atoms: C_4  and  C_1 
REMARK    3  A    between atoms: C_6  and  C_2 
REMARK    4  A    between atoms: O_12  and  C_3 
REMARK    5  A    between atoms: C_8  and  C_4 
REMARK    6  A    between atoms: O_13  and  C_10 
ROOT
ATOM      1  C   UNL d   1      45.023 -14.916  44.797  0.00  0.00     0.096 A 
ATOM      2  C   UNL d   1      45.146 -14.101  44.839  0.00  0.00     0.048 A 
ATOM      3  C   UNL d   1      45.654 -15.418  44.622  0.00  0.00     0.022 A 
ATOM      4  C   UNL d   1      46.409 -15.109  44.489  0.00  0.00     0.004 A 
ATOM      5  C   UNL d   1      45.900 -13.789  44.707  0.00  0.00     0.096 A 
ATOM      6  C   UNL d   1      46.533 -14.294  44.532  0.00  0.00     0.024 A 
ENDROOT
BRANCH   3   7
ATOM      7  C   UNL d   1      45.531 -16.232  44.580  0.00  0.00     0.005 C 
BRANCH   7   8
ATOM      8  C   UNL d   1      45.991 -16.692  44.072  0.00  0.00     0.042 C 
BRANCH   8   9
ATOM      9  C   UNL d   1      46.070 -17.501  44.191  0.00  0.00     0.196 C 
ATOM     10  O   UNL d   1      46.011 -17.814  44.954  0.00  0.00    -0.287 OA
BRANCH   9  11
ATOM     11  C   UNL d   1      46.209 -18.004  43.555  0.00  0.00     0.039 A 
ATOM     12  C   UNL d   1      46.511 -17.709  42.849  0.00  0.00     0.003 A 
ATOM     13  C   UNL d   1      46.646 -18.230  42.214  0.00  0.00     0.000 A 
ATOM     14  C   UNL d   1      46.480 -19.036  42.287  0.00  0.00     0.000 A 
ATOM     15  C   UNL d   1      46.175 -19.330  43.001  0.00  0.00     0.000 A 
ATOM     16  C   UNL d   1      46.041 -18.819  43.629  0.00  0.00     0.003 A 
ENDBRANCH   9  11
ENDBRANCH   8   9
ENDBRANCH   7   8
ENDBRANCH   3   7
BRANCH   1  17
ATOM     17  O   UNL d   1      44.269 -15.229  44.929  0.00  0.00    -0.328 OA
ATOM     18  C   UNL d   1      43.606 -14.739  44.891  0.00  0.00     0.181 C 
ENDBRANCH   1  17
BRANCH   5  19
ATOM     19  O   UNL d   1      46.023 -12.974  44.750  0.00  0.00    -0.328 OA
ATOM     20  C   UNL d   1      45.593 -12.464  44.263  0.00  0.00     0.181 C 
ENDBRANCH   5  19
TORSDOF 6
ENDMDL
