MODEL 1
REMARK VINA RESULT:      -2.5      0.000      0.000
REMARK  7 active torsions:
REMARK  status: ('A' for Active; 'I' for Inactive)
REMARK    1  A    between atoms: C_14  and  N_1 
REMARK    2  A    between atoms: C_2  and  C_5 
REMARK    3  A    between atoms: C_6  and  C_2 
REMARK    4  A    between atoms: C_7  and  C_3 
REMARK    5  A    between atoms: C_5  and  C_7 
REMARK    6  A    between atoms: O_15  and  C_6 
REMARK    7  A    between atoms: C_18  and  O_15 
ROOT
ATOM      1  C   UNL d   1     -41.475-122.000 -52.210  0.00  0.00     0.132 C 
ATOM      2  C   UNL d   1     -41.373-121.189 -52.239  0.00  0.00     0.106 C 
ATOM      3  N   UNL d   1     -41.271-120.397 -52.261  0.00  0.00    -0.191 NA
ENDROOT
BRANCH   1   4
ATOM      4  C   UNL d   1     -41.408-122.415 -51.500  0.00  0.00     0.017 C 
BRANCH   4   5
ATOM      5  C   UNL d   1     -42.022-122.440 -51.001  0.00  0.00     0.018 C 
BRANCH   5   6
ATOM      6  C   UNL d   1     -41.931-122.782 -50.262  0.00  0.00     0.064 A 
ATOM      7  N   UNL d   1     -42.557-122.751 -49.699  0.00  0.00    -0.305 N 
ATOM      8  C   UNL d   1     -42.452-123.101 -48.950  0.00  0.00     0.064 A 
ATOM      9  C   UNL d   1     -41.745-123.476 -48.757  0.00  0.00     0.016 A 
ATOM     10  C   UNL d   1     -43.072-123.065 -48.404  0.00  0.00     0.018 A 
ATOM     11  C   UNL d   1     -41.123-123.507 -49.315  0.00  0.00     0.003 A 
ATOM     12  C   UNL d   1     -41.654-123.817 -48.016  0.00  0.00     0.001 A 
ATOM     13  C   UNL d   1     -41.214-123.166 -50.056  0.00  0.00     0.018 A 
ATOM     14  C   UNL d   1     -42.268-123.789 -47.458  0.00  0.00     0.000 A 
ATOM     15  C   UNL d   1     -42.981-123.407 -47.663  0.00  0.00     0.002 A 
BRANCH   7  16
ATOM     16  C   UNL d   1     -43.270-122.376 -49.886  0.00  0.00     0.080 C 
ATOM     17  C   UNL d   1     -43.974-122.821 -49.894  0.00  0.00     0.021 C 
ENDBRANCH   7  16
ENDBRANCH   5   6
ENDBRANCH   4   5
ENDBRANCH   1   4
BRANCH   1  18
ATOM     18  C   UNL d   1     -41.643-122.378 -52.895  0.00  0.00     0.310 C 
ATOM     19  O   UNL d   1     -42.343-122.247 -53.254  0.00  0.00    -0.258 OA
BRANCH  18  20
ATOM     20  O   UNL d   1     -41.176-122.838 -53.199  0.00  0.00    -0.271 OA
BRANCH  20  21
ATOM     21  C   UNL d   1     -41.208-123.022 -54.056  0.00  0.00     0.126 C 
ATOM     22  C   UNL d   1     -41.180-123.805 -54.342  0.00  0.00     0.029 C 
ENDBRANCH  20  21
ENDBRANCH  18  20
ENDBRANCH   1  18
TORSDOF 7
ENDMDL
MODEL 2
REMARK VINA RESULT:      -2.0      1.598      4.605
REMARK  7 active torsions:
REMARK  status: ('A' for Active; 'I' for Inactive)
REMARK    1  A    between atoms: C_14  and  N_1 
REMARK    2  A    between atoms: C_2  and  C_5 
REMARK    3  A    between atoms: C_6  and  C_2 
REMARK    4  A    between atoms: C_7  and  C_3 
REMARK    5  A    between atoms: C_5  and  C_7 
REMARK    6  A    between atoms: O_15  and  C_6 
REMARK    7  A    between atoms: C_18  and  O_15 
ROOT
ATOM      1  C   UNL d   1     -42.177-123.310 -49.972  0.00  0.00     0.132 C 
ATOM      2  C   UNL d   1     -42.930-122.990 -49.976  0.00  0.00     0.106 C 
ATOM      3  N   UNL d   1     -43.664-122.677 -49.987  0.00  0.00    -0.191 NA
ENDROOT
BRANCH   1   4
ATOM      4  C   UNL d   1     -41.764-123.445 -50.673  0.00  0.00     0.017 C 
BRANCH   4   5
ATOM      5  C   UNL d   1     -41.551-122.833 -51.127  0.00  0.00     0.018 C 
BRANCH   5   6
ATOM      6  C   UNL d   1     -41.458-122.939 -51.934  0.00  0.00     0.064 A 
ATOM      7  N   UNL d   1     -41.583-122.296 -52.464  0.00  0.00    -0.305 N 
ATOM      8  C   UNL d   1     -41.485-122.416 -53.283  0.00  0.00     0.064 A 
ATOM      9  C   UNL d   1     -41.268-123.153 -53.577  0.00  0.00     0.016 A 
ATOM     10  C   UNL d   1     -41.610-121.779 -53.796  0.00  0.00     0.018 A 
ATOM     11  C   UNL d   1     -41.143-123.792 -53.051  0.00  0.00     0.003 A 
ATOM     12  C   UNL d   1     -41.174-123.259 -54.385  0.00  0.00     0.001 A 
ATOM     13  C   UNL d   1     -41.237-123.687 -52.242  0.00  0.00     0.018 A 
ATOM     14  C   UNL d   1     -41.296-122.629 -54.912  0.00  0.00     0.000 A 
ATOM     15  C   UNL d   1     -41.516-121.885 -54.605  0.00  0.00     0.002 A 
BRANCH   7  16
ATOM     16  C   UNL d   1     -41.801-121.552 -52.177  0.00  0.00     0.080 C 
ATOM     17  C   UNL d   1     -41.208-121.013 -51.950  0.00  0.00     0.021 C 
ENDBRANCH   7  16
ENDBRANCH   5   6
ENDBRANCH   4   5
ENDBRANCH   1   4
BRANCH   1  18
ATOM     18  C   UNL d   1     -41.853-123.489 -49.261  0.00  0.00     0.310 C 
ATOM     19  O   UNL d   1     -41.124-123.810 -49.232  0.00  0.00    -0.258 OA
BRANCH  18  20
ATOM     20  O   UNL d   1     -42.206-123.367 -48.642  0.00  0.00    -0.271 OA
BRANCH  20  21
ATOM     21  C   UNL d   1     -41.775-123.198 -47.897  0.00  0.00     0.126 C 
ATOM     22  C   UNL d   1     -42.173-123.036 -47.182  0.00  0.00     0.029 C 
ENDBRANCH  20  21
ENDBRANCH  18  20
ENDBRANCH   1  18
TORSDOF 7
ENDMDL
