MODEL 1
REMARK VINA RESULT:      64.5      0.000      0.000
REMARK  4 active torsions:
REMARK  status: ('A' for Active; 'I' for Inactive)
REMARK    1  A    between atoms: S_10  and  C_3 
REMARK    2  A    between atoms: C_11  and  C_7 
REMARK    3  A    between atoms: C_13  and  S_10 
REMARK    4  A    between atoms: C_14  and  C_13 
ROOT
ATOM      1  N   UNL d   1      59.810  49.096  51.027  0.00  0.00    -0.186 N 
ATOM      2  N   UNL d   1      59.187  49.117  50.499  0.00  0.00    -0.162 NA
ATOM      3  C   UNL d   1      60.590  48.827  50.950  0.00  0.00     0.217 A 
ATOM      4  C   UNL d   1      59.721  49.376  51.797  0.00  0.00     0.187 A 
ATOM      5  N   UNL d   1      60.964  48.945  51.669  0.00  0.00    -0.120 NA
ATOM      6  N   UNL d   1      60.428  49.285  52.194  0.00  0.00    -0.127 NA
ATOM      7  C   UNL d   1      58.458  49.425  50.742  0.00  0.00     0.102 A 
ATOM      8  C   UNL d   1      58.988  49.684  52.039  0.00  0.00     0.042 A 
ATOM      9  C   UNL d   1      58.362  49.707  51.514  0.00  0.00     0.024 A 
ENDROOT
BRANCH   3  10
ATOM     10  S   UNL d   1      60.944  48.497  50.282  0.00  0.00    -0.046 SA
BRANCH  10  11
ATOM     11  C   UNL d   1      61.608  48.032  50.353  0.00  0.00     0.038 C 
BRANCH  11  12
ATOM     12  C   UNL d   1      61.607  47.268  50.066  0.00  0.00     0.007 A 
ATOM     13  C   UNL d   1      62.006  47.087  49.366  0.00  0.00     0.001 A 
ATOM     14  C   UNL d   1      62.008  46.311  49.070  0.00  0.00     0.000 A 
ATOM     15  C   UNL d   1      61.613  45.714  49.469  0.00  0.00     0.000 A 
ATOM     16  C   UNL d   1      61.209  45.889  50.173  0.00  0.00     0.000 A 
ATOM     17  C   UNL d   1      61.625  44.949  49.161  0.00  0.00     0.000 C 
ATOM     18  C   UNL d   1      61.210  46.662  50.464  0.00  0.00     0.001 A 
ENDBRANCH  11  12
ENDBRANCH  10  11
ENDBRANCH   3  10
BRANCH   7  19
ATOM     19  C   UNL d   1      57.825  49.449  50.214  0.00  0.00     0.022 A 
ATOM     20  C   UNL d   1      57.058  49.314  50.482  0.00  0.00     0.022 A 
ATOM     21  C   UNL d   1      56.424  49.337  49.960  0.00  0.00     0.099 A 
ATOM     22  N   UNL d   1      56.556  49.496  49.169  0.00  0.00    -0.242 NA
ATOM     23  C   UNL d   1      57.341  49.636  48.887  0.00  0.00     0.099 A 
ATOM     24  C   UNL d   1      57.960  49.608  49.426  0.00  0.00     0.022 A 
ENDBRANCH   7  19
TORSDOF 4
ENDMDL
