MODEL 1
REMARK VINA RESULT:       8.3      0.000      0.000
REMARK  5 active torsions:
REMARK  status: ('A' for Active; 'I' for Inactive)
REMARK    1  A    between atoms: N_8  and  S_1 
REMARK    2  A    between atoms: C_18  and  S_1 
REMARK    3  A    between atoms: C_13  and  C_3 
REMARK    4  A    between atoms: C_5  and  C_11 
REMARK    5  A    between atoms: C_17  and  N_8 
ROOT
ATOM      1  N   UNL d   1     -41.692-121.455 -51.342  0.00  0.00    -0.246 NA
ATOM      2  C   UNL d   1     -41.709-122.336 -52.742  0.00  0.00     0.003 A 
ATOM      3  C   UNL d   1     -41.606-121.516 -52.767  0.00  0.00     0.018 A 
ATOM      4  C   UNL d   1     -41.795-122.274 -51.313  0.00  0.00     0.081 A 
ATOM      5  C   UNL d   1     -41.804-122.713 -52.012  0.00  0.00     0.019 A 
ATOM      6  C   UNL d   1     -41.597-121.077 -52.069  0.00  0.00     0.081 A 
ATOM      7  C   UNL d   1     -41.512-121.139 -53.496  0.00  0.00     0.002 A 
ATOM      8  C   UNL d   1     -41.494-120.259 -52.096  0.00  0.00     0.019 A 
ATOM      9  C   UNL d   1     -41.409-120.319 -53.522  0.00  0.00     0.000 A 
ATOM     10  C   UNL d   1     -41.400-119.880 -52.824  0.00  0.00     0.002 A 
ATOM     11  C   UNL d   1     -41.323-119.989 -54.222  0.00  0.00     0.000 C 
ENDROOT
BRANCH   4  12
ATOM     12  C   UNL d   1     -41.889-122.652 -50.586  0.00  0.00     0.018 A 
ATOM     13  C   UNL d   1     -42.590-123.051 -50.416  0.00  0.00     0.003 A 
ATOM     14  C   UNL d   1     -42.684-123.429 -49.689  0.00  0.00     0.020 A 
ATOM     15  C   UNL d   1     -42.075-123.408 -49.132  0.00  0.00     0.094 A 
ATOM     16  C   UNL d   1     -41.374-123.010 -49.302  0.00  0.00     0.020 A 
ATOM     17  C   UNL d   1     -41.280-122.631 -50.030  0.00  0.00     0.003 A 
BRANCH  15  18
ATOM     18  N   UNL d   1     -42.169-123.786 -48.405  0.00  0.00    -0.158 NA
BRANCH  18  19
ATOM     19  S   UNL d   1     -42.163-123.347 -47.707  0.00  0.00     0.286 S 
ATOM     20  O   UNL d   1     -42.156-122.935 -47.053  0.00  0.00    -0.198 OA
ATOM     21  O   UNL d   1     -42.885-123.003 -47.916  0.00  0.00    -0.198 OA
BRANCH  19  22
ATOM     22  C   UNL d   1     -41.442-123.690 -47.498  0.00  0.00     0.117 C 
ATOM     23  C   UNL d   1     -41.458-123.748 -46.676  0.00  0.00     0.014 C 
ENDBRANCH  19  22
ENDBRANCH  18  19
ENDBRANCH  15  18
ENDBRANCH   4  12
BRANCH   2  24
ATOM     24  C   UNL d   1     -41.718-122.769 -53.431  0.00  0.00     0.000 A 
ATOM     25  C   UNL d   1     -42.293-122.621 -54.002  0.00  0.00     0.000 A 
ATOM     26  C   UNL d   1     -42.301-123.061 -54.702  0.00  0.00     0.000 A 
ATOM     27  C   UNL d   1     -41.736-123.648 -54.829  0.00  0.00     0.000 A 
ATOM     28  C   UNL d   1     -41.160-123.795 -54.255  0.00  0.00     0.000 A 
ATOM     29  C   UNL d   1     -41.151-123.355 -53.555  0.00  0.00     0.000 A 
ENDBRANCH   2  24
TORSDOF 5
ENDMDL
MODEL 2
REMARK VINA RESULT:       9.8      2.754      5.316
REMARK  5 active torsions:
REMARK  status: ('A' for Active; 'I' for Inactive)
REMARK    1  A    between atoms: N_8  and  S_1 
REMARK    2  A    between atoms: C_18  and  S_1 
REMARK    3  A    between atoms: C_13  and  C_3 
REMARK    4  A    between atoms: C_5  and  C_11 
REMARK    5  A    between atoms: C_17  and  N_8 
ROOT
ATOM      1  N   UNL d   1     -41.438-123.459 -50.735  0.00  0.00    -0.246 NA
ATOM      2  C   UNL d   1     -42.912-122.888 -50.250  0.00  0.00     0.003 A 
ATOM      3  C   UNL d   1     -42.384-123.198 -49.696  0.00  0.00     0.018 A 
ATOM      4  C   UNL d   1     -41.964-123.149 -51.291  0.00  0.00     0.081 A 
ATOM      5  C   UNL d   1     -42.699-122.864 -51.049  0.00  0.00     0.019 A 
ATOM      6  C   UNL d   1     -41.648-123.483 -49.938  0.00  0.00     0.081 A 
ATOM      7  C   UNL d   1     -42.597-123.221 -48.898  0.00  0.00     0.002 A 
ATOM      8  C   UNL d   1     -41.123-123.793 -49.382  0.00  0.00     0.019 A 
ATOM      9  C   UNL d   1     -42.068-123.532 -48.343  0.00  0.00     0.000 A 
ATOM     10  C   UNL d   1     -41.333-123.817 -48.584  0.00  0.00     0.002 A 
ATOM     11  C   UNL d   1     -42.294-123.542 -47.597  0.00  0.00     0.000 C 
ENDROOT
BRANCH   4  12
ATOM     12  C   UNL d   1     -41.753-123.125 -52.088  0.00  0.00     0.018 A 
ATOM     13  C   UNL d   1     -41.422-123.788 -52.447  0.00  0.00     0.003 A 
ATOM     14  C   UNL d   1     -41.211-123.764 -53.244  0.00  0.00     0.020 A 
ATOM     15  C   UNL d   1     -41.333-123.075 -53.682  0.00  0.00     0.094 A 
ATOM     16  C   UNL d   1     -41.665-122.412 -53.323  0.00  0.00     0.020 A 
ATOM     17  C   UNL d   1     -41.876-122.436 -52.525  0.00  0.00     0.003 A 
BRANCH  15  18
ATOM     18  N   UNL d   1     -41.123-123.051 -54.479  0.00  0.00    -0.158 NA
BRANCH  18  19
ATOM     19  S   UNL d   1     -41.666-122.790 -55.042  0.00  0.00     0.286 S 
ATOM     20  O   UNL d   1     -42.175-122.545 -55.570  0.00  0.00    -0.198 OA
ATOM     21  O   UNL d   1     -42.187-123.392 -54.818  0.00  0.00    -0.198 OA
BRANCH  19  22
ATOM     22  C   UNL d   1     -41.146-122.189 -55.266  0.00  0.00     0.117 C 
ATOM     23  C   UNL d   1     -41.471-121.862 -55.950  0.00  0.00     0.014 C 
ENDBRANCH  19  22
ENDBRANCH  18  19
ENDBRANCH  15  18
ENDBRANCH   4  12
BRANCH   2  24
ATOM     24  C   UNL d   1     -43.638-122.606 -50.011  0.00  0.00     0.000 A 
ATOM     25  C   UNL d   1     -44.187-123.120 -49.675  0.00  0.00     0.000 A 
ATOM     26  C   UNL d   1     -44.925-122.834 -49.432  0.00  0.00     0.000 A 
ATOM     27  C   UNL d   1     -45.111-122.035 -49.527  0.00  0.00     0.000 A 
ATOM     28  C   UNL d   1     -44.558-121.522 -49.865  0.00  0.00     0.000 A 
ATOM     29  C   UNL d   1     -43.821-121.808 -50.107  0.00  0.00     0.000 A 
ENDBRANCH   2  24
TORSDOF 5
ENDMDL
