MODEL 1
REMARK VINA RESULT:      -5.9      0.000      0.000
REMARK  5 active torsions:
REMARK  status: ('A' for Active; 'I' for Inactive)
REMARK    1  A    between atoms: N_10  and  C_2 
REMARK    2  A    between atoms: C_13  and  C_3 
REMARK    3  A    between atoms: C_5  and  S_14 
REMARK       I    between atoms: C_12  and  N_10 
REMARK    4  A    between atoms: C_18  and  C_12 
REMARK    5  A    between atoms: S_14  and  C_18 
ROOT
ATOM      1  N   UNL d   1     -41.641-123.672 -50.885  0.00  0.00    -0.051 NA
ATOM      2  C   UNL d   1     -41.290-123.351 -51.559  0.00  0.00     0.760 A 
ATOM      3  C   UNL d   1     -41.694-123.081 -50.316  0.00  0.00     0.147 A 
ATOM      4  N   UNL d   1     -41.126-122.568 -51.414  0.00  0.00    -0.019 NA
ATOM      5  S   UNL d   1     -41.374-122.390 -50.642  0.00  0.00     0.052 SA
ENDROOT
BRANCH   2   6
ATOM      6  N   UNL d   1     -41.136-123.761 -52.257  0.00  0.00    -0.018 NA
ATOM      7  C   UNL d   1     -41.288-123.411 -52.989  0.00  0.00     0.302 C 
ATOM      8  O   UNL d   1     -41.135-123.817 -53.683  0.00  0.00    -0.264 OA
BRANCH   7   9
ATOM      9  C   UNL d   1     -41.597-122.640 -53.020  0.00  0.00     0.100 C 
BRANCH   9  10
ATOM     10  S   UNL d   1     -41.406-122.149 -53.649  0.00  0.00    -0.054 SA
BRANCH  10  11
ATOM     11  C   UNL d   1     -41.958-121.992 -54.235  0.00  0.00     0.164 A 
ATOM     12  S   UNL d   1     -41.866-122.148 -55.035  0.00  0.00    -0.039 SA
ATOM     13  C   UNL d   1     -42.554-121.903 -55.423  0.00  0.00     0.134 A 
ATOM     14  C   UNL d   1     -42.691-121.961 -56.239  0.00  0.00     0.030 C 
ATOM     15  N   UNL d   1     -43.066-121.598 -54.861  0.00  0.00    -0.140 NA
ATOM     16  N   UNL d   1     -42.696-121.653 -54.122  0.00  0.00    -0.134 NA
ENDBRANCH  10  11
ENDBRANCH   9  10
ENDBRANCH   7   9
ENDBRANCH   2   6
BRANCH   3  17
ATOM     17  C   UNL d   1     -42.003-123.123 -49.547  0.00  0.00     0.026 A 
ATOM     18  C   UNL d   1     -42.661-122.674 -49.346  0.00  0.00     0.002 A 
ATOM     19  C   UNL d   1     -42.970-122.713 -48.585  0.00  0.00     0.000 A 
ATOM     20  C   UNL d   1     -42.618-123.203 -48.022  0.00  0.00     0.000 A 
ATOM     21  C   UNL d   1     -41.947-123.660 -48.227  0.00  0.00     0.000 A 
ATOM     22  C   UNL d   1     -42.926-123.244 -47.259  0.00  0.00     0.000 C 
ATOM     23  C   UNL d   1     -41.642-123.617 -48.993  0.00  0.00     0.002 A 
ENDBRANCH   3  17
TORSDOF 5
ENDMDL
