MODEL 1
REMARK VINA RESULT:      71.3      0.000      0.000
REMARK  2 active torsions:
REMARK  status: ('A' for Active; 'I' for Inactive)
REMARK    1  A    between atoms: C_6  and  N_2 
REMARK    2  A    between atoms: C_8  and  C_5 
ROOT
ATOM      1  C   UNL d   1      59.846  49.321  52.793  0.00  0.00     0.265 A 
ATOM      2  N   UNL d   1      59.663  49.267  51.990  0.00  0.00    -0.275 N 
ATOM      3  C   UNL d   1      58.539  49.544  52.651  0.00  0.00     0.021 A 
ATOM      4  C   UNL d   1      59.151  49.492  53.202  0.00  0.00     0.063 A 
ATOM      5  C   UNL d   1      58.859  49.404  51.901  0.00  0.00     0.067 A 
ATOM      6  O   UNL d   1      60.598  49.220  53.132  0.00  0.00    -0.267 OA
ATOM      7  C   UNL d   1      57.749  49.708  52.820  0.00  0.00     0.002 C 
ENDROOT
BRANCH   2   8
ATOM      8  C   UNL d   1      60.206  49.102  51.385  0.00  0.00     0.067 A 
ATOM      9  C   UNL d   1      60.420  48.316  51.235  0.00  0.00     0.018 A 
ATOM     10  C   UNL d   1      60.954  48.138  50.641  0.00  0.00     0.002 A 
ATOM     11  C   UNL d   1      61.284  48.749  50.185  0.00  0.00     0.000 A 
ATOM     12  C   UNL d   1      61.066  49.538  50.339  0.00  0.00     0.002 A 
ATOM     13  C   UNL d   1      61.824  48.577  49.584  0.00  0.00     0.000 C 
ATOM     14  C   UNL d   1      60.529  49.708  50.937  0.00  0.00     0.018 A 
ENDBRANCH   2   8
BRANCH   5  15
ATOM     15  C   UNL d   1      58.440  49.404  51.190  0.00  0.00     0.016 A 
ATOM     16  C   UNL d   1      58.795  49.692  50.500  0.00  0.00     0.002 A 
ATOM     17  C   UNL d   1      58.376  49.691  49.789  0.00  0.00     0.011 A 
ATOM     18  C   UNL d   1      57.597  49.402  49.765  0.00  0.00     0.058 A 
ATOM     19  C   UNL d   1      57.242  49.115  50.452  0.00  0.00     0.011 A 
ATOM     20 CL   UNL d   1      57.178  49.403  49.046  0.00  0.00    -0.082 Cl
ATOM     21  C   UNL d   1      57.661  49.115  51.167  0.00  0.00     0.002 A 
ENDBRANCH   5  15
TORSDOF 2
ENDMDL
