MODEL 1
REMARK VINA RESULT:      10.8      0.000      0.000
REMARK  5 active torsions:
REMARK  status: ('A' for Active; 'I' for Inactive)
REMARK    1  A    between atoms: C_15  and  C_4 
REMARK    2  A    between atoms: S_10  and  C_5 
REMARK    3  A    between atoms: C_17  and  S_10 
REMARK    4  A    between atoms: C_11  and  C_14 
REMARK    5  A    between atoms: C_14  and  C_17 
ROOT
ATOM      1  N   UNL d   1     -42.513-122.413 -50.788  0.00  0.00    -0.206 N 
ATOM      2  C   UNL d   1     -42.472-122.272 -49.975  0.00  0.00     0.166 A 
ATOM      3  N   UNL d   1     -43.380-123.495 -50.551  0.00  0.00    -0.163 NA
ATOM      4  C   UNL d   1     -42.882-122.738 -49.455  0.00  0.00     0.055 A 
ATOM      5  C   UNL d   1     -42.097-121.938 -51.288  0.00  0.00     0.116 A 
ATOM      6  C   UNL d   1     -43.340-123.356 -49.752  0.00  0.00     0.104 A 
ATOM      7  N   UNL d   1     -42.017-121.659 -49.685  0.00  0.00    -0.227 NA
ATOM      8  C   UNL d   1     -41.638-121.321 -51.016  0.00  0.00     0.045 A 
ATOM      9  C   UNL d   1     -41.598-121.181 -50.208  0.00  0.00     0.085 A 
ATOM     10  C   UNL d   1     -43.747-123.817 -49.232  0.00  0.00     0.023 C 
ATOM     11  C   UNL d   1     -41.123-120.540 -49.906  0.00  0.00     0.021 C 
ENDROOT
BRANCH   5  12
ATOM     12  S   UNL d   1     -42.138-122.084 -52.126  0.00  0.00    -0.064 SA
BRANCH  12  13
ATOM     13  C   UNL d   1     -42.443-122.191 -52.905  0.00  0.00     0.079 C 
BRANCH  13  14
ATOM     14  C   UNL d   1     -41.911-122.377 -53.541  0.00  0.00     0.202 C 
ATOM     15  O   UNL d   1     -41.152-122.703 -53.368  0.00  0.00    -0.286 OA
BRANCH  14  16
ATOM     16  C   UNL d   1     -42.140-122.237 -54.337  0.00  0.00     0.043 A 
ATOM     17  C   UNL d   1     -42.111-122.861 -54.907  0.00  0.00     0.049 A 
ATOM     18  C   UNL d   1     -42.344-122.714 -55.713  0.00  0.00     0.234 A 
ATOM     19  O   UNL d   1     -42.314-123.344 -56.287  0.00  0.00    -0.283 OA
ATOM     20  C   UNL d   1     -42.604-121.946 -55.944  0.00  0.00     0.234 A 
ATOM     21  C   UNL d   1     -42.637-121.319 -55.381  0.00  0.00     0.045 A 
ATOM     22  O   UNL d   1     -42.837-121.794 -56.740  0.00  0.00    -0.283 OA
ATOM     23  C   UNL d   1     -42.404-121.465 -54.576  0.00  0.00     0.007 A 
ENDBRANCH  14  16
ENDBRANCH  13  14
ENDBRANCH  12  13
ENDBRANCH   5  12
BRANCH   4  24
ATOM     24  C   UNL d   1     -42.842-122.599 -48.655  0.00  0.00     0.004 A 
ATOM     25  C   UNL d   1     -42.237-122.903 -48.221  0.00  0.00     0.000 A 
ATOM     26  C   UNL d   1     -42.197-122.764 -47.421  0.00  0.00     0.000 A 
ATOM     27  C   UNL d   1     -42.763-122.320 -47.056  0.00  0.00     0.000 A 
ATOM     28  C   UNL d   1     -43.381-122.011 -47.507  0.00  0.00     0.000 A 
ATOM     29  C   UNL d   1     -43.409-122.155 -48.293  0.00  0.00     0.000 A 
ENDBRANCH   4  24
TORSDOF 5
ENDMDL
