MODEL 1
REMARK VINA RESULT:      33.1      0.000      0.000
REMARK  2 active torsions:
REMARK  status: ('A' for Active; 'I' for Inactive)
REMARK       I    between atoms: C_3  and  N_1 
REMARK    1  A    between atoms: C_6  and  C_3 
REMARK    2  A    between atoms: O_16  and  C_11 
ROOT
ATOM      1  N   UNL d   1     -54.930-101.687 -37.729  0.00  0.00    -0.175 N 
ATOM      2  N   UNL d   1     -55.023-102.503 -37.671  0.00  0.00    -0.057 NA
ATOM      3  C   UNL d   1     -54.828-101.259 -38.426  0.00  0.00     0.282 C 
ATOM      4  N   UNL d   1     -55.107-102.702 -36.880  0.00  0.00    -0.129 NA
ATOM      5  C   UNL d   1     -54.958-101.384 -36.953  0.00  0.00     0.107 A 
ATOM      6  C   UNL d   1     -55.065-102.000 -36.437  0.00  0.00     0.122 A 
ATOM      7  O   UNL d   1     -54.742-100.444 -38.396  0.00  0.00    -0.265 OA
ATOM      8  C   UNL d   1     -54.897-100.615 -36.665  0.00  0.00     0.021 A 
ATOM      9  C   UNL d   1     -55.115-101.860 -35.613  0.00  0.00     0.022 A 
ATOM     10  C   UNL d   1     -54.943-100.459 -35.858  0.00  0.00     0.002 A 
ATOM     11  C   UNL d   1     -55.054-101.089 -35.321  0.00  0.00     0.002 A 
ENDROOT
BRANCH   3  12
ATOM     12  C   UNL d   1     -54.814-101.652 -39.149  0.00  0.00     0.059 A 
ATOM     13  C   UNL d   1     -54.776-101.234 -39.853  0.00  0.00     0.013 A 
ATOM     14  C   UNL d   1     -54.762-101.623 -40.582  0.00  0.00     0.057 A 
ATOM     15 BR   UNL d   1     -54.723-101.196 -41.286  0.00  0.00    -0.047 Br
ATOM     16  C   UNL d   1     -54.786-102.450 -40.605  0.00  0.00     0.100 A 
ATOM     17  C   UNL d   1     -54.825-102.876 -39.900  0.00  0.00     0.025 A 
ATOM     18  C   UNL d   1     -54.839-102.476 -39.174  0.00  0.00     0.007 A 
BRANCH  16  19
ATOM     19  O   UNL d   1     -54.773-102.864 -41.328  0.00  0.00    -0.328 OA
ATOM     20  C   UNL d   1     -54.773-102.451 -42.048  0.00  0.00     0.181 C 
ENDBRANCH  16  19
ENDBRANCH   3  12
TORSDOF 2
ENDMDL
