MODEL 1
REMARK VINA RESULT:     -10.4      0.000      0.000
REMARK  3 active torsions:
REMARK  status: ('A' for Active; 'I' for Inactive)
REMARK    1  A    between atoms: C_8  and  N_2 
REMARK    2  A    between atoms: C_14  and  C_8 
REMARK    3  A    between atoms: N_13  and  C_14 
ROOT
ATOM      1  C   UNL d   1      52.787  32.386  53.640  0.00  0.00     0.166 A 
ATOM      2  N   UNL d   1      52.589  33.172  53.741  0.00  0.00    -0.288 N 
ATOM      3  C   UNL d   1      53.513  32.203  53.994  0.00  0.00     0.117 A 
ATOM      4  C   UNL d   1      53.762  32.888  54.316  0.00  0.00     0.037 A 
ATOM      5  C   UNL d   1      53.182  33.500  54.159  0.00  0.00     0.067 A 
ATOM      6  N   UNL d   1      52.408  31.798  53.271  0.00  0.00    -0.225 NA
ATOM      7  N   UNL d   1      53.854  31.447  53.979  0.00  0.00    -0.241 NA
ATOM      8  C   UNL d   1      52.752  31.039  53.258  0.00  0.00     0.101 A 
ATOM      9  C   UNL d   1      53.476  30.867  53.614  0.00  0.00     0.099 A 
ATOM     10  C   UNL d   1      53.284  34.257  54.418  0.00  0.00     0.018 A 
ATOM     11  C   UNL d   1      54.430  33.047  54.729  0.00  0.00     0.010 A 
ATOM     12  C   UNL d   1      54.538  33.796  54.991  0.00  0.00     0.035 A 
ATOM     13  C   UNL d   1      53.958  34.409  54.834  0.00  0.00     0.008 A 
ATOM     14 BR   UNL d   1      55.198  33.988  55.409  0.00  0.00    -0.049 Br
ATOM     15  C   UNL d   1      53.811  30.105  53.595  0.00  0.00     0.021 A 
ATOM     16  C   UNL d   1      52.370  30.457  52.890  0.00  0.00     0.021 A 
ATOM     17  C   UNL d   1      52.712  29.701  52.876  0.00  0.00     0.002 A 
ATOM     18  C   UNL d   1      53.432  29.527  53.229  0.00  0.00     0.002 A 
ENDROOT
BRANCH   2  19
ATOM     19  C   UNL d   1      51.899  33.583  53.468  0.00  0.00     0.101 C 
BRANCH  19  20
ATOM     20  C   UNL d   1      51.975  34.038  52.763  0.00  0.00     0.100 C 
BRANCH  20  21
ATOM     21  N   UNL d   1      51.184  34.207  52.531  0.00  0.00    -0.298 N 
ATOM     22  C   UNL d   1      50.946  34.085  51.730  0.00  0.00     0.107 A 
ATOM     23  C   UNL d   1      50.162  34.252  51.499  0.00  0.00     0.142 A 
ATOM     24  O   UNL d   1      49.611  34.541  52.062  0.00  0.00    -0.300 OA
ATOM     25  C   UNL d   1      49.854  34.661  52.857  0.00  0.00     0.142 A 
ATOM     26  C   UNL d   1      50.642  34.493  53.091  0.00  0.00     0.107 A 
ENDBRANCH  20  21
ENDBRANCH  19  20
ENDBRANCH   2  19
TORSDOF 3
ENDMDL
MODEL 2
REMARK VINA RESULT:      -9.4      1.163      2.881
REMARK  3 active torsions:
REMARK  status: ('A' for Active; 'I' for Inactive)
REMARK    1  A    between atoms: C_8  and  N_2 
REMARK    2  A    between atoms: C_14  and  C_8 
REMARK    3  A    between atoms: N_13  and  C_14 
ROOT
ATOM      1  C   UNL d   1      52.995  33.036  53.868  0.00  0.00     0.166 A 
ATOM      2  N   UNL d   1      52.361  32.761  53.434  0.00  0.00    -0.288 N 
ATOM      3  C   UNL d   1      53.557  32.443  54.006  0.00  0.00     0.117 A 
ATOM      4  C   UNL d   1      53.259  31.795  53.650  0.00  0.00     0.037 A 
ATOM      5  C   UNL d   1      52.506  31.992  53.289  0.00  0.00     0.067 A 
ATOM      6  N   UNL d   1      53.150  33.754  54.165  0.00  0.00    -0.225 NA
ATOM      7  N   UNL d   1      54.258  32.563  54.432  0.00  0.00    -0.241 NA
ATOM      8  C   UNL d   1      53.856  33.872  54.593  0.00  0.00     0.101 A 
ATOM      9  C   UNL d   1      54.408  33.273  54.724  0.00  0.00     0.099 A 
ATOM     10  C   UNL d   1      52.072  31.444  52.887  0.00  0.00     0.018 A 
ATOM     11  C   UNL d   1      53.561  31.054  53.601  0.00  0.00     0.010 A 
ATOM     12  C   UNL d   1      53.136  30.504  53.202  0.00  0.00     0.035 A 
ATOM     13  C   UNL d   1      52.383  30.701  52.841  0.00  0.00     0.008 A 
ATOM     14 BR   UNL d   1      53.411  29.751  53.134  0.00  0.00    -0.049 Br
ATOM     15  C   UNL d   1      55.110  33.401  55.153  0.00  0.00     0.021 A 
ATOM     16  C   UNL d   1      54.005  34.587  54.886  0.00  0.00     0.021 A 
ATOM     17  C   UNL d   1      54.707  34.706  55.312  0.00  0.00     0.002 A 
ATOM     18  C   UNL d   1      55.259  34.112  55.444  0.00  0.00     0.002 A 
ENDROOT
BRANCH   2  19
ATOM     19  C   UNL d   1      51.673  33.185  53.176  0.00  0.00     0.101 C 
BRANCH  19  20
ATOM     20  C   UNL d   1      51.789  33.798  52.609  0.00  0.00     0.100 C 
BRANCH  20  21
ATOM     21  N   UNL d   1      51.015  34.081  52.439  0.00  0.00    -0.298 N 
ATOM     22  C   UNL d   1      50.715  34.034  51.650  0.00  0.00     0.107 A 
ATOM     23  C   UNL d   1      49.948  34.314  51.481  0.00  0.00     0.142 A 
ATOM     24  O   UNL d   1      49.475  34.641  52.091  0.00  0.00    -0.300 OA
ATOM     25  C   UNL d   1      49.780  34.684  52.874  0.00  0.00     0.142 A 
ATOM     26  C   UNL d   1      50.550  34.404  53.047  0.00  0.00     0.107 A 
ENDBRANCH  20  21
ENDBRANCH  19  20
ENDBRANCH   2  19
TORSDOF 3
ENDMDL
MODEL 3
REMARK VINA RESULT:      -8.8      1.531      3.764
REMARK  3 active torsions:
REMARK  status: ('A' for Active; 'I' for Inactive)
REMARK    1  A    between atoms: C_8  and  N_2 
REMARK    2  A    between atoms: C_14  and  C_8 
REMARK    3  A    between atoms: N_13  and  C_14 
ROOT
ATOM      1  C   UNL d   1      52.568  32.941  53.801  0.00  0.00     0.166 A 
ATOM      2  N   UNL d   1      53.118  32.422  54.108  0.00  0.00    -0.288 N 
ATOM      3  C   UNL d   1      52.786  33.731  53.924  0.00  0.00     0.117 A 
ATOM      4  C   UNL d   1      53.481  33.692  54.312  0.00  0.00     0.037 A 
ATOM      5  C   UNL d   1      53.692  32.869  54.430  0.00  0.00     0.067 A 
ATOM      6  N   UNL d   1      51.886  32.811  53.419  0.00  0.00    -0.225 NA
ATOM      7  N   UNL d   1      52.333  34.378  53.671  0.00  0.00    -0.241 NA
ATOM      8  C   UNL d   1      51.432  33.463  53.166  0.00  0.00     0.101 A 
ATOM      9  C   UNL d   1      51.660  34.246  53.294  0.00  0.00     0.099 A 
ATOM     10  C   UNL d   1      54.371  32.656  54.809  0.00  0.00     0.018 A 
ATOM     11  C   UNL d   1      53.953  34.283  54.577  0.00  0.00     0.010 A 
ATOM     12  C   UNL d   1      54.629  34.079  54.955  0.00  0.00     0.035 A 
ATOM     13  C   UNL d   1      54.841  33.256  55.072  0.00  0.00     0.008 A 
ATOM     14 BR   UNL d   1      55.125  34.649  55.233  0.00  0.00    -0.049 Br
ATOM     15  C   UNL d   1      51.199  34.890  53.038  0.00  0.00     0.021 A 
ATOM     16  C   UNL d   1      50.756  33.329  52.788  0.00  0.00     0.021 A 
ATOM     17  C   UNL d   1      50.303  33.977  52.536  0.00  0.00     0.002 A 
ATOM     18  C   UNL d   1      50.526  34.757  52.661  0.00  0.00     0.002 A 
ENDROOT
BRANCH   2  19
ATOM     19  C   UNL d   1      53.106  31.573  54.100  0.00  0.00     0.101 C 
BRANCH  19  20
ATOM     20  C   UNL d   1      53.499  31.189  53.461  0.00  0.00     0.100 C 
BRANCH  20  21
ATOM     21  N   UNL d   1      53.274  30.380  53.529  0.00  0.00    -0.298 N 
ATOM     22  C   UNL d   1      53.563  29.918  54.175  0.00  0.00     0.107 A 
ATOM     23  C   UNL d   1      53.341  29.117  54.243  0.00  0.00     0.142 A 
ATOM     24  O   UNL d   1      52.833  28.770  53.672  0.00  0.00    -0.300 OA
ATOM     25  C   UNL d   1      52.550  29.237  53.032  0.00  0.00     0.142 A 
ATOM     26  C   UNL d   1      52.772  30.042  52.961  0.00  0.00     0.107 A 
ENDBRANCH  20  21
ENDBRANCH  19  20
ENDBRANCH   2  19
TORSDOF 3
ENDMDL
MODEL 4
REMARK VINA RESULT:      -8.0      1.942      4.146
REMARK  3 active torsions:
REMARK  status: ('A' for Active; 'I' for Inactive)
REMARK    1  A    between atoms: C_8  and  N_2 
REMARK    2  A    between atoms: C_14  and  C_8 
REMARK    3  A    between atoms: N_13  and  C_14 
ROOT
ATOM      1  C   UNL d   1      52.998  32.930  53.993  0.00  0.00     0.166 A 
ATOM      2  N   UNL d   1      52.455  32.426  53.653  0.00  0.00    -0.288 N 
ATOM      3  C   UNL d   1      52.785  33.725  53.898  0.00  0.00     0.117 A 
ATOM      4  C   UNL d   1      52.099  33.704  53.492  0.00  0.00     0.037 A 
ATOM      5  C   UNL d   1      51.889  32.887  53.336  0.00  0.00     0.067 A 
ATOM      6  N   UNL d   1      53.671  32.783  54.385  0.00  0.00    -0.225 NA
ATOM      7  N   UNL d   1      53.233  34.360  54.187  0.00  0.00    -0.241 NA
ATOM      8  C   UNL d   1      54.119  33.423  54.675  0.00  0.00     0.101 A 
ATOM      9  C   UNL d   1      53.897  34.211  54.574  0.00  0.00     0.099 A 
ATOM     10  C   UNL d   1      51.218  32.691  52.932  0.00  0.00     0.018 A 
ATOM     11  C   UNL d   1      51.635  34.307  53.240  0.00  0.00     0.010 A 
ATOM     12  C   UNL d   1      50.967  34.120  52.838  0.00  0.00     0.035 A 
ATOM     13  C   UNL d   1      50.756  33.303  52.682  0.00  0.00     0.008 A 
ATOM     14 BR   UNL d   1      50.479  34.702  52.572  0.00  0.00    -0.049 Br
ATOM     15  C   UNL d   1      54.352  34.843  54.867  0.00  0.00     0.021 A 
ATOM     16  C   UNL d   1      54.787  33.271  55.064  0.00  0.00     0.021 A 
ATOM     17  C   UNL d   1      55.234  33.907  55.353  0.00  0.00     0.002 A 
ATOM     18  C   UNL d   1      55.016  34.693  55.254  0.00  0.00     0.002 A 
ENDROOT
BRANCH   2  19
ATOM     19  C   UNL d   1      52.465  31.577  53.626  0.00  0.00     0.101 C 
BRANCH  19  20
ATOM     20  C   UNL d   1      53.035  31.215  53.122  0.00  0.00     0.100 C 
BRANCH  20  21
ATOM     21  N   UNL d   1      52.987  30.394  53.302  0.00  0.00    -0.298 N 
ATOM     22  C   UNL d   1      53.467  30.071  53.917  0.00  0.00     0.107 A 
ATOM     23  C   UNL d   1      53.421  29.258  54.097  0.00  0.00     0.142 A 
ATOM     24  O   UNL d   1      52.898  28.761  53.667  0.00  0.00    -0.300 OA
ATOM     25  C   UNL d   1      52.423  29.090  53.056  0.00  0.00     0.142 A 
ATOM     26  C   UNL d   1      52.468  29.907  52.874  0.00  0.00     0.107 A 
ENDBRANCH  20  21
ENDBRANCH  19  20
ENDBRANCH   2  19
TORSDOF 3
ENDMDL
MODEL 5
REMARK VINA RESULT:      -7.6      9.672     10.484
REMARK  3 active torsions:
REMARK  status: ('A' for Active; 'I' for Inactive)
REMARK    1  A    between atoms: C_8  and  N_2 
REMARK    2  A    between atoms: C_14  and  C_8 
REMARK    3  A    between atoms: N_13  and  C_14 
ROOT
ATOM      1  C   UNL d   1      44.772  29.412  58.579  0.00  0.00     0.166 A 
ATOM      2  N   UNL d   1      44.582  30.089  58.994  0.00  0.00    -0.288 N 
ATOM      3  C   UNL d   1      44.830  29.555  57.765  0.00  0.00     0.117 A 
ATOM      4  C   UNL d   1      44.672  30.332  57.683  0.00  0.00     0.037 A 
ATOM      5  C   UNL d   1      44.515  30.671  58.456  0.00  0.00     0.067 A 
ATOM      6  N   UNL d   1      44.905  28.671  58.824  0.00  0.00    -0.225 NA
ATOM      7  N   UNL d   1      45.016  28.971  57.207  0.00  0.00    -0.241 NA
ATOM      8  C   UNL d   1      45.091  28.085  58.261  0.00  0.00     0.101 A 
ATOM      9  C   UNL d   1      45.146  28.239  57.453  0.00  0.00     0.099 A 
ATOM     10  C   UNL d   1      44.338  31.452  58.549  0.00  0.00     0.018 A 
ATOM     11  C   UNL d   1      44.647  30.783  57.021  0.00  0.00     0.010 A 
ATOM     12  C   UNL d   1      44.471  31.560  57.105  0.00  0.00     0.035 A 
ATOM     13  C   UNL d   1      44.315  31.899  57.877  0.00  0.00     0.008 A 
ATOM     14 BR   UNL d   1      44.439  32.040  56.459  0.00  0.00    -0.049 Br
ATOM     15  C   UNL d   1      45.333  27.647  56.899  0.00  0.00     0.021 A 
ATOM     16  C   UNL d   1      45.222  27.350  58.510  0.00  0.00     0.021 A 
ATOM     17  C   UNL d   1      45.408  26.766  57.951  0.00  0.00     0.002 A 
ATOM     18  C   UNL d   1      45.463  26.916  57.145  0.00  0.00     0.002 A 
ENDROOT
BRANCH   2  19
ATOM     19  C   UNL d   1      44.471  30.182  59.831  0.00  0.00     0.101 C 
BRANCH  19  20
ATOM     20  C   UNL d   1      45.160  30.319  60.297  0.00  0.00     0.100 C 
BRANCH  20  21
ATOM     21  N   UNL d   1      44.877  30.353  61.089  0.00  0.00    -0.298 N 
ATOM     22  C   UNL d   1      44.812  29.643  61.543  0.00  0.00     0.107 A 
ATOM     23  C   UNL d   1      44.532  29.676  62.328  0.00  0.00     0.142 A 
ATOM     24  O   UNL d   1      44.315  30.412  62.666  0.00  0.00    -0.300 OA
ATOM     25  C   UNL d   1      44.383  31.115  62.209  0.00  0.00     0.142 A 
ATOM     26  C   UNL d   1      44.664  31.084  61.420  0.00  0.00     0.107 A 
ENDBRANCH  20  21
ENDBRANCH  19  20
ENDBRANCH   2  19
TORSDOF 3
ENDMDL
MODEL 6
REMARK VINA RESULT:      -7.5      9.757     10.847
REMARK  3 active torsions:
REMARK  status: ('A' for Active; 'I' for Inactive)
REMARK    1  A    between atoms: C_8  and  N_2 
REMARK    2  A    between atoms: C_14  and  C_8 
REMARK    3  A    between atoms: N_13  and  C_14 
ROOT
ATOM      1  C   UNL d   1      44.613  29.702  59.192  0.00  0.00     0.166 A 
ATOM      2  N   UNL d   1      44.622  29.381  58.441  0.00  0.00    -0.288 N 
ATOM      3  C   UNL d   1      44.589  30.530  59.173  0.00  0.00     0.117 A 
ATOM      4  C   UNL d   1      44.583  30.716  58.398  0.00  0.00     0.037 A 
ATOM      5  C   UNL d   1      44.604  29.994  57.934  0.00  0.00     0.067 A 
ATOM      6  N   UNL d   1      44.623  29.358  59.905  0.00  0.00    -0.225 NA
ATOM      7  N   UNL d   1      44.575  31.004  59.853  0.00  0.00    -0.241 NA
ATOM      8  C   UNL d   1      44.610  29.837  60.586  0.00  0.00     0.101 A 
ATOM      9  C   UNL d   1      44.586  30.661  60.556  0.00  0.00     0.099 A 
ATOM     10  C   UNL d   1      44.603  30.008  57.128  0.00  0.00     0.018 A 
ATOM     11  C   UNL d   1      44.562  31.435  58.045  0.00  0.00     0.010 A 
ATOM     12  C   UNL d   1      44.561  31.457  57.244  0.00  0.00     0.035 A 
ATOM     13  C   UNL d   1      44.582  30.736  56.780  0.00  0.00     0.008 A 
ATOM     14 BR   UNL d   1      44.540  32.163  56.858  0.00  0.00    -0.049 Br
ATOM     15  C   UNL d   1      44.572  31.131  61.243  0.00  0.00     0.021 A 
ATOM     16  C   UNL d   1      44.620  29.491  61.293  0.00  0.00     0.021 A 
ATOM     17  C   UNL d   1      44.607  29.967  61.972  0.00  0.00     0.002 A 
ATOM     18  C   UNL d   1      44.583  30.787  61.945  0.00  0.00     0.002 A 
ENDROOT
BRANCH   2  19
ATOM     19  C   UNL d   1      44.645  28.563  58.216  0.00  0.00     0.101 C 
BRANCH  19  20
ATOM     20  C   UNL d   1      45.402  28.193  58.187  0.00  0.00     0.100 C 
BRANCH  20  21
ATOM     21  N   UNL d   1      45.241  27.393  57.981  0.00  0.00    -0.298 N 
ATOM     22  C   UNL d   1      45.078  26.828  58.588  0.00  0.00     0.107 A 
ATOM     23  C   UNL d   1      44.918  26.035  58.385  0.00  0.00     0.142 A 
ATOM     24  O   UNL d   1      44.919  25.799  57.581  0.00  0.00    -0.300 OA
ATOM     25  C   UNL d   1      45.082  26.366  56.982  0.00  0.00     0.142 A 
ATOM     26  C   UNL d   1      45.243  27.163  57.183  0.00  0.00     0.107 A 
ENDBRANCH  20  21
ENDBRANCH  19  20
ENDBRANCH   2  19
TORSDOF 3
ENDMDL
