MODEL 1
REMARK VINA RESULT:      30.4      0.000      0.000
REMARK  2 active torsions:
REMARK  status: ('A' for Active; 'I' for Inactive)
REMARK    1  A    between atoms: C_11  and  N_1 
REMARK    2  A    between atoms: C_15  and  C_11 
ROOT
ATOM      1  N   UNL d   1      14.772  12.715  -0.800  0.00  0.00    -0.244 N 
ATOM      2  C   UNL d   1      14.353  13.375  -0.527  0.00  0.00     0.246 A 
ATOM      3  C   UNL d   1      14.893  13.989  -0.383  0.00  0.00     0.095 A 
ATOM      4  C   UNL d   1      15.580  12.920  -0.826  0.00  0.00     0.260 A 
ATOM      5  C   UNL d   1      15.654  13.706  -0.568  0.00  0.00     0.024 A 
ATOM      6  C   UNL d   1      14.796  14.756  -0.111  0.00  0.00     0.034 A 
ATOM      7  C   UNL d   1      16.306  14.195  -0.479  0.00  0.00     0.045 A 
ATOM      8  C   UNL d   1      15.448  15.246  -0.022  0.00  0.00    -0.030 A 
ATOM      9  C   UNL d   1      16.202  14.966  -0.206  0.00  0.00    -0.027 A 
ATOM     10  C   UNL d   1      15.444  14.296  -0.344  0.00  0.00     0.014 A 
ATOM     11  O   UNL d   1      13.530  13.421  -0.415  0.00  0.00    -0.271 OA
ATOM     12  O   UNL d   1      16.203  12.428  -1.066  0.00  0.00    -0.267 OA
ATOM     13  C   UNL d   1      14.075  14.068  -0.260  0.00  0.00     0.014 C 
ENDROOT
BRANCH   1  14
ATOM     14  C   UNL d   1      14.446  11.988  -1.008  0.00  0.00     0.086 C 
BRANCH  14  15
ATOM     15  C   UNL d   1      14.015  11.918  -1.704  0.00  0.00     0.018 A 
ATOM     16  C   UNL d   1      13.201  11.854  -1.676  0.00  0.00     0.002 A 
ATOM     17  C   UNL d   1      12.770  11.784  -2.371  0.00  0.00     0.000 A 
ATOM     18  C   UNL d   1      13.162  11.779  -3.103  0.00  0.00     0.000 A 
ATOM     19  C   UNL d   1      13.984  11.845  -3.127  0.00  0.00     0.000 A 
ATOM     20  C   UNL d   1      14.407  11.914  -2.427  0.00  0.00     0.002 A 
ENDBRANCH  14  15
ENDBRANCH   1  14
TORSDOF 2
ENDMDL
