MODEL 1
REMARK VINA RESULT:      24.1      0.000      0.000
REMARK  2 active torsions:
REMARK  status: ('A' for Active; 'I' for Inactive)
REMARK    1  A    between atoms: C_10  and  N_3 
REMARK    2  A    between atoms: C_15  and  C_10 
ROOT
ATOM      1  C   UNL d   1     -51.584  25.307  33.312  0.00  0.00     0.166 A 
ATOM      2  C   UNL d   1     -51.171  24.591  33.310  0.00  0.00     0.117 A 
ATOM      3  N   UNL d   1     -51.018  25.899  33.312  0.00  0.00    -0.289 N 
ATOM      4  N   UNL d   1     -52.413  25.318  33.313  0.00  0.00    -0.225 NA
ATOM      5  N   UNL d   1     -51.613  23.897  33.309  0.00  0.00    -0.241 NA
ATOM      6  C   UNL d   1     -50.378  24.751  33.309  0.00  0.00     0.037 A 
ATOM      7  C   UNL d   1     -50.282  25.571  33.310  0.00  0.00     0.067 A 
ATOM      8  C   UNL d   1     -52.829  24.623  33.313  0.00  0.00     0.101 A 
ATOM      9  C   UNL d   1     -52.416  23.907  33.311  0.00  0.00     0.099 A 
ATOM     10  C   UNL d   1     -49.717  24.258  33.306  0.00  0.00     0.003 A 
ATOM     11  C   UNL d   1     -49.526  25.892  33.309  0.00  0.00     0.018 A 
ATOM     12  C   UNL d   1     -52.829  23.209  33.311  0.00  0.00     0.021 A 
ATOM     13  C   UNL d   1     -53.628  24.631  33.314  0.00  0.00     0.021 A 
ATOM     14  C   UNL d   1     -48.959  24.585  33.306  0.00  0.00     0.000 A 
ATOM     15  C   UNL d   1     -48.863  25.404  33.307  0.00  0.00     0.002 A 
ATOM     16  C   UNL d   1     -54.048  23.906  33.314  0.00  0.00     0.002 A 
ATOM     17  C   UNL d   1     -53.661  23.196  33.312  0.00  0.00     0.002 A 
ENDROOT
BRANCH   3  18
ATOM     18  C   UNL d   1     -51.174  26.696  33.313  0.00  0.00     0.082 C 
BRANCH  18  19
ATOM     19  C   UNL d   1     -50.562  27.221  33.538  0.00  0.00     0.019 C 
ATOM     20  C   UNL d   1     -50.701  28.010  33.576  0.00  0.00     0.002 C 
ENDBRANCH  18  19
ENDBRANCH   3  18
TORSDOF 2
ENDMDL
