MODEL 1
REMARK VINA RESULT:      49.7      0.000      0.000
REMARK  3 active torsions:
REMARK  status: ('A' for Active; 'I' for Inactive)
REMARK    1  A    between atoms: C_8  and  C_1 
REMARK    2  A    between atoms: N_5  and  C_2 
REMARK       I    between atoms: C_7  and  N_5 
REMARK    3  A    between atoms: C_9  and  C_7 
ROOT
ATOM      1  C   UNL d   1     -48.919  27.180  34.251  0.00  0.00     0.229 A 
ATOM      2  C   UNL d   1     -49.819  26.303  33.807  0.00  0.00     0.297 A 
ATOM      3  O   UNL d   1     -49.683  26.886  34.371  0.00  0.00    -0.252 OA
ATOM      4  N   UNL d   1     -48.595  26.778  33.618  0.00  0.00    -0.117 NA
ATOM      5  N   UNL d   1     -49.150  26.236  33.343  0.00  0.00    -0.101 NA
ENDROOT
BRANCH   2   6
ATOM      6  N   UNL d   1     -50.515  25.868  33.731  0.00  0.00    -0.165 NA
ATOM      7  C   UNL d   1     -50.486  25.058  33.645  0.00  0.00     0.282 C 
ATOM      8  O   UNL d   1     -49.760  24.659  33.633  0.00  0.00    -0.265 OA
BRANCH   7   9
ATOM      9  C   UNL d   1     -51.181  24.624  33.569  0.00  0.00     0.058 A 
ATOM     10  C   UNL d   1     -51.140  23.823  33.384  0.00  0.00     0.005 A 
ATOM     11  C   UNL d   1     -51.834  23.378  33.306  0.00  0.00     0.000 A 
ATOM     12  C   UNL d   1     -52.569  23.743  33.415  0.00  0.00     0.000 A 
ATOM     13  C   UNL d   1     -52.604  24.548  33.601  0.00  0.00     0.000 A 
ATOM     14  C   UNL d   1     -53.269  23.318  33.341  0.00  0.00     0.000 C 
ATOM     15  C   UNL d   1     -51.910  24.990  33.679  0.00  0.00     0.005 A 
ENDBRANCH   7   9
ENDBRANCH   2   6
BRANCH   1  16
ATOM     16  C   UNL d   1     -48.557  27.775  34.698  0.00  0.00     0.143 A 
ATOM     17  O   UNL d   1     -48.161  28.429  34.403  0.00  0.00    -0.301 OA
ATOM     18  C   UNL d   1     -47.891  28.872  35.041  0.00  0.00     0.123 A 
ATOM     19  C   UNL d   1     -48.122  28.490  35.737  0.00  0.00     0.029 A 
ATOM     20  C   UNL d   1     -48.533  27.812  35.527  0.00  0.00     0.030 A 
ENDBRANCH   1  16
TORSDOF 3
ENDMDL
MODEL 2
REMARK VINA RESULT:      51.7      1.229      5.220
REMARK  3 active torsions:
REMARK  status: ('A' for Active; 'I' for Inactive)
REMARK    1  A    between atoms: C_8  and  C_1 
REMARK    2  A    between atoms: N_5  and  C_2 
REMARK       I    between atoms: C_7  and  N_5 
REMARK    3  A    between atoms: C_9  and  C_7 
ROOT
ATOM      1  C   UNL d   1     -50.306  26.555  33.544  0.00  0.00     0.229 A 
ATOM      2  C   UNL d   1     -49.346  27.420  33.873  0.00  0.00     0.297 A 
ATOM      3  O   UNL d   1     -50.158  27.288  33.898  0.00  0.00    -0.252 OA
ATOM      4  N   UNL d   1     -49.588  26.245  33.306  0.00  0.00    -0.117 NA
ATOM      5  N   UNL d   1     -48.995  26.779  33.510  0.00  0.00    -0.101 NA
ENDROOT
BRANCH   2   6
ATOM      6  N   UNL d   1     -48.964  28.087  34.168  0.00  0.00    -0.165 NA
ATOM      7  C   UNL d   1     -48.614  28.070  34.904  0.00  0.00     0.282 C 
ATOM      8  O   UNL d   1     -48.636  27.384  35.367  0.00  0.00    -0.265 OA
BRANCH   7   9
ATOM      9  C   UNL d   1     -48.232  28.737  35.197  0.00  0.00     0.058 A 
ATOM     10  C   UNL d   1     -48.255  28.894  36.006  0.00  0.00     0.005 A 
ATOM     11  C   UNL d   1     -47.874  29.563  36.310  0.00  0.00     0.000 A 
ATOM     12  C   UNL d   1     -47.470  30.073  35.798  0.00  0.00     0.000 A 
ATOM     13  C   UNL d   1     -47.451  29.911  34.988  0.00  0.00     0.000 A 
ATOM     14  C   UNL d   1     -47.086  30.743  36.082  0.00  0.00     0.000 C 
ATOM     15  C   UNL d   1     -47.832  29.243  34.686  0.00  0.00     0.005 A 
ENDBRANCH   7   9
ENDBRANCH   2   6
BRANCH   1  16
ATOM     16  C   UNL d   1     -51.051  26.207  33.451  0.00  0.00     0.143 A 
ATOM     17  O   UNL d   1     -51.766  26.603  33.391  0.00  0.00    -0.301 OA
ATOM     18  C   UNL d   1     -52.361  26.042  33.306  0.00  0.00     0.123 A 
ATOM     19  C   UNL d   1     -52.012  25.292  33.314  0.00  0.00     0.029 A 
ATOM     20  C   UNL d   1     -51.203  25.392  33.404  0.00  0.00     0.030 A 
ENDBRANCH   1  16
TORSDOF 3
ENDMDL
