MODEL 1
REMARK VINA RESULT:      15.1      0.000      0.000
REMARK  3 active torsions:
REMARK  status: ('A' for Active; 'I' for Inactive)
REMARK    1  A    between atoms: N_2  and  S_1 
REMARK    2  A    between atoms: C_3  and  S_1 
REMARK    3  A    between atoms: C_11  and  C_6 
ROOT
ATOM      1  C   UNL d   1      45.945 -17.227  43.937  0.00  0.00     0.104 A 
ATOM      2  C   UNL d   1      45.592 -15.669  44.388  0.00  0.00     0.000 A 
ATOM      3  C   UNL d   1      45.821 -17.043  44.731  0.00  0.00     0.013 A 
ATOM      4  C   UNL d   1      45.893 -16.633  43.369  0.00  0.00     0.013 A 
ATOM      5  C   UNL d   1      45.717 -15.856  43.593  0.00  0.00     0.001 A 
ATOM      6  C   UNL d   1      45.645 -16.267  44.955  0.00  0.00     0.001 A 
ENDROOT
BRANCH   1   7
ATOM      7  S   UNL d   1      46.120 -18.000  43.714  0.00  0.00     0.271 S 
ATOM      8  O   UNL d   1      45.966 -17.808  42.929  0.00  0.00    -0.200 OA
ATOM      9  O   UNL d   1      46.276 -18.194  44.508  0.00  0.00    -0.200 OA
BRANCH   7  10
ATOM     10  N   UNL d   1      46.295 -18.774  43.490  0.00  0.00    -0.229 N 
ATOM     11  C   UNL d   1      46.360 -19.353  44.052  0.00  0.00     0.092 A 
ATOM     12  C   UNL d   1      46.539 -20.144  43.823  0.00  0.00     0.020 A 
ATOM     13  C   UNL d   1      46.647 -20.330  43.040  0.00  0.00     0.003 A 
ATOM     14  C   UNL d   1      46.578 -19.733  42.470  0.00  0.00     0.020 A 
ATOM     15  C   UNL d   1      46.408 -18.978  42.688  0.00  0.00     0.092 A 
ENDBRANCH   7  10
ENDBRANCH   1   7
BRANCH   2  16
ATOM     16  C   UNL d   1      45.418 -14.899  44.610  0.00  0.00     0.000 C 
ATOM     17  C   UNL d   1      45.980 -14.309  44.513  0.00  0.00     0.000 C 
ATOM     18  C   UNL d   1      44.681 -14.715  44.931  0.00  0.00     0.000 C 
ENDBRANCH   2  16
TORSDOF 3
ENDMDL
MODEL 2
REMARK VINA RESULT:      16.3      2.190      4.565
REMARK  3 active torsions:
REMARK  status: ('A' for Active; 'I' for Inactive)
REMARK    1  A    between atoms: N_2  and  S_1 
REMARK    2  A    between atoms: C_3  and  S_1 
REMARK    3  A    between atoms: C_11  and  C_6 
ROOT
ATOM      1  C   UNL d   1      45.779 -15.369  44.258  0.00  0.00     0.104 A 
ATOM      2  C   UNL d   1      45.937 -17.021  44.212  0.00  0.00     0.000 A 
ATOM      3  C   UNL d   1      45.752 -15.808  44.955  0.00  0.00     0.013 A 
ATOM      4  C   UNL d   1      45.885 -15.756  43.538  0.00  0.00     0.013 A 
ATOM      5  C   UNL d   1      45.963 -16.579  43.515  0.00  0.00     0.001 A 
ATOM      6  C   UNL d   1      45.831 -16.631  44.932  0.00  0.00     0.001 A 
ENDROOT
BRANCH   1   7
ATOM      7  S   UNL d   1      45.701 -14.550  44.281  0.00  0.00     0.271 S 
ATOM      8  O   UNL d   1      46.506 -14.469  44.136  0.00  0.00    -0.200 OA
ATOM      9  O   UNL d   1      44.885 -14.632  44.427  0.00  0.00    -0.200 OA
BRANCH   7  10
ATOM     10  N   UNL d   1      45.623 -13.729  44.303  0.00  0.00    -0.229 N 
ATOM     11  C   UNL d   1      45.950 -13.309  44.912  0.00  0.00     0.092 A 
ATOM     12  C   UNL d   1      45.870 -12.470  44.935  0.00  0.00     0.020 A 
ATOM     13  C   UNL d   1      45.466 -12.080  44.349  0.00  0.00     0.003 A 
ATOM     14  C   UNL d   1      45.133 -12.517  43.729  0.00  0.00     0.020 A 
ATOM     15  C   UNL d   1      45.209 -13.317  43.707  0.00  0.00     0.092 A 
ENDBRANCH   7  10
ENDBRANCH   1   7
BRANCH   2  16
ATOM     16  C   UNL d   1      46.014 -17.837  44.190  0.00  0.00     0.000 C 
ATOM     17  C   UNL d   1      45.958 -18.233  43.473  0.00  0.00     0.000 C 
ATOM     18  C   UNL d   1      46.149 -18.262  44.884  0.00  0.00     0.000 C 
ENDBRANCH   2  16
TORSDOF 3
ENDMDL
MODEL 3
REMARK VINA RESULT:      17.8      1.469      2.253
REMARK  3 active torsions:
REMARK  status: ('A' for Active; 'I' for Inactive)
REMARK    1  A    between atoms: N_2  and  S_1 
REMARK    2  A    between atoms: C_3  and  S_1 
REMARK    3  A    between atoms: C_11  and  C_6 
ROOT
ATOM      1  C   UNL d   1      45.744 -15.145  44.277  0.00  0.00     0.104 A 
ATOM      2  C   UNL d   1      45.579 -13.493  44.295  0.00  0.00     0.000 A 
ATOM      3  C   UNL d   1      45.139 -14.793  44.712  0.00  0.00     0.013 A 
ATOM      4  C   UNL d   1      46.267 -14.671  43.851  0.00  0.00     0.013 A 
ATOM      5  C   UNL d   1      46.184 -13.848  43.860  0.00  0.00     0.001 A 
ATOM      6  C   UNL d   1      45.057 -13.971  44.721  0.00  0.00     0.001 A 
ENDROOT
BRANCH   1   7
ATOM      7  S   UNL d   1      45.826 -15.964  44.268  0.00  0.00     0.271 S 
ATOM      8  O   UNL d   1      45.167 -16.024  43.780  0.00  0.00    -0.200 OA
ATOM      9  O   UNL d   1      46.494 -15.903  44.762  0.00  0.00    -0.200 OA
BRANCH   7  10
ATOM     10  N   UNL d   1      45.908 -16.785  44.259  0.00  0.00    -0.229 N 
ATOM     11  C   UNL d   1      45.945 -17.195  44.955  0.00  0.00     0.092 A 
ATOM     12  C   UNL d   1      46.029 -18.034  44.946  0.00  0.00     0.020 A 
ATOM     13  C   UNL d   1      46.073 -18.433  44.240  0.00  0.00     0.003 A 
ATOM     14  C   UNL d   1      46.035 -18.007  43.531  0.00  0.00     0.020 A 
ATOM     15  C   UNL d   1      45.955 -17.207  43.540  0.00  0.00     0.092 A 
ENDBRANCH   7  10
ENDBRANCH   1   7
BRANCH   2  16
ATOM     16  C   UNL d   1      45.497 -12.678  44.304  0.00  0.00     0.000 C 
ATOM     17  C   UNL d   1      45.157 -12.293  43.663  0.00  0.00     0.000 C 
ATOM     18  C   UNL d   1      45.755 -12.240  44.955  0.00  0.00     0.000 C 
ENDBRANCH   2  16
TORSDOF 3
ENDMDL
