MODEL 1
REMARK VINA RESULT:      -5.7      0.000      0.000
REMARK  2 active torsions:
REMARK  status: ('A' for Active; 'I' for Inactive)
REMARK    1  A    between atoms: C_6  and  N_2 
REMARK    2  A    between atoms: C_4  and  C_6 
ROOT
ATOM      1  C   UNL d   1     -46.737  12.992  23.193  0.00  0.00     0.206 A 
ATOM      2  N   UNL d   1     -47.450  12.588  23.131  0.00  0.00    -0.277 N 
ATOM      3  N   UNL d   1     -46.188  12.481  23.546  0.00  0.00    -0.215 NA
ATOM      4  C   UNL d   1     -46.571  11.762  23.698  0.00  0.00     0.120 A 
ATOM      5  C   UNL d   1     -47.352  11.828  23.441  0.00  0.00     0.103 A 
ATOM      6  S   UNL d   1     -46.592  13.767  22.950  0.00  0.00    -0.038 SA
ENDROOT
BRANCH   2   7
ATOM      7  C   UNL d   1     -48.151  12.889  22.811  0.00  0.00     0.107 C 
BRANCH   7   8
ATOM      8  C   UNL d   1     -48.875  12.539  22.999  0.00  0.00     0.118 A 
ATOM      9  O   UNL d   1     -49.307  12.655  23.698  0.00  0.00    -0.304 OA
ATOM     10  C   UNL d   1     -49.989  12.201  23.652  0.00  0.00     0.123 A 
ATOM     11  C   UNL d   1     -49.985  11.802  22.929  0.00  0.00     0.029 A 
ATOM     12  C   UNL d   1     -49.296  12.013  22.529  0.00  0.00     0.028 A 
ENDBRANCH   7   8
ENDBRANCH   2   7
TORSDOF 2
ENDMDL
MODEL 2
REMARK VINA RESULT:      -5.7      1.536      1.993
REMARK  2 active torsions:
REMARK  status: ('A' for Active; 'I' for Inactive)
REMARK    1  A    between atoms: C_6  and  N_2 
REMARK    2  A    between atoms: C_4  and  C_6 
ROOT
ATOM      1  C   UNL d   1     -46.969  12.708  23.387  0.00  0.00     0.206 A 
ATOM      2  N   UNL d   1     -47.405  13.323  23.060  0.00  0.00    -0.277 N 
ATOM      3  N   UNL d   1     -46.181  12.960  23.442  0.00  0.00    -0.215 NA
ATOM      4  C   UNL d   1     -46.139  13.733  23.145  0.00  0.00     0.120 A 
ATOM      5  C   UNL d   1     -46.897  13.958  22.908  0.00  0.00     0.103 A 
ATOM      6  S   UNL d   1     -47.260  11.973  23.621  0.00  0.00    -0.038 SA
ENDROOT
BRANCH   2   7
ATOM      7  C   UNL d   1     -48.218  13.312  22.906  0.00  0.00     0.107 C 
BRANCH   7   8
ATOM      8  C   UNL d   1     -48.633  14.021  22.825  0.00  0.00     0.118 A 
ATOM      9  O   UNL d   1     -48.902  14.503  23.444  0.00  0.00    -0.304 OA
ATOM     10  C   UNL d   1     -49.284  15.149  23.113  0.00  0.00     0.123 A 
ATOM     11  C   UNL d   1     -49.256  15.073  22.292  0.00  0.00     0.029 A 
ATOM     12  C   UNL d   1     -48.853  14.376  22.117  0.00  0.00     0.028 A 
ENDBRANCH   7   8
ENDBRANCH   2   7
TORSDOF 2
ENDMDL
MODEL 3
REMARK VINA RESULT:      -5.6      1.709      2.788
REMARK  2 active torsions:
REMARK  status: ('A' for Active; 'I' for Inactive)
REMARK    1  A    between atoms: C_6  and  N_2 
REMARK    2  A    between atoms: C_4  and  C_6 
ROOT
ATOM      1  C   UNL d   1     -49.060  11.990  22.705  0.00  0.00     0.206 A 
ATOM      2  N   UNL d   1     -48.355  12.397  22.821  0.00  0.00    -0.277 N 
ATOM      3  N   UNL d   1     -49.082  11.364  23.248  0.00  0.00    -0.215 NA
ATOM      4  C   UNL d   1     -48.385  11.393  23.697  0.00  0.00     0.120 A 
ATOM      5  C   UNL d   1     -47.935  12.032  23.433  0.00  0.00     0.103 A 
ATOM      6  S   UNL d   1     -49.642  12.170  22.149  0.00  0.00    -0.038 SA
ENDROOT
BRANCH   2   7
ATOM      7  C   UNL d   1     -48.105  13.063  22.398  0.00  0.00     0.107 C 
BRANCH   7   8
ATOM      8  C   UNL d   1     -47.339  13.354  22.501  0.00  0.00     0.118 A 
ATOM      9  O   UNL d   1     -46.646  13.035  22.175  0.00  0.00    -0.304 OA
ATOM     10  C   UNL d   1     -46.015  13.498  22.421  0.00  0.00     0.123 A 
ATOM     11  C   UNL d   1     -46.310  14.103  22.899  0.00  0.00     0.029 A 
ATOM     12  C   UNL d   1     -47.127  14.012  22.946  0.00  0.00     0.028 A 
ENDBRANCH   7   8
ENDBRANCH   2   7
TORSDOF 2
ENDMDL
MODEL 4
REMARK VINA RESULT:      -5.5      2.030      3.079
REMARK  2 active torsions:
REMARK  status: ('A' for Active; 'I' for Inactive)
REMARK    1  A    between atoms: C_6  and  N_2 
REMARK    2  A    between atoms: C_4  and  C_6 
ROOT
ATOM      1  C   UNL d   1     -49.236  14.443  22.363  0.00  0.00     0.206 A 
ATOM      2  N   UNL d   1     -48.508  14.063  22.359  0.00  0.00    -0.277 N 
ATOM      3  N   UNL d   1     -49.718  14.069  21.801  0.00  0.00    -0.215 NA
ATOM      4  C   UNL d   1     -49.278  13.458  21.454  0.00  0.00     0.120 A 
ATOM      5  C   UNL d   1     -48.528  13.455  21.800  0.00  0.00     0.103 A 
ATOM      6  S   UNL d   1     -49.453  15.081  22.839  0.00  0.00    -0.038 SA
ENDROOT
BRANCH   2   7
ATOM      7  C   UNL d   1     -47.859  14.256  22.835  0.00  0.00     0.107 C 
BRANCH   7   8
ATOM      8  C   UNL d   1     -47.240  13.717  22.928  0.00  0.00     0.118 A 
ATOM      9  O   UNL d   1     -47.259  13.024  23.384  0.00  0.00    -0.304 OA
ATOM     10  C   UNL d   1     -46.527  12.658  23.317  0.00  0.00     0.123 A 
ATOM     11  C   UNL d   1     -46.053  13.118  22.822  0.00  0.00     0.029 A 
ATOM     12  C   UNL d   1     -46.495  13.770  22.584  0.00  0.00     0.028 A 
ENDBRANCH   7   8
ENDBRANCH   2   7
TORSDOF 2
ENDMDL
