MODEL 1
REMARK VINA RESULT:     -10.8      0.000      0.000
REMARK  1 active torsions:
REMARK  status: ('A' for Active; 'I' for Inactive)
REMARK    1  A    between atoms: C_7  and  C_4 
ROOT
ATOM      1  N   UNL d   1      53.934  32.324  54.263  0.00  0.00    -0.211 NA
ATOM      2  C   UNL d   1      54.020  33.126  54.477  0.00  0.00     0.140 A 
ATOM      3  C   UNL d   1      53.475  33.681  54.202  0.00  0.00     0.051 A 
ATOM      4  C   UNL d   1      53.298  32.095  53.776  0.00  0.00     0.183 A 
ATOM      5  C   UNL d   1      52.844  33.449  53.717  0.00  0.00     0.104 A 
ATOM      6  O   UNL d   1      52.759  32.656  53.507  0.00  0.00    -0.289 OA
ATOM      7  S   UNL d   1      54.646  33.361  54.959  0.00  0.00    -0.057 SA
ATOM      8  C   UNL d   1      53.557  34.485  54.413  0.00  0.00     0.004 A 
ATOM      9  C   UNL d   1      52.307  34.002  53.448  0.00  0.00     0.025 A 
ATOM     10  C   UNL d   1      53.009  35.040  54.137  0.00  0.00     0.000 A 
ATOM     11  C   UNL d   1      52.388  34.797  53.657  0.00  0.00     0.002 A 
ENDROOT
BRANCH   4  12
ATOM     12  C   UNL d   1      53.217  31.305  53.568  0.00  0.00     0.041 A 
ATOM     13  C   UNL d   1      53.335  30.715  54.125  0.00  0.00     0.004 A 
ATOM     14  C   UNL d   1      53.251  29.926  53.907  0.00  0.00     0.000 A 
ATOM     15  C   UNL d   1      53.370  29.332  54.470  0.00  0.00     0.000 C 
ATOM     16  C   UNL d   1      53.050  29.724  53.134  0.00  0.00     0.000 A 
ATOM     17  C   UNL d   1      52.932  30.321  52.575  0.00  0.00     0.000 A 
ATOM     18  C   UNL d   1      53.015  31.114  52.791  0.00  0.00     0.004 A 
ENDBRANCH   4  12
TORSDOF 1
ENDMDL
MODEL 2
REMARK VINA RESULT:     -10.4      1.723      3.294
REMARK  1 active torsions:
REMARK  status: ('A' for Active; 'I' for Inactive)
REMARK    1  A    between atoms: C_7  and  C_4 
ROOT
ATOM      1  N   UNL d   1      52.626  32.755  53.236  0.00  0.00    -0.211 NA
ATOM      2  C   UNL d   1      53.258  32.453  53.688  0.00  0.00     0.140 A 
ATOM      3  C   UNL d   1      53.655  32.948  54.214  0.00  0.00     0.051 A 
ATOM      4  C   UNL d   1      52.404  33.553  53.322  0.00  0.00     0.183 A 
ATOM      5  C   UNL d   1      53.432  33.743  54.297  0.00  0.00     0.104 A 
ATOM      6  O   UNL d   1      52.806  34.041  53.850  0.00  0.00    -0.289 OA
ATOM      7  S   UNL d   1      53.485  31.664  53.609  0.00  0.00    -0.057 SA
ATOM      8  C   UNL d   1      54.289  32.651  54.670  0.00  0.00     0.004 A 
ATOM      9  C   UNL d   1      53.827  34.229  54.819  0.00  0.00     0.025 A 
ATOM     10  C   UNL d   1      54.686  33.150  55.197  0.00  0.00     0.000 A 
ATOM     11  C   UNL d   1      54.454  33.935  55.270  0.00  0.00     0.002 A 
ENDROOT
BRANCH   4  12
ATOM     12  C   UNL d   1      51.781  33.847  52.874  0.00  0.00     0.041 A 
ATOM     13  C   UNL d   1      51.057  34.007  53.225  0.00  0.00     0.004 A 
ATOM     14  C   UNL d   1      50.440  34.300  52.768  0.00  0.00     0.000 A 
ATOM     15  C   UNL d   1      49.710  34.461  53.123  0.00  0.00     0.000 C 
ATOM     16  C   UNL d   1      50.542  34.435  51.961  0.00  0.00     0.000 A 
ATOM     17  C   UNL d   1      51.273  34.272  51.611  0.00  0.00     0.000 A 
ATOM     18  C   UNL d   1      51.894  33.978  52.068  0.00  0.00     0.004 A 
ENDBRANCH   4  12
TORSDOF 1
ENDMDL
MODEL 3
REMARK VINA RESULT:     -10.1      1.216      3.557
REMARK  1 active torsions:
REMARK  status: ('A' for Active; 'I' for Inactive)
REMARK    1  A    between atoms: C_7  and  C_4 
ROOT
ATOM      1  N   UNL d   1      52.999  32.963  53.596  0.00  0.00    -0.211 NA
ATOM      2  C   UNL d   1      53.505  32.361  53.876  0.00  0.00     0.140 A 
ATOM      3  C   UNL d   1      53.379  31.581  53.638  0.00  0.00     0.051 A 
ATOM      4  C   UNL d   1      52.375  32.768  53.080  0.00  0.00     0.183 A 
ATOM      5  C   UNL d   1      52.756  31.391  53.125  0.00  0.00     0.104 A 
ATOM      6  O   UNL d   1      52.257  31.987  52.848  0.00  0.00    -0.289 OA
ATOM      7  S   UNL d   1      54.125  32.545  54.386  0.00  0.00    -0.057 SA
ATOM      8  C   UNL d   1      53.882  30.975  53.915  0.00  0.00     0.004 A 
ATOM      9  C   UNL d   1      52.636  30.619  52.893  0.00  0.00     0.025 A 
ATOM     10  C   UNL d   1      53.754  30.194  53.676  0.00  0.00     0.000 A 
ATOM     11  C   UNL d   1      53.134  30.018  53.167  0.00  0.00     0.002 A 
ENDROOT
BRANCH   4  12
ATOM     12  C   UNL d   1      51.880  33.364  52.807  0.00  0.00     0.041 A 
ATOM     13  C   UNL d   1      51.173  33.524  53.190  0.00  0.00     0.004 A 
ATOM     14  C   UNL d   1      50.684  34.123  52.908  0.00  0.00     0.000 A 
ATOM     15  C   UNL d   1      49.971  34.283  53.295  0.00  0.00     0.000 C 
ATOM     16  C   UNL d   1      50.899  34.563  52.245  0.00  0.00     0.000 A 
ATOM     17  C   UNL d   1      51.612  34.398  51.862  0.00  0.00     0.000 A 
ATOM     18  C   UNL d   1      52.105  33.798  52.143  0.00  0.00     0.004 A 
ENDBRANCH   4  12
TORSDOF 1
ENDMDL
MODEL 4
REMARK VINA RESULT:     -10.0      1.626      3.654
REMARK  1 active torsions:
REMARK  status: ('A' for Active; 'I' for Inactive)
REMARK    1  A    between atoms: C_7  and  C_4 
ROOT
ATOM      1  N   UNL d   1      53.235  32.519  53.444  0.00  0.00    -0.211 NA
ATOM      2  C   UNL d   1      52.710  31.961  53.113  0.00  0.00     0.140 A 
ATOM      3  C   UNL d   1      52.848  31.156  53.226  0.00  0.00     0.051 A 
ATOM      4  C   UNL d   1      53.890  32.255  53.884  0.00  0.00     0.183 A 
ATOM      5  C   UNL d   1      53.502  30.897  53.665  0.00  0.00     0.104 A 
ATOM      6  O   UNL d   1      54.020  31.449  53.992  0.00  0.00    -0.289 OA
ATOM      7  S   UNL d   1      52.058  32.213  52.675  0.00  0.00    -0.057 SA
ATOM      8  C   UNL d   1      52.326  30.593  52.897  0.00  0.00     0.004 A 
ATOM      9  C   UNL d   1      53.635  30.100  53.775  0.00  0.00     0.025 A 
ATOM     10  C   UNL d   1      52.467  29.786  53.012  0.00  0.00     0.000 A 
ATOM     11  C   UNL d   1      53.119  29.542  53.449  0.00  0.00     0.002 A 
ENDROOT
BRANCH   4  12
ATOM     12  C   UNL d   1      54.404  32.808  54.209  0.00  0.00     0.041 A 
ATOM     13  C   UNL d   1      54.325  33.039  54.991  0.00  0.00     0.004 A 
ATOM     14  C   UNL d   1      54.845  33.594  55.306  0.00  0.00     0.000 A 
ATOM     15  C   UNL d   1      54.764  33.826  56.096  0.00  0.00     0.000 C 
ATOM     16  C   UNL d   1      55.444  33.919  54.842  0.00  0.00     0.000 A 
ATOM     17  C   UNL d   1      55.520  33.683  54.054  0.00  0.00     0.000 A 
ATOM     18  C   UNL d   1      55.000  33.127  53.735  0.00  0.00     0.004 A 
ENDBRANCH   4  12
TORSDOF 1
ENDMDL
MODEL 5
REMARK VINA RESULT:      -9.1      1.195      1.707
REMARK  1 active torsions:
REMARK  status: ('A' for Active; 'I' for Inactive)
REMARK    1  A    between atoms: C_7  and  C_4 
ROOT
ATOM      1  N   UNL d   1      53.087  33.235  53.514  0.00  0.00    -0.211 NA
ATOM      2  C   UNL d   1      52.716  33.981  53.470  0.00  0.00     0.140 A 
ATOM      3  C   UNL d   1      51.923  34.028  53.249  0.00  0.00     0.051 A 
ATOM      4  C   UNL d   1      52.652  32.548  53.332  0.00  0.00     0.183 A 
ATOM      5  C   UNL d   1      51.493  33.342  53.069  0.00  0.00     0.104 A 
ATOM      6  O   UNL d   1      51.861  32.605  53.112  0.00  0.00    -0.289 OA
ATOM      7  S   UNL d   1      53.139  34.666  53.648  0.00  0.00    -0.057 SA
ATOM      8  C   UNL d   1      51.546  34.772  53.204  0.00  0.00     0.004 A 
ATOM      9  C   UNL d   1      50.709  33.393  52.850  0.00  0.00     0.025 A 
ATOM     10  C   UNL d   1      50.751  34.817  52.981  0.00  0.00     0.000 A 
ATOM     11  C   UNL d   1      50.336  34.130  52.805  0.00  0.00     0.002 A 
ENDROOT
BRANCH   4  12
ATOM     12  C   UNL d   1      53.022  31.816  53.376  0.00  0.00     0.041 A 
ATOM     13  C   UNL d   1      52.669  31.152  53.049  0.00  0.00     0.004 A 
ATOM     14  C   UNL d   1      53.047  30.424  53.098  0.00  0.00     0.000 A 
ATOM     15  C   UNL d   1      52.690  29.755  52.768  0.00  0.00     0.000 C 
ATOM     16  C   UNL d   1      53.778  30.355  53.474  0.00  0.00     0.000 A 
ATOM     17  C   UNL d   1      54.131  31.027  53.802  0.00  0.00     0.000 A 
ATOM     18  C   UNL d   1      53.753  31.759  53.754  0.00  0.00     0.004 A 
ENDBRANCH   4  12
TORSDOF 1
ENDMDL
MODEL 6
REMARK VINA RESULT:      -8.9      1.927      3.095
REMARK  1 active torsions:
REMARK  status: ('A' for Active; 'I' for Inactive)
REMARK    1  A    between atoms: C_7  and  C_4 
ROOT
ATOM      1  N   UNL d   1      53.030  32.575  53.715  0.00  0.00    -0.211 NA
ATOM      2  C   UNL d   1      52.361  32.501  53.223  0.00  0.00     0.140 A 
ATOM      3  C   UNL d   1      51.886  33.160  53.079  0.00  0.00     0.051 A 
ATOM      4  C   UNL d   1      53.209  33.313  54.056  0.00  0.00     0.183 A 
ATOM      5  C   UNL d   1      52.068  33.894  53.421  0.00  0.00     0.104 A 
ATOM      6  O   UNL d   1      52.730  33.966  53.908  0.00  0.00    -0.289 OA
ATOM      7  S   UNL d   1      52.175  31.774  52.881  0.00  0.00    -0.057 SA
ATOM      8  C   UNL d   1      51.215  33.093  52.587  0.00  0.00     0.004 A 
ATOM      9  C   UNL d   1      51.596  34.543  53.276  0.00  0.00     0.025 A 
ATOM     10  C   UNL d   1      50.741  33.755  52.445  0.00  0.00     0.000 A 
ATOM     11  C   UNL d   1      50.932  34.476  52.789  0.00  0.00     0.002 A 
ENDROOT
BRANCH   4  12
ATOM     12  C   UNL d   1      53.869  33.381  54.541  0.00  0.00     0.041 A 
ATOM     13  C   UNL d   1      54.574  33.677  54.244  0.00  0.00     0.004 A 
ATOM     14  C   UNL d   1      55.229  33.741  54.737  0.00  0.00     0.000 A 
ATOM     15  C   UNL d   1      55.939  34.039  54.436  0.00  0.00     0.000 C 
ATOM     16  C   UNL d   1      55.183  33.510  55.527  0.00  0.00     0.000 A 
ATOM     17  C   UNL d   1      54.471  33.212  55.823  0.00  0.00     0.000 A 
ATOM     18  C   UNL d   1      53.812  33.147  55.330  0.00  0.00     0.004 A 
ENDBRANCH   4  12
TORSDOF 1
ENDMDL
