MODEL 1
REMARK VINA RESULT:      54.6      0.000      0.000
REMARK  4 active torsions:
REMARK  status: ('A' for Active; 'I' for Inactive)
REMARK       I    between atoms: N_2  and  C_1 
REMARK    1  A    between atoms: C_4  and  C_1 
REMARK    2  A    between atoms: C_14  and  N_3 
REMARK    3  A    between atoms: C_5  and  C_6 
REMARK    4  A    between atoms: C_17  and  C_14 
ROOT
ATOM      1  C   UNL d   1     -54.758-100.480 -41.916  0.00  0.00     0.265 C 
ATOM      2  N   UNL d   1     -54.747-101.051 -41.332  0.00  0.00    -0.269 N 
ATOM      3  N   UNL d   1     -54.726-102.193 -40.151  0.00  0.00    -0.300 N 
ATOM      4  O   UNL d   1     -54.756 -99.684 -41.708  0.00  0.00    -0.267 OA
ATOM      5  C   UNL d   1     -54.749-101.846 -41.528  0.00  0.00     0.102 A 
ATOM      6  C   UNL d   1     -54.735-100.823 -40.530  0.00  0.00     0.102 A 
ATOM      7  C   UNL d   1     -54.725-101.395 -39.945  0.00  0.00     0.100 A 
ATOM      8  C   UNL d   1     -54.738-102.415 -40.931  0.00  0.00     0.100 A 
ENDROOT
BRANCH   1   9
ATOM      9  C   UNL d   1     -54.770-100.708 -42.718  0.00  0.00     0.057 A 
ATOM     10  C   UNL d   1     -54.792-100.140 -43.302  0.00  0.00     0.004 A 
ATOM     11  C   UNL d   1     -54.805-100.368 -44.104  0.00  0.00    -0.004 A 
ATOM     12  C   UNL d   1     -54.795-101.158 -44.301  0.00  0.00    -0.023 A 
ATOM     13  C   UNL d   1     -54.773-101.736 -43.715  0.00  0.00    -0.004 A 
ATOM     14  C   UNL d   1     -54.760-101.508 -42.913  0.00  0.00     0.004 A 
BRANCH  12  15
ATOM     15  C   UNL d   1     -54.807-101.383 -45.092  0.00  0.00     0.019 C 
ATOM     16  C   UNL d   1     -54.751-100.593 -45.318  0.00  0.00     0.004 C 
ATOM     17  C   UNL d   1     -54.820-101.610 -45.887  0.00  0.00     0.004 C 
ATOM     18  C   UNL d   1     -54.864-102.183 -44.864  0.00  0.00     0.004 C 
ENDBRANCH  12  15
ENDBRANCH   1   9
BRANCH   3  19
ATOM     19  C   UNL d   1     -54.716-102.772 -39.569  0.00  0.00     0.080 C 
BRANCH  19  20
ATOM     20  C   UNL d   1     -55.293-102.788 -38.986  0.00  0.00     0.018 A 
ATOM     21  C   UNL d   1     -56.109-102.854 -39.186  0.00  0.00     0.002 A 
ATOM     22  C   UNL d   1     -56.675-102.868 -38.591  0.00  0.00     0.000 A 
ATOM     23  C   UNL d   1     -56.446-102.818 -37.789  0.00  0.00     0.000 A 
ATOM     24  C   UNL d   1     -55.640-102.753 -37.595  0.00  0.00     0.000 A 
ATOM     25  C   UNL d   1     -55.066-102.738 -38.192  0.00  0.00     0.002 A 
ENDBRANCH  19  20
ENDBRANCH   3  19
TORSDOF 4
ENDMDL
