MODEL 1
REMARK VINA RESULT:      41.7      0.000      0.000
REMARK  4 active torsions:
REMARK  status: ('A' for Active; 'I' for Inactive)
REMARK    1  A    between atoms: C_7  and  N_2 
REMARK    2  A    between atoms: C_15  and  C_7 
REMARK    3  A    between atoms: C_8  and  O_14 
REMARK    4  A    between atoms: O_14  and  C_15 
ROOT
ATOM      1  C   UNL d   1     -50.273  24.779  33.306  0.00  0.00     0.296 A 
ATOM      2  N   UNL d   1     -50.991  25.179  33.306  0.00  0.00    -0.266 N 
ATOM      3  S   UNL d   1     -50.440  23.957  33.306  0.00  0.00    -0.025 SA
ATOM      4  C   UNL d   1     -51.601  24.616  33.306  0.00  0.00     0.074 A 
ATOM      5  C   UNL d   1     -51.263  23.868  33.306  0.00  0.00     0.050 A 
ATOM      6  O   UNL d   1     -49.525  25.116  33.306  0.00  0.00    -0.259 OA
ATOM      7  C   UNL d   1     -52.423  24.704  33.306  0.00  0.00     0.018 A 
ATOM      8  C   UNL d   1     -51.740  23.190  33.306  0.00  0.00     0.008 A 
ATOM      9  C   UNL d   1     -52.902  24.029  33.306  0.00  0.00     0.002 A 
ATOM     10  C   UNL d   1     -52.565  23.281  33.306  0.00  0.00     0.001 A 
ENDROOT
BRANCH   2  11
ATOM     11  C   UNL d   1     -51.090  25.998  33.306  0.00  0.00     0.110 C 
BRANCH  11  12
ATOM     12  C   UNL d   1     -50.453  26.493  33.470  0.00  0.00     0.142 C 
BRANCH  12  13
ATOM     13  O   UNL d   1     -50.570  27.241  33.804  0.00  0.00    -0.304 OA
BRANCH  13  14
ATOM     14  C   UNL d   1     -49.941  27.646  34.151  0.00  0.00     0.100 A 
ATOM     15  C   UNL d   1     -49.709  27.464  34.922  0.00  0.00     0.025 A 
ATOM     16  C   UNL d   1     -49.083  27.867  35.265  0.00  0.00     0.002 A 
ATOM     17  C   UNL d   1     -48.688  28.452  34.838  0.00  0.00     0.000 A 
ATOM     18  C   UNL d   1     -48.923  28.632  34.064  0.00  0.00     0.002 A 
ATOM     19  C   UNL d   1     -48.055  28.858  35.188  0.00  0.00     0.000 C 
ATOM     20  C   UNL d   1     -49.552  28.223  33.728  0.00  0.00     0.025 A 
ENDBRANCH  13  14
ENDBRANCH  12  13
ENDBRANCH  11  12
ENDBRANCH   2  11
TORSDOF 4
ENDMDL
