MODEL 1
REMARK VINA RESULT:      -4.5      0.000      0.000
REMARK  0 active torsions:
REMARK  status: ('A' for Active; 'I' for Inactive)
ROOT
ATOM      1  C   UNL d   1     -41.364-122.394 -52.439  0.00  0.00     0.061 A 
ATOM      2  C   UNL d   1     -41.389-122.404 -53.263  0.00  0.00     0.279 A 
ATOM      3  C   UNL d   1     -41.256-123.095 -52.022  0.00  0.00     0.045 A 
ATOM      4  N   UNL d   1     -41.306-123.115 -53.667  0.00  0.00    -0.206 NA
ATOM      5  C   UNL d   1     -41.231-123.082 -51.193  0.00  0.00     0.196 A 
ATOM      6  O   UNL d   1     -41.497-121.703 -53.680  0.00  0.00    -0.265 OA
ATOM      7  C   UNL d   1     -41.198-123.817 -53.245  0.00  0.00     0.102 A 
ATOM      8  O   UNL d   1     -41.123-123.783 -50.777  0.00  0.00    -0.287 OA
ATOM      9  C   UNL d   1     -41.174-123.801 -52.419  0.00  0.00     0.024 A 
ATOM     10  C   UNL d   1     -41.448-121.672 -52.031  0.00  0.00     0.005 A 
ATOM     11  C   UNL d   1     -41.422-121.663 -51.211  0.00  0.00     0.003 A 
ATOM     12  C   UNL d   1     -41.314-122.365 -50.794  0.00  0.00     0.042 A 
ENDROOT
TORSDOF 0
ENDMDL
MODEL 2
REMARK VINA RESULT:      -4.2      1.472      2.677
REMARK  0 active torsions:
REMARK  status: ('A' for Active; 'I' for Inactive)
ROOT
ATOM      1  C   UNL d   1     -41.869-122.329 -53.653  0.00  0.00     0.061 A 
ATOM      2  C   UNL d   1     -41.869-122.331 -52.828  0.00  0.00     0.279 A 
ATOM      3  C   UNL d   1     -41.495-122.936 -54.065  0.00  0.00     0.045 A 
ATOM      4  N   UNL d   1     -41.497-122.938 -52.419  0.00  0.00    -0.206 NA
ATOM      5  C   UNL d   1     -41.497-122.932 -54.894  0.00  0.00     0.196 A 
ATOM      6  O   UNL d   1     -42.242-121.724 -52.416  0.00  0.00    -0.265 OA
ATOM      7  C   UNL d   1     -41.123-123.546 -52.836  0.00  0.00     0.102 A 
ATOM      8  O   UNL d   1     -41.124-123.539 -55.306  0.00  0.00    -0.287 OA
ATOM      9  C   UNL d   1     -41.126-123.539 -53.663  0.00  0.00     0.024 A 
ATOM     10  C   UNL d   1     -42.247-121.712 -54.066  0.00  0.00     0.005 A 
ATOM     11  C   UNL d   1     -42.246-121.712 -54.886  0.00  0.00     0.003 A 
ATOM     12  C   UNL d   1     -41.872-122.320 -55.299  0.00  0.00     0.042 A 
ENDROOT
TORSDOF 0
ENDMDL
MODEL 3
REMARK VINA RESULT:      -4.0      1.792      2.701
REMARK  0 active torsions:
REMARK  status: ('A' for Active; 'I' for Inactive)
ROOT
ATOM      1  C   UNL d   1     -41.874-122.621 -54.676  0.00  0.00     0.061 A 
ATOM      2  C   UNL d   1     -42.249-122.118 -55.211  0.00  0.00     0.279 A 
ATOM      3  C   UNL d   1     -41.866-122.436 -53.874  0.00  0.00     0.045 A 
ATOM      4  N   UNL d   1     -42.614-121.433 -54.942  0.00  0.00    -0.206 NA
ATOM      5  C   UNL d   1     -41.487-122.944 -53.339  0.00  0.00     0.196 A 
ATOM      6  O   UNL d   1     -42.257-122.303 -56.013  0.00  0.00    -0.265 OA
ATOM      7  C   UNL d   1     -42.604-121.250 -54.136  0.00  0.00     0.102 A 
ATOM      8  O   UNL d   1     -41.479-122.759 -52.537  0.00  0.00    -0.287 OA
ATOM      9  C   UNL d   1     -42.226-121.758 -53.605  0.00  0.00     0.024 A 
ATOM     10  C   UNL d   1     -41.504-123.316 -54.950  0.00  0.00     0.005 A 
ATOM     11  C   UNL d   1     -41.131-123.815 -54.417  0.00  0.00     0.003 A 
ATOM     12  C   UNL d   1     -41.123-123.630 -53.614  0.00  0.00     0.042 A 
ENDROOT
TORSDOF 0
ENDMDL
MODEL 4
REMARK VINA RESULT:      -3.6      0.970      1.599
REMARK  0 active torsions:
REMARK  status: ('A' for Active; 'I' for Inactive)
ROOT
ATOM      1  C   UNL d   1     -41.239-122.977 -52.514  0.00  0.00     0.061 A 
ATOM      2  C   UNL d   1     -41.242-122.890 -53.335  0.00  0.00     0.279 A 
ATOM      3  C   UNL d   1     -41.347-122.320 -52.030  0.00  0.00     0.045 A 
ATOM      4  N   UNL d   1     -41.354-122.147 -53.667  0.00  0.00    -0.206 NA
ATOM      5  C   UNL d   1     -41.344-122.412 -51.206  0.00  0.00     0.196 A 
ATOM      6  O   UNL d   1     -41.134-123.546 -53.819  0.00  0.00    -0.265 OA
ATOM      7  C   UNL d   1     -41.462-121.489 -53.177  0.00  0.00     0.102 A 
ATOM      8  O   UNL d   1     -41.452-121.755 -50.722  0.00  0.00    -0.287 OA
ATOM      9  C   UNL d   1     -41.458-121.583 -52.356  0.00  0.00     0.024 A 
ATOM     10  C   UNL d   1     -41.125-123.732 -52.179  0.00  0.00     0.005 A 
ATOM     11  C   UNL d   1     -41.123-123.817 -51.363  0.00  0.00     0.003 A 
ATOM     12  C   UNL d   1     -41.231-123.160 -50.878  0.00  0.00     0.042 A 
ENDROOT
TORSDOF 0
ENDMDL
MODEL 5
REMARK VINA RESULT:      -2.8      2.916      4.031
REMARK  0 active torsions:
REMARK  status: ('A' for Active; 'I' for Inactive)
ROOT
ATOM      1  C   UNL d   1     -42.365-123.070 -48.742  0.00  0.00     0.061 A 
ATOM      2  C   UNL d   1     -42.366-123.107 -47.918  0.00  0.00     0.279 A 
ATOM      3  C   UNL d   1     -41.743-123.400 -49.168  0.00  0.00     0.045 A 
ATOM      4  N   UNL d   1     -41.746-123.473 -47.524  0.00  0.00    -0.206 NA
ATOM      5  C   UNL d   1     -41.745-123.361 -49.996  0.00  0.00     0.196 A 
ATOM      6  O   UNL d   1     -42.988-122.777 -47.493  0.00  0.00    -0.265 OA
ATOM      7  C   UNL d   1     -41.123-123.804 -47.955  0.00  0.00     0.102 A 
ATOM      8  O   UNL d   1     -41.123-123.691 -50.421  0.00  0.00    -0.287 OA
ATOM      9  C   UNL d   1     -41.127-123.764 -48.780  0.00  0.00     0.024 A 
ATOM     10  C   UNL d   1     -42.996-122.698 -49.141  0.00  0.00     0.005 A 
ATOM     11  C   UNL d   1     -42.993-122.662 -49.960  0.00  0.00     0.003 A 
ATOM     12  C   UNL d   1     -42.370-122.992 -50.386  0.00  0.00     0.042 A 
ENDROOT
TORSDOF 0
ENDMDL
