MODEL 1
REMARK VINA RESULT:      -0.8      0.000      0.000
REMARK  3 active torsions:
REMARK  status: ('A' for Active; 'I' for Inactive)
REMARK    1  A    between atoms: N_10  and  C_3 
REMARK    2  A    between atoms: C_13  and  C_5 
REMARK    3  A    between atoms: C_12  and  C_9 
ROOT
ATOM      1  N   UNL d   1      32.749  21.444 -22.287  0.00  0.00    -0.196 N 
ATOM      2  C   UNL d   1      32.856  21.117 -23.031  0.00  0.00     0.167 A 
ATOM      3  C   UNL d   1      32.715  22.264 -22.192  0.00  0.00     0.152 A 
ATOM      4  N   UNL d   1      32.692  20.832 -21.744  0.00  0.00    -0.163 NA
ATOM      5  C   UNL d   1      32.866  20.300 -22.951  0.00  0.00     0.055 A 
ATOM      6  N   UNL d   1      32.932  21.603 -23.693  0.00  0.00    -0.231 NA
ATOM      7  C   UNL d   1      32.791  22.750 -22.855  0.00  0.00     0.052 A 
ATOM      8  C   UNL d   1      32.766  20.120 -22.160  0.00  0.00     0.104 A 
ATOM      9  C   UNL d   1      32.898  22.423 -23.599  0.00  0.00     0.063 A 
ATOM     10  C   UNL d   1      32.743  19.362 -21.844  0.00  0.00     0.023 C 
ENDROOT
BRANCH   3  11
ATOM     11  N   UNL d   1      32.608  22.591 -21.448  0.00  0.00    -0.286 N 
ATOM     12  C   UNL d   1      31.864  22.867 -21.218  0.00  0.00     0.101 A 
ATOM     13  C   UNL d   1      31.756  23.196 -20.469  0.00  0.00     0.100 A 
ATOM     14  N   UNL d   1      32.391  23.252 -19.948  0.00  0.00    -0.299 N 
ATOM     15  C   UNL d   1      33.133  22.978 -20.174  0.00  0.00     0.100 A 
ATOM     16  C   UNL d   1      32.283  23.581 -19.199  0.00  0.00     0.100 C 
ATOM     17  C   UNL d   1      33.241  22.649 -20.923  0.00  0.00     0.101 A 
ENDBRANCH   3  11
BRANCH   9  18
ATOM     18  C   UNL d   1      32.974  22.931 -24.268  0.00  0.00     0.036 C 
ATOM     19  C   UNL d   1      33.049  23.434 -24.928  0.00  0.00     0.006 C 
ATOM     20  C   UNL d   1      32.902  22.274 -24.775  0.00  0.00     0.006 C 
ATOM     21  C   UNL d   1      33.046  23.587 -23.756  0.00  0.00     0.006 C 
ENDBRANCH   9  18
BRANCH   5  22
ATOM     22  C   UNL d   1      32.955  19.690 -23.500  0.00  0.00     0.004 A 
ATOM     23  C   UNL d   1      32.850  18.899 -23.273  0.00  0.00     0.000 A 
ATOM     24  C   UNL d   1      32.940  18.294 -23.824  0.00  0.00     0.000 A 
ATOM     25  C   UNL d   1      33.135  18.467 -24.610  0.00  0.00     0.000 A 
ATOM     26  C   UNL d   1      33.241  19.263 -24.838  0.00  0.00     0.000 A 
ATOM     27  C   UNL d   1      33.150  19.866 -24.283  0.00  0.00     0.000 A 
ENDBRANCH   5  22
TORSDOF 3
ENDMDL
MODEL 2
REMARK VINA RESULT:       1.8      3.558      5.769
REMARK  3 active torsions:
REMARK  status: ('A' for Active; 'I' for Inactive)
REMARK    1  A    between atoms: N_10  and  C_3 
REMARK    2  A    between atoms: C_13  and  C_5 
REMARK    3  A    between atoms: C_12  and  C_9 
ROOT
ATOM      1  N   UNL d   1      30.777  17.646 -23.758  0.00  0.00    -0.196 N 
ATOM      2  C   UNL d   1      30.407  16.984 -23.447  0.00  0.00     0.167 A 
ATOM      3  C   UNL d   1      31.582  17.773 -23.628  0.00  0.00     0.152 A 
ATOM      4  N   UNL d   1      30.217  18.082 -24.169  0.00  0.00    -0.163 NA
ATOM      5  C   UNL d   1      29.616  17.007 -23.665  0.00  0.00     0.055 A 
ATOM      6  N   UNL d   1      30.835  16.436 -23.002  0.00  0.00    -0.231 NA
ATOM      7  C   UNL d   1      32.012  17.225 -23.183  0.00  0.00     0.052 A 
ATOM      8  C   UNL d   1      29.494  17.682 -24.110  0.00  0.00     0.104 A 
ATOM      9  C   UNL d   1      31.641  16.563 -22.873  0.00  0.00     0.063 A 
ATOM     10  C   UNL d   1      28.777  17.914 -24.436  0.00  0.00     0.023 C 
ENDROOT
BRANCH   3  11
ATOM     11  N   UNL d   1      31.953  18.435 -23.939  0.00  0.00    -0.286 N 
ATOM     12  C   UNL d   1      32.056  19.111 -23.475  0.00  0.00     0.101 A 
ATOM     13  C   UNL d   1      32.429  19.777 -23.787  0.00  0.00     0.100 A 
ATOM     14  N   UNL d   1      32.700  19.772 -24.565  0.00  0.00    -0.299 N 
ATOM     15  C   UNL d   1      32.598  19.101 -25.030  0.00  0.00     0.100 A 
ATOM     16  C   UNL d   1      33.073  20.438 -24.877  0.00  0.00     0.100 C 
ATOM     17  C   UNL d   1      32.226  18.434 -24.717  0.00  0.00     0.101 A 
ENDBRANCH   3  11
BRANCH   9  18
ATOM     18  C   UNL d   1      32.091  16.012 -22.420  0.00  0.00     0.036 C 
ATOM     19  C   UNL d   1      32.536  15.468 -21.973  0.00  0.00     0.006 C 
ATOM     20  C   UNL d   1      32.100  15.488 -23.068  0.00  0.00     0.006 C 
ATOM     21  C   UNL d   1      32.080  16.540 -21.773  0.00  0.00     0.006 C 
ENDBRANCH   9  18
BRANCH   5  22
ATOM     22  C   UNL d   1      28.984  16.498 -23.516  0.00  0.00     0.004 A 
ATOM     23  C   UNL d   1      28.545  16.175 -24.142  0.00  0.00     0.000 A 
ATOM     24  C   UNL d   1      27.915  15.668 -23.988  0.00  0.00     0.000 A 
ATOM     25  C   UNL d   1      27.712  15.474 -23.209  0.00  0.00     0.000 A 
ATOM     26  C   UNL d   1      28.153  15.799 -22.580  0.00  0.00     0.000 A 
ATOM     27  C   UNL d   1      28.784  16.307 -22.738  0.00  0.00     0.000 A 
ENDBRANCH   5  22
TORSDOF 3
ENDMDL
