MODEL 1
REMARK VINA RESULT:      -2.2      0.000      0.000
REMARK  4 active torsions:
REMARK  status: ('A' for Active; 'I' for Inactive)
REMARK    1  A    between atoms: C_2  and  C_1 
REMARK    2  A    between atoms: O_6  and  C_3 
REMARK    3  A    between atoms: C_4  and  C_9 
REMARK    4  A    between atoms: C_9  and  O_6 
ROOT
ATOM      1  C   UNL d   1      31.767  16.912 -23.986  0.00  0.00     0.000 A 
ATOM      2  C   UNL d   1      31.053  16.500 -23.866  0.00  0.00     0.091 A 
ATOM      3  C   UNL d   1      32.484  16.576 -23.698  0.00  0.00     0.004 A 
ATOM      4  C   UNL d   1      31.045  15.775 -23.471  0.00  0.00     0.024 A 
ATOM      5  C   UNL d   1      32.467  15.851 -23.305  0.00  0.00     0.035 A 
ATOM      6  C   UNL d   1      31.752  15.456 -23.194  0.00  0.00     0.009 A 
ATOM      7 BR   UNL d   1      33.184  15.513 -23.016  0.00  0.00    -0.049 Br
ENDROOT
BRANCH   2   8
ATOM      8  O   UNL d   1      30.346  16.836 -24.153  0.00  0.00    -0.320 OA
BRANCH   8   9
ATOM      9  C   UNL d   1      29.602  16.467 -24.004  0.00  0.00     0.246 C 
BRANCH   9  10
ATOM     10  C   UNL d   1      28.910  16.773 -24.333  0.00  0.00     0.217 C 
ATOM     11  O   UNL d   1      28.683  16.532 -25.097  0.00  0.00    -0.645 OA
ATOM     12  O   UNL d   1      28.462  17.308 -23.894  0.00  0.00    -0.645 OA
ENDBRANCH   9  10
ENDBRANCH   8   9
ENDBRANCH   2   8
BRANCH   1  13
ATOM     13  C   UNL d   1      31.774  17.634 -24.379  0.00  0.00     0.021 C 
ATOM     14  C   UNL d   1      31.782  18.360 -24.774  0.00  0.00     0.004 C 
ATOM     15  C   UNL d   1      31.708  18.030 -23.652  0.00  0.00     0.004 C 
ATOM     16  C   UNL d   1      31.839  17.244 -25.094  0.00  0.00     0.004 C 
ENDBRANCH   1  13
TORSDOF 4
ENDMDL
MODEL 2
REMARK VINA RESULT:      -2.1      6.019      7.175
REMARK  4 active torsions:
REMARK  status: ('A' for Active; 'I' for Inactive)
REMARK    1  A    between atoms: C_2  and  C_1 
REMARK    2  A    between atoms: O_6  and  C_3 
REMARK    3  A    between atoms: C_4  and  C_9 
REMARK    4  A    between atoms: C_9  and  O_6 
ROOT
ATOM      1  C   UNL d   1      32.714  22.256 -20.680  0.00  0.00     0.000 A 
ATOM      2  C   UNL d   1      32.862  22.904 -21.182  0.00  0.00     0.091 A 
ATOM      3  C   UNL d   1      32.836  22.347 -19.851  0.00  0.00     0.004 A 
ATOM      4  C   UNL d   1      33.124  23.624 -20.875  0.00  0.00     0.024 A 
ATOM      5  C   UNL d   1      33.098  23.070 -19.554  0.00  0.00     0.035 A 
ATOM      6  C   UNL d   1      33.240  23.702 -20.064  0.00  0.00     0.009 A 
ATOM      7 BR   UNL d   1      33.221  23.163 -18.724  0.00  0.00    -0.049 Br
ENDROOT
BRANCH   2   8
ATOM      8  O   UNL d   1      32.740  22.810 -22.002  0.00  0.00    -0.320 OA
BRANCH   8   9
ATOM      9  C   UNL d   1      32.895  23.443 -22.536  0.00  0.00     0.246 C 
BRANCH   9  10
ATOM     10  C   UNL d   1      32.714  23.368 -23.338  0.00  0.00     0.217 C 
ATOM     11  O   UNL d   1      33.241  22.959 -23.836  0.00  0.00    -0.645 OA
ATOM     12  O   UNL d   1      32.016  23.702 -23.623  0.00  0.00    -0.645 OA
ENDBRANCH   9  10
ENDBRANCH   8   9
ENDBRANCH   2   8
BRANCH   1  13
ATOM     13  C   UNL d   1      32.453  21.539 -20.986  0.00  0.00     0.021 C 
ATOM     14  C   UNL d   1      32.191  20.817 -21.293  0.00  0.00     0.004 C 
ATOM     15  C   UNL d   1      33.241  21.307 -21.115  0.00  0.00     0.004 C 
ATOM     16  C   UNL d   1      31.679  21.766 -20.858  0.00  0.00     0.004 C 
ENDBRANCH   1  13
TORSDOF 4
ENDMDL
MODEL 3
REMARK VINA RESULT:      -2.1      1.175      2.103
REMARK  4 active torsions:
REMARK  status: ('A' for Active; 'I' for Inactive)
REMARK    1  A    between atoms: C_2  and  C_1 
REMARK    2  A    between atoms: O_6  and  C_3 
REMARK    3  A    between atoms: C_4  and  C_9 
REMARK    4  A    between atoms: C_9  and  O_6 
ROOT
ATOM      1  C   UNL d   1      31.820  16.899 -24.325  0.00  0.00     0.000 A 
ATOM      2  C   UNL d   1      31.055  17.160 -24.524  0.00  0.00     0.091 A 
ATOM      3  C   UNL d   1      32.480  17.386 -24.519  0.00  0.00     0.004 A 
ATOM      4  C   UNL d   1      30.942  17.883 -24.905  0.00  0.00     0.024 A 
ATOM      5  C   UNL d   1      32.357  18.107 -24.900  0.00  0.00     0.035 A 
ATOM      6  C   UNL d   1      31.593  18.352 -25.091  0.00  0.00     0.009 A 
ATOM      7 BR   UNL d   1      33.017  18.596 -25.095  0.00  0.00    -0.049 Br
ENDROOT
BRANCH   2   8
ATOM      8  O   UNL d   1      30.405  16.675 -24.330  0.00  0.00    -0.320 OA
BRANCH   8   9
ATOM      9  C   UNL d   1      29.618  16.916 -24.512  0.00  0.00     0.246 C 
BRANCH   9  10
ATOM     10  C   UNL d   1      28.976  16.438 -24.310  0.00  0.00     0.217 C 
ATOM     11  O   UNL d   1      28.587  16.565 -23.586  0.00  0.00    -0.645 OA
ATOM     12  O   UNL d   1      28.738  15.848 -24.835  0.00  0.00    -0.645 OA
ENDBRANCH   9  10
ENDBRANCH   8   9
ENDBRANCH   2   8
BRANCH   1  13
ATOM     13  C   UNL d   1      31.933  16.178 -23.945  0.00  0.00     0.021 C 
ATOM     14  C   UNL d   1      32.046  15.454 -23.563  0.00  0.00     0.004 C 
ATOM     15  C   UNL d   1      31.986  15.798 -24.682  0.00  0.00     0.004 C 
ATOM     16  C   UNL d   1      31.880  16.552 -23.221  0.00  0.00     0.004 C 
ENDBRANCH   1  13
TORSDOF 4
ENDMDL
MODEL 4
REMARK VINA RESULT:      -1.6      1.851      3.189
REMARK  4 active torsions:
REMARK  status: ('A' for Active; 'I' for Inactive)
REMARK    1  A    between atoms: C_2  and  C_1 
REMARK    2  A    between atoms: O_6  and  C_3 
REMARK    3  A    between atoms: C_4  and  C_9 
REMARK    4  A    between atoms: C_9  and  O_6 
ROOT
ATOM      1  C   UNL d   1      29.021  16.755 -23.949  0.00  0.00     0.000 A 
ATOM      2  C   UNL d   1      29.706  16.394 -23.640  0.00  0.00     0.091 A 
ATOM      3  C   UNL d   1      28.266  16.460 -23.719  0.00  0.00     0.004 A 
ATOM      4  C   UNL d   1      29.648  15.758 -23.117  0.00  0.00     0.024 A 
ATOM      5  C   UNL d   1      28.218  15.824 -23.195  0.00  0.00     0.035 A 
ATOM      6  C   UNL d   1      28.905  15.478 -22.898  0.00  0.00     0.009 A 
ATOM      7 BR   UNL d   1      27.463  15.528 -22.964  0.00  0.00    -0.049 Br
ENDROOT
BRANCH   2   8
ATOM      8  O   UNL d   1      30.451  16.689 -23.870  0.00  0.00    -0.320 OA
BRANCH   8   9
ATOM      9  C   UNL d   1      31.161  16.341 -23.578  0.00  0.00     0.246 C 
BRANCH   9  10
ATOM     10  C   UNL d   1      31.895  16.671 -23.761  0.00  0.00     0.217 C 
ATOM     11  O   UNL d   1      32.283  16.439 -24.459  0.00  0.00    -0.645 OA
ATOM     12  O   UNL d   1      32.224  17.223 -23.244  0.00  0.00    -0.645 OA
ENDBRANCH   9  10
ENDBRANCH   8   9
ENDBRANCH   2   8
BRANCH   1  13
ATOM     13  C   UNL d   1      29.079  17.388 -24.470  0.00  0.00     0.021 C 
ATOM     14  C   UNL d   1      29.137  18.025 -24.994  0.00  0.00     0.004 C 
ATOM     15  C   UNL d   1      29.235  16.861 -25.093  0.00  0.00     0.004 C 
ATOM     16  C   UNL d   1      28.926  17.906 -23.857  0.00  0.00     0.004 C 
ENDBRANCH   1  13
TORSDOF 4
ENDMDL
MODEL 5
REMARK VINA RESULT:      -1.6      2.214      3.157
REMARK  4 active torsions:
REMARK  status: ('A' for Active; 'I' for Inactive)
REMARK    1  A    between atoms: C_2  and  C_1 
REMARK    2  A    between atoms: O_6  and  C_3 
REMARK    3  A    between atoms: C_4  and  C_9 
REMARK    4  A    between atoms: C_9  and  O_6 
ROOT
ATOM      1  C   UNL d   1      32.380  17.589 -23.976  0.00  0.00     0.000 A 
ATOM      2  C   UNL d   1      32.780  17.923 -23.326  0.00  0.00     0.091 A 
ATOM      3  C   UNL d   1      32.420  16.755 -24.094  0.00  0.00     0.004 A 
ATOM      4  C   UNL d   1      33.208  17.448 -22.805  0.00  0.00     0.024 A 
ATOM      5  C   UNL d   1      32.851  16.289 -23.567  0.00  0.00     0.035 A 
ATOM      6  C   UNL d   1      33.241  16.634 -22.929  0.00  0.00     0.009 A 
ATOM      7 BR   UNL d   1      32.891  15.454 -23.684  0.00  0.00    -0.049 Br
ENDROOT
BRANCH   2   8
ATOM      8  O   UNL d   1      32.738  18.748 -23.213  0.00  0.00    -0.320 OA
BRANCH   8   9
ATOM      9  C   UNL d   1      33.239  19.133 -22.655  0.00  0.00     0.246 C 
BRANCH   9  10
ATOM     10  C   UNL d   1      33.090  19.911 -22.425  0.00  0.00     0.217 C 
ATOM     11  O   UNL d   1      33.208  20.526 -22.972  0.00  0.00    -0.645 OA
ATOM     12  O   UNL d   1      32.827  20.057 -21.657  0.00  0.00    -0.645 OA
ENDBRANCH   9  10
ENDBRANCH   8   9
ENDBRANCH   2   8
BRANCH   1  13
ATOM     13  C   UNL d   1      31.953  18.062 -24.495  0.00  0.00     0.021 C 
ATOM     14  C   UNL d   1      31.524  18.538 -25.018  0.00  0.00     0.004 C 
ATOM     15  C   UNL d   1      32.649  18.221 -24.922  0.00  0.00     0.004 C 
ATOM     16  C   UNL d   1      31.270  17.906 -24.076  0.00  0.00     0.004 C 
ENDBRANCH   1  13
TORSDOF 4
ENDMDL
MODEL 6
REMARK VINA RESULT:      -1.6      5.766      6.858
REMARK  4 active torsions:
REMARK  status: ('A' for Active; 'I' for Inactive)
REMARK    1  A    between atoms: C_2  and  C_1 
REMARK    2  A    between atoms: O_6  and  C_3 
REMARK    3  A    between atoms: C_4  and  C_9 
REMARK    4  A    between atoms: C_9  and  O_6 
ROOT
ATOM      1  C   UNL d   1      32.733  22.968 -20.878  0.00  0.00     0.000 A 
ATOM      2  C   UNL d   1      32.915  22.155 -20.863  0.00  0.00     0.091 A 
ATOM      3  C   UNL d   1      32.811  23.415 -20.168  0.00  0.00     0.004 A 
ATOM      4  C   UNL d   1      33.168  21.792 -20.166  0.00  0.00     0.024 A 
ATOM      5  C   UNL d   1      33.064  23.043 -19.476  0.00  0.00     0.035 A 
ATOM      6  C   UNL d   1      33.241  22.238 -19.478  0.00  0.00     0.009 A 
ATOM      7 BR   UNL d   1      33.143  23.490 -18.765  0.00  0.00    -0.049 Br
ENDROOT
BRANCH   2   8
ATOM      8  O   UNL d   1      32.836  21.716 -21.568  0.00  0.00    -0.320 OA
BRANCH   8   9
ATOM      9  C   UNL d   1      33.232  20.977 -21.661  0.00  0.00     0.246 C 
BRANCH   9  10
ATOM     10  C   UNL d   1      33.032  20.471 -22.282  0.00  0.00     0.217 C 
ATOM     11  O   UNL d   1      33.232  20.686 -23.061  0.00  0.00    -0.645 OA
ATOM     12  O   UNL d   1      32.641  19.766 -22.112  0.00  0.00    -0.645 OA
ENDBRANCH   9  10
ENDBRANCH   8   9
ENDBRANCH   2   8
BRANCH   1  13
ATOM     13  C   UNL d   1      32.481  23.329 -21.572  0.00  0.00     0.021 C 
ATOM     14  C   UNL d   1      32.228  23.693 -22.270  0.00  0.00     0.004 C 
ATOM     15  C   UNL d   1      33.240  23.652 -21.679  0.00  0.00     0.004 C 
ATOM     16  C   UNL d   1      31.736  23.012 -21.466  0.00  0.00     0.004 C 
ENDBRANCH   1  13
TORSDOF 4
ENDMDL
MODEL 7
REMARK VINA RESULT:      -0.2      1.194      2.118
REMARK  4 active torsions:
REMARK  status: ('A' for Active; 'I' for Inactive)
REMARK    1  A    between atoms: C_2  and  C_1 
REMARK    2  A    between atoms: O_6  and  C_3 
REMARK    3  A    between atoms: C_4  and  C_9 
REMARK    4  A    between atoms: C_9  and  O_6 
ROOT
ATOM      1  C   UNL d   1      30.746  16.140 -24.011  0.00  0.00     0.000 A 
ATOM      2  C   UNL d   1      30.636  16.893 -24.349  0.00  0.00     0.091 A 
ATOM      3  C   UNL d   1      31.464  15.727 -24.163  0.00  0.00     0.004 A 
ATOM      4  C   UNL d   1      31.219  17.231 -24.825  0.00  0.00     0.024 A 
ATOM      5  C   UNL d   1      32.041  16.073 -24.640  0.00  0.00     0.035 A 
ATOM      6  C   UNL d   1      31.917  16.819 -24.967  0.00  0.00     0.009 A 
ATOM      7 BR   UNL d   1      32.761  15.661 -24.793  0.00  0.00    -0.049 Br
ENDROOT
BRANCH   2   8
ATOM      8  O   UNL d   1      29.923  17.298 -24.196  0.00  0.00    -0.320 OA
BRANCH   8   9
ATOM      9  C   UNL d   1      29.764  18.042 -24.559  0.00  0.00     0.246 C 
BRANCH   9  10
ATOM     10  C   UNL d   1      29.036  18.416 -24.448  0.00  0.00     0.217 C 
ATOM     11  O   UNL d   1      28.520  18.499 -25.096  0.00  0.00    -0.645 OA
ATOM     12  O   UNL d   1      28.842  18.696 -23.698  0.00  0.00    -0.645 OA
ENDBRANCH   9  10
ENDBRANCH   8   9
ENDBRANCH   2   8
BRANCH   1  13
ATOM     13  C   UNL d   1      30.165  15.803 -23.537  0.00  0.00     0.021 C 
ATOM     14  C   UNL d   1      29.580  15.464 -23.061  0.00  0.00     0.004 C 
ATOM     15  C   UNL d   1      29.820  15.454 -24.208  0.00  0.00     0.004 C 
ATOM     16  C   UNL d   1      30.503  16.146 -22.878  0.00  0.00     0.004 C 
ENDBRANCH   1  13
TORSDOF 4
ENDMDL
