MODEL 1
REMARK VINA RESULT:      -3.2      0.000      0.000
REMARK  0 active torsions:
REMARK  status: ('A' for Active; 'I' for Inactive)
ROOT
ATOM      1  N   UNL d   1      30.870  16.253 -23.593  0.00  0.00    -0.270 NA
ATOM      2  C   UNL d   1      29.866  17.182 -24.522  0.00  0.00    -0.001 A 
ATOM      3  C   UNL d   1      30.683  17.292 -24.559  0.00  0.00    -0.004 A 
ATOM      4  C   UNL d   1      30.060  16.147 -23.559  0.00  0.00     0.076 A 
ATOM      5  C   UNL d   1      31.185  16.827 -24.094  0.00  0.00     0.103 A 
ATOM      6  C   UNL d   1      29.558  16.612 -24.024  0.00  0.00     0.017 A 
ATOM      7  C   UNL d   1      29.364  17.646 -24.987  0.00  0.00    -0.000 C 
ATOM      8  C   UNL d   1      29.744  15.572 -23.058  0.00  0.00     0.019 A 
ATOM      9  C   UNL d   1      31.499  17.402 -24.596  0.00  0.00     0.029 C 
ATOM     10  C   UNL d   1      31.687  16.363 -23.629  0.00  0.00     0.029 C 
ATOM     11  C   UNL d   1      28.745  16.503 -23.989  0.00  0.00     0.002 A 
ATOM     12  C   UNL d   1      28.932  15.464 -23.023  0.00  0.00     0.002 A 
ATOM     13  C   UNL d   1      28.426  15.927 -23.486  0.00  0.00     0.000 A 
ENDROOT
TORSDOF 0
ENDMDL
MODEL 2
REMARK VINA RESULT:      -3.0      0.851      1.801
REMARK  0 active torsions:
REMARK  status: ('A' for Active; 'I' for Inactive)
ROOT
ATOM      1  N   UNL d   1      31.148  17.591 -24.386  0.00  0.00    -0.270 NA
ATOM      2  C   UNL d   1      30.855  16.166 -23.601  0.00  0.00    -0.001 A 
ATOM      3  C   UNL d   1      31.606  16.506 -23.573  0.00  0.00    -0.004 A 
ATOM      4  C   UNL d   1      30.406  17.251 -24.411  0.00  0.00     0.076 A 
ATOM      5  C   UNL d   1      31.753  17.219 -23.965  0.00  0.00     0.103 A 
ATOM      6  C   UNL d   1      30.259  16.538 -24.019  0.00  0.00     0.017 A 
ATOM      7  C   UNL d   1      30.709  15.453 -23.209  0.00  0.00    -0.000 C 
ATOM      8  C   UNL d   1      29.800  17.623 -24.831  0.00  0.00     0.019 A 
ATOM      9  C   UNL d   1      32.357  16.846 -23.545  0.00  0.00     0.029 C 
ATOM     10  C   UNL d   1      31.899  17.932 -24.358  0.00  0.00     0.029 C 
ATOM     11  C   UNL d   1      29.512  16.197 -24.046  0.00  0.00     0.002 A 
ATOM     12  C   UNL d   1      29.054  17.283 -24.858  0.00  0.00     0.002 A 
ATOM     13  C   UNL d   1      28.903  16.570 -24.467  0.00  0.00     0.000 A 
ENDROOT
TORSDOF 0
ENDMDL
MODEL 3
REMARK VINA RESULT:      -2.9      5.822      6.693
REMARK  0 active torsions:
REMARK  status: ('A' for Active; 'I' for Inactive)
ROOT
ATOM      1  N   UNL d   1      32.190  22.114 -20.757  0.00  0.00    -0.270 NA
ATOM      2  C   UNL d   1      32.890  22.573 -22.182  0.00  0.00    -0.001 A 
ATOM      3  C   UNL d   1      32.539  23.138 -21.694  0.00  0.00    -0.004 A 
ATOM      4  C   UNL d   1      32.539  21.558 -21.243  0.00  0.00     0.076 A 
ATOM      5  C   UNL d   1      32.189  22.908 -20.981  0.00  0.00     0.103 A 
ATOM      6  C   UNL d   1      32.889  21.788 -21.957  0.00  0.00     0.017 A 
ATOM      7  C   UNL d   1      33.240  22.802 -22.896  0.00  0.00    -0.000 C 
ATOM      8  C   UNL d   1      32.540  20.763 -21.020  0.00  0.00     0.019 A 
ATOM      9  C   UNL d   1      32.189  23.702 -21.206  0.00  0.00     0.029 C 
ATOM     10  C   UNL d   1      31.839  22.679 -20.267  0.00  0.00     0.029 C 
ATOM     11  C   UNL d   1      33.239  21.227 -22.444  0.00  0.00     0.002 A 
ATOM     12  C   UNL d   1      32.890  20.204 -21.507  0.00  0.00     0.002 A 
ATOM     13  C   UNL d   1      33.241  20.428 -22.221  0.00  0.00     0.000 A 
ENDROOT
TORSDOF 0
ENDMDL
MODEL 4
REMARK VINA RESULT:      -2.7      6.840      7.559
REMARK  0 active torsions:
REMARK  status: ('A' for Active; 'I' for Inactive)
ROOT
ATOM      1  N   UNL d   1      33.093  21.618 -20.429  0.00  0.00    -0.270 NA
ATOM      2  C   UNL d   1      32.364  22.923 -21.135  0.00  0.00    -0.001 A 
ATOM      3  C   UNL d   1      32.472  22.227 -21.565  0.00  0.00    -0.004 A 
ATOM      4  C   UNL d   1      32.984  22.309 -20.006  0.00  0.00     0.076 A 
ATOM      5  C   UNL d   1      32.836  21.575 -21.211  0.00  0.00     0.103 A 
ATOM      6  C   UNL d   1      32.620  22.962 -20.360  0.00  0.00     0.017 A 
ATOM      7  C   UNL d   1      31.999  23.576 -21.488  0.00  0.00    -0.000 C 
ATOM      8  C   UNL d   1      33.241  22.353 -19.223  0.00  0.00     0.019 A 
ATOM      9  C   UNL d   1      32.579  21.532 -21.995  0.00  0.00     0.029 C 
ATOM     10  C   UNL d   1      33.201  20.922 -20.858  0.00  0.00     0.029 C 
ATOM     11  C   UNL d   1      32.512  23.656 -19.933  0.00  0.00     0.002 A 
ATOM     12  C   UNL d   1      33.133  23.046 -18.797  0.00  0.00     0.002 A 
ATOM     13  C   UNL d   1      32.769  23.702 -19.146  0.00  0.00     0.000 A 
ENDROOT
TORSDOF 0
ENDMDL
MODEL 5
REMARK VINA RESULT:      -2.6      0.838      2.313
REMARK  0 active torsions:
REMARK  status: ('A' for Active; 'I' for Inactive)
ROOT
ATOM      1  N   UNL d   1      30.307  16.156 -24.024  0.00  0.00    -0.270 NA
ATOM      2  C   UNL d   1      31.273  17.459 -24.341  0.00  0.00    -0.001 A 
ATOM      3  C   UNL d   1      30.474  17.478 -24.544  0.00  0.00    -0.004 A 
ATOM      4  C   UNL d   1      31.099  16.141 -23.824  0.00  0.00     0.076 A 
ATOM      5  C   UNL d   1      29.990  16.826 -24.386  0.00  0.00     0.103 A 
ATOM      6  C   UNL d   1      31.582  16.793 -23.983  0.00  0.00     0.017 A 
ATOM      7  C   UNL d   1      31.756  18.111 -24.499  0.00  0.00    -0.000 C 
ATOM      8  C   UNL d   1      31.416  15.470 -23.462  0.00  0.00     0.019 A 
ATOM      9  C   UNL d   1      29.675  17.497 -24.747  0.00  0.00     0.029 C 
ATOM     10  C   UNL d   1      29.507  16.174 -24.227  0.00  0.00     0.029 C 
ATOM     11  C   UNL d   1      32.378  16.776 -23.781  0.00  0.00     0.002 A 
ATOM     12  C   UNL d   1      32.211  15.453 -23.261  0.00  0.00     0.002 A 
ATOM     13  C   UNL d   1      32.699  16.103 -23.417  0.00  0.00     0.000 A 
ENDROOT
TORSDOF 0
ENDMDL
MODEL 6
REMARK VINA RESULT:      -2.3      2.519      3.320
REMARK  0 active torsions:
REMARK  status: ('A' for Active; 'I' for Inactive)
ROOT
ATOM      1  N   UNL d   1      32.937  18.381 -22.723  0.00  0.00    -0.270 NA
ATOM      2  C   UNL d   1      32.653  18.766 -24.305  0.00  0.00    -0.001 A 
ATOM      3  C   UNL d   1      32.947  19.337 -23.788  0.00  0.00    -0.004 A 
ATOM      4  C   UNL d   1      32.646  17.818 -23.239  0.00  0.00     0.076 A 
ATOM      5  C   UNL d   1      33.089  19.144 -22.996  0.00  0.00     0.103 A 
ATOM      6  C   UNL d   1      32.504  18.011 -24.031  0.00  0.00     0.017 A 
ATOM      7  C   UNL d   1      32.510  18.958 -25.097  0.00  0.00    -0.000 C 
ATOM      8  C   UNL d   1      32.494  17.054 -22.966  0.00  0.00     0.019 A 
ATOM      9  C   UNL d   1      33.241  19.908 -23.270  0.00  0.00     0.029 C 
ATOM     10  C   UNL d   1      33.232  18.951 -22.205  0.00  0.00     0.029 C 
ATOM     11  C   UNL d   1      32.211  17.444 -24.548  0.00  0.00     0.002 A 
ATOM     12  C   UNL d   1      32.201  16.488 -23.483  0.00  0.00     0.002 A 
ATOM     13  C   UNL d   1      32.057  16.676 -24.276  0.00  0.00     0.000 A 
ENDROOT
TORSDOF 0
ENDMDL
MODEL 7
REMARK VINA RESULT:      -2.1      5.008      5.998
REMARK  0 active torsions:
REMARK  status: ('A' for Active; 'I' for Inactive)
ROOT
ATOM      1  N   UNL d   1      33.195  20.690 -20.973  0.00  0.00    -0.270 NA
ATOM      2  C   UNL d   1      33.220  21.739 -22.251  0.00  0.00    -0.001 A 
ATOM      3  C   UNL d   1      33.206  22.029 -21.479  0.00  0.00    -0.004 A 
ATOM      4  C   UNL d   1      33.210  20.408 -21.740  0.00  0.00     0.076 A 
ATOM      5  C   UNL d   1      33.193  21.504 -20.840  0.00  0.00     0.103 A 
ATOM      6  C   UNL d   1      33.222  20.932 -22.379  0.00  0.00     0.017 A 
ATOM      7  C   UNL d   1      33.233  22.264 -22.890  0.00  0.00    -0.000 C 
ATOM      8  C   UNL d   1      33.212  19.593 -21.874  0.00  0.00     0.019 A 
ATOM      9  C   UNL d   1      33.191  22.319 -20.706  0.00  0.00     0.029 C 
ATOM     10  C   UNL d   1      33.181  20.980 -20.200  0.00  0.00     0.029 C 
ATOM     11  C   UNL d   1      33.237  20.646 -23.148  0.00  0.00     0.002 A 
ATOM     12  C   UNL d   1      33.226  19.307 -22.643  0.00  0.00     0.002 A 
ATOM     13  C   UNL d   1      33.239  19.828 -23.285  0.00  0.00     0.000 A 
ENDROOT
TORSDOF 0
ENDMDL
MODEL 8
REMARK VINA RESULT:      -2.1      4.973      5.998
REMARK  0 active torsions:
REMARK  status: ('A' for Active; 'I' for Inactive)
ROOT
ATOM      1  N   UNL d   1      33.236  20.013 -21.753  0.00  0.00    -0.270 NA
ATOM      2  C   UNL d   1      33.230  21.358 -22.714  0.00  0.00    -0.001 A 
ATOM      3  C   UNL d   1      33.235  20.607 -23.055  0.00  0.00    -0.004 A 
ATOM      4  C   UNL d   1      33.232  20.759 -21.419  0.00  0.00     0.076 A 
ATOM      5  C   UNL d   1      33.238  19.934 -22.574  0.00  0.00     0.103 A 
ATOM      6  C   UNL d   1      33.229  21.432 -21.900  0.00  0.00     0.017 A 
ATOM      7  C   UNL d   1      33.228  22.031 -23.195  0.00  0.00    -0.000 C 
ATOM      8  C   UNL d   1      33.231  20.838 -20.598  0.00  0.00     0.019 A 
ATOM      9  C   UNL d   1      33.239  19.856 -23.396  0.00  0.00     0.029 C 
ATOM     10  C   UNL d   1      33.241  19.261 -22.093  0.00  0.00     0.029 C 
ATOM     11  C   UNL d   1      33.225  22.181 -21.563  0.00  0.00     0.002 A 
ATOM     12  C   UNL d   1      33.226  21.587 -20.261  0.00  0.00     0.002 A 
ATOM     13  C   UNL d   1      33.223  22.262 -20.738  0.00  0.00     0.000 A 
ENDROOT
TORSDOF 0
ENDMDL
MODEL 9
REMARK VINA RESULT:      -2.0      0.517      2.207
REMARK  0 active torsions:
REMARK  status: ('A' for Active; 'I' for Inactive)
ROOT
ATOM      1  N   UNL d   1      29.752  15.880 -23.331  0.00  0.00    -0.270 NA
ATOM      2  C   UNL d   1      29.327  17.080 -24.385  0.00  0.00    -0.001 A 
ATOM      3  C   UNL d   1      28.743  16.653 -23.988  0.00  0.00    -0.004 A 
ATOM      4  C   UNL d   1      30.327  16.305 -23.726  0.00  0.00     0.076 A 
ATOM      5  C   UNL d   1      28.956  16.053 -23.461  0.00  0.00     0.103 A 
ATOM      6  C   UNL d   1      30.114  16.905 -24.254  0.00  0.00     0.017 A 
ATOM      7  C   UNL d   1      29.115  17.680 -24.913  0.00  0.00    -0.000 C 
ATOM      8  C   UNL d   1      31.124  16.132 -23.596  0.00  0.00     0.019 A 
ATOM      9  C   UNL d   1      28.159  16.227 -23.591  0.00  0.00     0.029 C 
ATOM     10  C   UNL d   1      29.168  15.452 -22.933  0.00  0.00     0.029 C 
ATOM     11  C   UNL d   1      30.694  17.331 -24.650  0.00  0.00     0.002 A 
ATOM     12  C   UNL d   1      31.702  16.558 -23.992  0.00  0.00     0.002 A 
ATOM     13  C   UNL d   1      31.495  17.159 -24.521  0.00  0.00     0.000 A 
ENDROOT
TORSDOF 0
ENDMDL
