MODEL 1
REMARK VINA RESULT:       4.0      0.000      0.000
REMARK  4 active torsions:
REMARK  status: ('A' for Active; 'I' for Inactive)
REMARK    1  A    between atoms: N_10  and  C_3 
REMARK    2  A    between atoms: C_12  and  C_5 
REMARK    3  A    between atoms: C_20  and  N_11 
REMARK    4  A    between atoms: C_24  and  C_20 
ROOT
ATOM      1  N   UNL d   1      56.827   0.096  32.325  0.00  0.00    -0.196 N 
ATOM      2  C   UNL d   1      56.671   0.250  33.125  0.00  0.00     0.167 A 
ATOM      3  C   UNL d   1      57.602   0.129  32.055  0.00  0.00     0.152 A 
ATOM      4  N   UNL d   1      55.451  -0.116  32.104  0.00  0.00    -0.163 NA
ATOM      5  C   UNL d   1      55.915   0.222  33.411  0.00  0.00     0.055 A 
ATOM      6  N   UNL d   1      57.295   0.435  33.637  0.00  0.00    -0.227 NA
ATOM      7  C   UNL d   1      58.218   0.312  32.558  0.00  0.00     0.052 A 
ATOM      8  C   UNL d   1      55.297   0.038  32.900  0.00  0.00     0.104 A 
ATOM      9  C   UNL d   1      58.064   0.465  33.353  0.00  0.00     0.086 A 
ATOM     10  C   UNL d   1      58.992   0.340  32.265  0.00  0.00     0.004 A 
ATOM     11  C   UNL d   1      54.538   0.007  33.173  0.00  0.00     0.023 C 
ATOM     12  C   UNL d   1      58.682   0.650  33.865  0.00  0.00     0.019 A 
ATOM     13  C   UNL d   1      59.618   0.528  32.787  0.00  0.00     0.000 A 
ATOM     14  C   UNL d   1      59.463   0.682  33.583  0.00  0.00     0.002 A 
ENDROOT
BRANCH   3  15
ATOM     15  N   UNL d   1      57.763  -0.027  31.242  0.00  0.00    -0.286 N 
ATOM     16  C   UNL d   1      57.708   0.652  30.730  0.00  0.00     0.101 A 
ATOM     17  C   UNL d   1      57.857   0.574  29.897  0.00  0.00     0.100 A 
ATOM     18  N   UNL d   1      58.062  -0.186  29.572  0.00  0.00    -0.297 N 
ATOM     19  C   UNL d   1      58.116  -0.854  30.078  0.00  0.00     0.100 A 
ATOM     20  C   UNL d   1      57.966  -0.774  30.916  0.00  0.00     0.101 A 
BRANCH  18  21
ATOM     21  C   UNL d   1      58.210  -0.264  28.743  0.00  0.00     0.126 C 
BRANCH  21  22
ATOM     22  C   UNL d   1      58.963  -0.528  28.455  0.00  0.00     0.253 C 
ATOM     23  O   UNL d   1      59.644  -0.035  28.503  0.00  0.00    -0.281 OA
ENDBRANCH  21  22
ENDBRANCH  18  21
ENDBRANCH   3  15
BRANCH   5  24
ATOM     24  C   UNL d   1      55.761   0.376  34.207  0.00  0.00     0.004 A 
ATOM     25  C   UNL d   1      54.997   0.528  34.444  0.00  0.00     0.000 A 
ATOM     26  C   UNL d   1      54.843   0.682  35.240  0.00  0.00     0.000 A 
ATOM     27  C   UNL d   1      55.455   0.682  35.786  0.00  0.00     0.000 A 
ATOM     28  C   UNL d   1      56.221   0.528  35.537  0.00  0.00     0.000 A 
ATOM     29  C   UNL d   1      56.375   0.374  34.741  0.00  0.00     0.000 A 
ENDBRANCH   5  24
TORSDOF 4
ENDMDL
MODEL 2
REMARK VINA RESULT:       4.4      2.045      5.327
REMARK  4 active torsions:
REMARK  status: ('A' for Active; 'I' for Inactive)
REMARK    1  A    between atoms: N_10  and  C_3 
REMARK    2  A    between atoms: C_12  and  C_5 
REMARK    3  A    between atoms: C_20  and  N_11 
REMARK    4  A    between atoms: C_24  and  C_20 
ROOT
ATOM      1  N   UNL d   1      58.606   0.290  31.236  0.00  0.00    -0.196 N 
ATOM      2  C   UNL d   1      59.041   0.221  30.533  0.00  0.00     0.167 A 
ATOM      3  C   UNL d   1      57.796   0.422  31.192  0.00  0.00     0.152 A 
ATOM      4  N   UNL d   1      59.787   0.097  31.980  0.00  0.00    -0.163 NA
ATOM      5  C   UNL d   1      59.839   0.091  30.553  0.00  0.00     0.055 A 
ATOM      6  N   UNL d   1      58.657   0.285  29.802  0.00  0.00    -0.227 NA
ATOM      7  C   UNL d   1      57.415   0.485  30.473  0.00  0.00     0.052 A 
ATOM      8  C   UNL d   1      60.219   0.028  31.281  0.00  0.00     0.104 A 
ATOM      9  C   UNL d   1      57.848   0.416  29.774  0.00  0.00     0.086 A 
ATOM     10  C   UNL d   1      56.598   0.618  30.452  0.00  0.00     0.004 A 
ATOM     11  C   UNL d   1      61.015  -0.101  31.315  0.00  0.00     0.023 C 
ATOM     12  C   UNL d   1      57.468   0.480  29.047  0.00  0.00     0.019 A 
ATOM     13  C   UNL d   1      56.216   0.682  29.711  0.00  0.00     0.000 A 
ATOM     14  C   UNL d   1      56.649   0.613  29.012  0.00  0.00     0.002 A 
ENDROOT
BRANCH   3  15
ATOM     15  N   UNL d   1      57.351   0.493  31.904  0.00  0.00    -0.286 N 
ATOM     16  C   UNL d   1      57.811   0.435  32.620  0.00  0.00     0.101 A 
ATOM     17  C   UNL d   1      57.432   0.497  33.379  0.00  0.00     0.100 A 
ATOM     18  N   UNL d   1      56.590   0.617  33.424  0.00  0.00    -0.297 N 
ATOM     19  C   UNL d   1      56.139   0.674  32.718  0.00  0.00     0.100 A 
ATOM     20  C   UNL d   1      56.521   0.612  31.956  0.00  0.00     0.101 A 
BRANCH  18  21
ATOM     21  C   UNL d   1      56.213   0.679  34.179  0.00  0.00     0.126 C 
BRANCH  21  22
ATOM     22  C   UNL d   1      55.370   0.622  34.254  0.00  0.00     0.253 C 
ATOM     23  O   UNL d   1      55.010   0.467  34.998  0.00  0.00    -0.281 OA
ENDBRANCH  21  22
ENDBRANCH  18  21
ENDBRANCH   3  15
BRANCH   5  24
ATOM     24  C   UNL d   1      60.272   0.022  29.854  0.00  0.00     0.004 A 
ATOM     25  C   UNL d   1      60.639   0.680  29.545  0.00  0.00     0.000 A 
ATOM     26  C   UNL d   1      61.072   0.611  28.846  0.00  0.00     0.000 A 
ATOM     27  C   UNL d   1      61.131  -0.115  28.467  0.00  0.00     0.000 A 
ATOM     28  C   UNL d   1      60.758  -0.771  28.787  0.00  0.00     0.000 A 
ATOM     29  C   UNL d   1      60.325  -0.702  29.486  0.00  0.00     0.000 A 
ENDBRANCH   5  24
TORSDOF 4
ENDMDL
