MODEL 1
REMARK VINA RESULT:      73.5      0.000      0.000
REMARK  5 active torsions:
REMARK  status: ('A' for Active; 'I' for Inactive)
REMARK    1  A    between atoms: C_7  and  C_1 
REMARK    2  A    between atoms: C_10  and  C_6 
REMARK    3  A    between atoms: O_18  and  C_7 
REMARK    4  A    between atoms: N_8  and  C_10 
REMARK    5  A    between atoms: C_23  and  O_18 
ROOT
ATOM      1  C   UNL d   1     -55.341-100.844 -44.025  0.00  0.00     0.081 A 
ATOM      2  C   UNL d   1     -55.571-100.308 -44.609  0.00  0.00     0.069 A 
ATOM      3  C   UNL d   1     -55.232-100.412 -43.318  0.00  0.00     0.027 A 
ATOM      4  N   UNL d   1     -55.606 -99.557 -44.279  0.00  0.00    -0.304 N 
ATOM      5  C   UNL d   1     -55.395 -99.619 -43.474  0.00  0.00     0.065 A 
ATOM      6  C   UNL d   1     -55.007-100.648 -42.569  0.00  0.00     0.058 A 
ATOM      7  C   UNL d   1     -55.335 -99.058 -42.882  0.00  0.00     0.021 A 
ATOM      8  C   UNL d   1     -54.945-100.088 -41.968  0.00  0.00     0.197 A 
ATOM      9  C   UNL d   1     -55.109 -99.290 -42.125  0.00  0.00     0.044 A 
ATOM     10  C   UNL d   1     -55.738-100.507 -45.401  0.00  0.00     0.019 C 
ATOM     11  C   UNL d   1     -55.814 -98.858 -44.671  0.00  0.00     0.099 C 
ATOM     12  O   UNL d   1     -54.717-100.320 -41.204  0.00  0.00    -0.286 OA
ENDROOT
BRANCH   6  13
ATOM     13  C   UNL d   1     -54.845-101.443 -42.417  0.00  0.00     0.083 C 
BRANCH  13  14
ATOM     14  N   UNL d   1     -54.895-101.729 -41.642  0.00  0.00    -0.302 N 
ATOM     15  C   UNL d   1     -54.987-101.204 -41.018  0.00  0.00     0.080 A 
ATOM     16  C   UNL d   1     -55.037-101.492 -40.240  0.00  0.00     0.019 A 
ATOM     17  C   UNL d   1     -54.993-102.302 -40.097  0.00  0.00     0.003 A 
ATOM     18  C   UNL d   1     -54.900-102.829 -40.724  0.00  0.00     0.019 A 
ATOM     19  C   UNL d   1     -55.043-102.584 -39.324  0.00  0.00     0.000 C 
ATOM     20  C   UNL d   1     -54.851-102.540 -41.501  0.00  0.00     0.080 A 
ENDBRANCH  13  14
ENDBRANCH   6  13
BRANCH   1  21
ATOM     21  C   UNL d   1     -55.236-101.658 -44.115  0.00  0.00     0.302 C 
ATOM     22  O   UNL d   1     -55.052-102.127 -43.456  0.00  0.00    -0.259 OA
BRANCH  21  23
ATOM     23  O   UNL d   1     -55.316-101.995 -44.860  0.00  0.00    -0.271 OA
BRANCH  23  24
ATOM     24  C   UNL d   1     -54.845-102.642 -45.072  0.00  0.00     0.126 C 
ATOM     25  C   UNL d   1     -54.764-102.853 -45.863  0.00  0.00     0.029 C 
ENDBRANCH  23  24
ENDBRANCH  21  23
ENDBRANCH   1  21
TORSDOF 5
ENDMDL
