MODEL 1
REMARK VINA RESULT:      12.1      0.000      0.000
REMARK  4 active torsions:
REMARK  status: ('A' for Active; 'I' for Inactive)
REMARK    1  A    between atoms: C_6  and  C_1 
REMARK    2  A    between atoms: C_4  and  C_2 
REMARK    3  A    between atoms: C_3  and  N_5 
REMARK    4  A    between atoms: N_5  and  C_7 
ROOT
ATOM      1  C   UNL d   1      13.311  13.364  -3.766  0.00  0.00     0.073 A 
ATOM      2  C   UNL d   1      13.803  12.343  -2.906  0.00  0.00     0.081 A 
ATOM      3  C   UNL d   1      13.773  13.135  -3.129  0.00  0.00     0.023 A 
ATOM      4  C   UNL d   1      12.879  12.806  -4.180  0.00  0.00     0.004 A 
ATOM      5  C   UNL d   1      12.909  12.011  -3.957  0.00  0.00     0.002 A 
ATOM      6  C   UNL d   1      13.370  11.779  -3.321  0.00  0.00     0.019 A 
ENDROOT
BRANCH   2   7
ATOM      7  N   UNL d   1      14.265  12.109  -2.269  0.00  0.00    -0.245 NA
BRANCH   7   8
ATOM      8  C   UNL d   1      13.917  12.039  -1.521  0.00  0.00     0.087 A 
ATOM      9  C   UNL d   1      14.375  12.156  -0.842  0.00  0.00     0.082 A 
ATOM     10  C   UNL d   1      14.033  12.088  -0.094  0.00  0.00     0.008 A 
ATOM     11  C   UNL d   1      13.230  11.902  -0.021  0.00  0.00     0.000 A 
ATOM     12  C   UNL d   1      12.770  11.784  -0.695  0.00  0.00     0.002 A 
ATOM     13  C   UNL d   1      13.112  11.853  -1.448  0.00  0.00     0.019 A 
BRANCH   9  14
ATOM     14  C   UNL d   1      15.186  12.344  -0.913  0.00  0.00     0.212 C 
ATOM     15  O   UNL d   1      15.495  12.961  -0.466  0.00  0.00    -0.644 OA
ATOM     16  O   UNL d   1      15.659  11.913  -1.425  0.00  0.00    -0.644 OA
ENDBRANCH   9  14
ENDBRANCH   7   8
ENDBRANCH   2   7
BRANCH   1  17
ATOM     17  C   UNL d   1      13.281  14.156  -3.989  0.00  0.00     0.419 C 
ATOM     18  F   UNL d   1      12.874  14.381  -4.679  0.00  0.00    -0.166 F 
ATOM     19  F   UNL d   1      13.656  14.734  -3.528  0.00  0.00    -0.166 F 
ATOM     20  F   UNL d   1      13.133  14.870  -4.381  0.00  0.00    -0.166 F 
ENDBRANCH   1  17
TORSDOF 4
ENDMDL
