MODEL 1
REMARK VINA RESULT:      36.3      0.000      0.000
REMARK  7 active torsions:
REMARK  status: ('A' for Active; 'I' for Inactive)
REMARK    1  A    between atoms: C_3  and  C_1 
REMARK    2  A    between atoms: C_6  and  C_1 
REMARK    3  A    between atoms: C_2  and  C_3 
REMARK       I    between atoms: N_4  and  C_2 
REMARK    4  A    between atoms: C_12  and  N_4 
REMARK    5  A    between atoms: N_7  and  C_5 
REMARK    6  A    between atoms: C_16  and  N_7 
REMARK    7  A    between atoms: C_17  and  N_7 
ROOT
ATOM      1  C   UNL d   1      15.124  15.888  -0.669  0.00  0.00     0.279 C 
ATOM      2  N   UNL d   1      15.119  15.379  -0.024  0.00  0.00    -0.208 NA
ATOM      3  O   UNL d   1      15.281  16.693  -0.547  0.00  0.00    -0.265 OA
ENDROOT
BRANCH   2   4
ATOM      4  C   UNL d   1      14.964  14.583  -0.145  0.00  0.00     0.085 A 
ATOM      5  C   UNL d   1      15.570  14.081  -0.398  0.00  0.00     0.021 A 
ATOM      6  C   UNL d   1      15.413  13.276  -0.520  0.00  0.00     0.019 A 
ATOM      7  C   UNL d   1      14.664  12.974  -0.393  0.00  0.00     0.064 A 
ATOM      8  C   UNL d   1      14.053  13.483  -0.137  0.00  0.00     0.019 A 
ATOM      9  C   UNL d   1      14.210  14.289  -0.015  0.00  0.00     0.021 A 
BRANCH   7  10
ATOM     10  N   UNL d   1      14.509  12.182  -0.513  0.00  0.00    -0.304 N 
BRANCH  10  11
ATOM     11  C   UNL d   1      14.869  11.783  -1.150  0.00  0.00     0.080 C 
ATOM     12  C   UNL d   1      14.516  11.805  -1.903  0.00  0.00     0.021 C 
ENDBRANCH  10  11
BRANCH  10  13
ATOM     13  C   UNL d   1      14.004  11.779  -0.014  0.00  0.00     0.080 C 
ATOM     14  C   UNL d   1      13.195  11.905  -0.071  0.00  0.00     0.021 C 
ENDBRANCH  10  13
ENDBRANCH   7  10
ENDBRANCH   2   4
BRANCH   1  15
ATOM     15  C   UNL d   1      14.978  15.620  -1.427  0.00  0.00     0.063 C 
BRANCH  15  16
ATOM     16  C   UNL d   1      15.042  16.134  -2.069  0.00  0.00     0.006 C 
BRANCH  16  17
ATOM     17  C   UNL d   1      14.706  15.941  -2.795  0.00  0.00     0.011 A 
ATOM     18  C   UNL d   1      14.847  16.391  -3.460  0.00  0.00     0.058 A 
ATOM     19 CL   UNL d   1      15.326  17.039  -3.404  0.00  0.00    -0.082 Cl
ATOM     20  C   UNL d   1      14.506  16.195  -4.195  0.00  0.00     0.011 A 
ATOM     21  C   UNL d   1      14.025  15.550  -4.264  0.00  0.00     0.001 A 
ATOM     22  C   UNL d   1      13.878  15.087  -3.589  0.00  0.00     0.000 A 
ATOM     23  C   UNL d   1      14.211  15.278  -2.869  0.00  0.00     0.001 A 
ENDBRANCH  16  17
ENDBRANCH  15  16
ENDBRANCH   1  15
TORSDOF 7
ENDMDL
MODEL 2
REMARK VINA RESULT:      37.0      2.375      4.874
REMARK  7 active torsions:
REMARK  status: ('A' for Active; 'I' for Inactive)
REMARK    1  A    between atoms: C_3  and  C_1 
REMARK    2  A    between atoms: C_6  and  C_1 
REMARK    3  A    between atoms: C_2  and  C_3 
REMARK       I    between atoms: N_4  and  C_2 
REMARK    4  A    between atoms: C_12  and  N_4 
REMARK    5  A    between atoms: N_7  and  C_5 
REMARK    6  A    between atoms: C_16  and  N_7 
REMARK    7  A    between atoms: C_17  and  N_7 
ROOT
ATOM      1  C   UNL d   1      13.217  12.494  -3.754  0.00  0.00     0.279 C 
ATOM      2  N   UNL d   1      13.158  13.142  -4.256  0.00  0.00    -0.208 NA
ATOM      3  O   UNL d   1      12.858  11.780  -3.972  0.00  0.00    -0.265 OA
ENDROOT
BRANCH   2   4
ATOM      4  C   UNL d   1      13.513  13.848  -4.040  0.00  0.00     0.085 A 
ATOM      5  C   UNL d   1      13.219  14.274  -3.396  0.00  0.00     0.021 A 
ATOM      6  C   UNL d   1      13.578  14.989  -3.177  0.00  0.00     0.019 A 
ATOM      7  C   UNL d   1      14.221  15.276  -3.593  0.00  0.00     0.064 A 
ATOM      8  C   UNL d   1      14.516  14.844  -4.244  0.00  0.00     0.019 A 
ATOM      9  C   UNL d   1      14.156  14.129  -4.463  0.00  0.00     0.021 A 
BRANCH   7  10
ATOM     10  N   UNL d   1      14.574  15.979  -3.378  0.00  0.00    -0.304 N 
BRANCH  10  11
ATOM     11  C   UNL d   1      14.486  16.265  -2.600  0.00  0.00     0.080 C 
ATOM     12  C   UNL d   1      15.056  16.076  -2.024  0.00  0.00     0.021 C 
ENDBRANCH  10  11
BRANCH  10  13
ATOM     13  C   UNL d   1      15.014  16.404  -3.920  0.00  0.00     0.080 C 
ATOM     14  C   UNL d   1      14.739  17.133  -4.179  0.00  0.00     0.021 C 
ENDBRANCH  10  13
ENDBRANCH   7  10
ENDBRANCH   2   4
BRANCH   1  15
ATOM     15  C   UNL d   1      13.622  12.538  -3.045  0.00  0.00     0.063 C 
BRANCH  15  16
ATOM     16  C   UNL d   1      13.859  11.848  -2.659  0.00  0.00     0.006 C 
BRANCH  16  17
ATOM     17  C   UNL d   1      13.915  11.827  -1.838  0.00  0.00     0.011 A 
ATOM     18  C   UNL d   1      14.639  11.830  -1.463  0.00  0.00     0.058 A 
ATOM     19 CL   UNL d   1      15.313  11.856  -1.907  0.00  0.00    -0.082 Cl
ATOM     20  C   UNL d   1      14.696  11.809  -0.633  0.00  0.00     0.011 A 
ATOM     21  C   UNL d   1      14.029  11.783  -0.178  0.00  0.00     0.001 A 
ATOM     22  C   UNL d   1      13.287  11.779  -0.554  0.00  0.00     0.000 A 
ATOM     23  C   UNL d   1      13.232  11.800  -1.368  0.00  0.00     0.001 A 
ENDBRANCH  16  17
ENDBRANCH  15  16
ENDBRANCH   1  15
TORSDOF 7
ENDMDL
