MODEL 1
REMARK VINA RESULT:       1.0      0.000      0.000
REMARK  2 active torsions:
REMARK  status: ('A' for Active; 'I' for Inactive)
REMARK    1  A    between atoms: N_11  and  C_4 
REMARK    2  A    between atoms: C_16  and  N_12 
ROOT
ATOM      1  N   UNL d   1     -41.660-122.295 -52.228  0.00  0.00    -0.195 N 
ATOM      2  C   UNL d   1     -41.617-121.977 -52.972  0.00  0.00     0.168 A 
ATOM      3  C   UNL d   1     -41.743-122.431 -53.616  0.00  0.00     0.073 A 
ATOM      4  C   UNL d   1     -41.532-121.827 -51.594  0.00  0.00     0.153 A 
ATOM      5  N   UNL d   1     -41.955-123.523 -52.770  0.00  0.00    -0.143 NA
ATOM      6  C   UNL d   1     -41.912-123.205 -53.513  0.00  0.00     0.185 A 
ATOM      7  N   UNL d   1     -41.446-121.199 -53.063  0.00  0.00    -0.227 NA
ATOM      8  C   UNL d   1     -41.700-122.117 -54.352  0.00  0.00     0.007 A 
ATOM      9  N   UNL d   1     -42.042-123.678 -54.156  0.00  0.00    -0.225 NA
ATOM     10  C   UNL d   1     -41.363-121.056 -51.681  0.00  0.00     0.057 A 
ATOM     11  C   UNL d   1     -41.826-122.571 -54.996  0.00  0.00     0.019 A 
ATOM     12  C   UNL d   1     -41.319-120.738 -52.425  0.00  0.00     0.086 A 
ATOM     13  C   UNL d   1     -41.999-123.360 -54.900  0.00  0.00     0.083 A 
ATOM     14  C   UNL d   1     -41.529-121.335 -54.442  0.00  0.00     0.000 C 
ATOM     15  C   UNL d   1     -41.142-119.929 -52.516  0.00  0.00     0.021 C 
ATOM     16  C   UNL d   1     -42.125-123.817 -55.537  0.00  0.00     0.021 C 
ENDROOT
BRANCH   4  17
ATOM     17  N   UNL d   1     -41.578-122.162 -50.831  0.00  0.00    -0.286 N 
ATOM     18  C   UNL d   1     -41.132-122.824 -50.612  0.00  0.00     0.101 A 
ATOM     19  C   UNL d   1     -41.203-123.131 -49.846  0.00  0.00     0.100 A 
ATOM     20  N   UNL d   1     -41.719-122.780 -49.296  0.00  0.00    -0.301 N 
ATOM     21  C   UNL d   1     -42.176-122.107 -49.511  0.00  0.00     0.100 A 
ATOM     22  C   UNL d   1     -42.102-121.803 -50.278  0.00  0.00     0.101 A 
BRANCH  20  23
ATOM     23  C   UNL d   1     -41.787-123.089 -48.531  0.00  0.00     0.064 A 
ATOM     24  C   UNL d   1     -42.467-123.503 -48.306  0.00  0.00     0.016 A 
ATOM     25  C   UNL d   1     -43.083-123.609 -48.844  0.00  0.00     0.002 C 
ATOM     26  C   UNL d   1     -42.537-123.817 -47.530  0.00  0.00     0.001 A 
ATOM     27  C   UNL d   1     -41.914-123.712 -46.979  0.00  0.00     0.000 A 
ATOM     28  C   UNL d   1     -41.225-123.292 -47.212  0.00  0.00     0.002 A 
ATOM     29  C   UNL d   1     -41.164-122.983 -47.983  0.00  0.00     0.018 A 
ENDBRANCH  20  23
ENDBRANCH   4  17
TORSDOF 2
ENDMDL
