MODEL 1
REMARK VINA RESULT:      -0.4      0.000      0.000
REMARK  2 active torsions:
REMARK  status: ('A' for Active; 'I' for Inactive)
REMARK    1  A    between atoms: N_2  and  C_1 
REMARK    2  A    between atoms: C_5  and  N_2 
ROOT
ATOM      1  C   UNL d   1      45.479 -13.245  44.216  0.00  0.00     0.084 A 
ATOM      2  C   UNL d   1      44.774 -13.670  44.249  0.00  0.00     0.019 A 
ATOM      3  C   UNL d   1      46.164 -13.546  44.545  0.00  0.00     0.019 A 
ATOM      4  C   UNL d   1      46.155 -14.283  44.916  0.00  0.00     0.001 A 
ATOM      5  C   UNL d   1      44.759 -14.409  44.620  0.00  0.00     0.001 A 
ATOM      6  C   UNL d   1      45.447 -14.721  44.955  0.00  0.00     0.000 A 
ENDROOT
BRANCH   1   7
ATOM      7  N   UNL d   1      45.497 -12.507  43.847  0.00  0.00    -0.216 NA
BRANCH   7   8
ATOM      8  C   UNL d   1      45.162 -12.406  43.106  0.00  0.00     0.241 C 
ATOM      9  S   UNL d   1      44.404 -12.102  43.023  0.00  0.00    -0.036 SA
ATOM     10  N   UNL d   1      45.594 -12.613  42.431  0.00  0.00    -0.114 N 
ENDBRANCH   7   8
ENDBRANCH   1   7
TORSDOF 2
ENDMDL
MODEL 2
REMARK VINA RESULT:      -0.0      5.782      6.338
REMARK  2 active torsions:
REMARK  status: ('A' for Active; 'I' for Inactive)
REMARK    1  A    between atoms: N_2  and  C_1 
REMARK    2  A    between atoms: C_5  and  N_2 
ROOT
ATOM      1  C   UNL d   1      46.499 -19.671  43.177  0.00  0.00     0.084 A 
ATOM      2  C   UNL d   1      46.647 -18.948  43.544  0.00  0.00     0.019 A 
ATOM      3  C   UNL d   1      46.297 -20.330  43.618  0.00  0.00     0.019 A 
ATOM      4  C   UNL d   1      46.238 -20.274  44.440  0.00  0.00     0.001 A 
ATOM      5  C   UNL d   1      46.589 -18.888  44.367  0.00  0.00     0.001 A 
ATOM      6  C   UNL d   1      46.385 -19.547  44.820  0.00  0.00     0.000 A 
ENDROOT
BRANCH   1   7
ATOM      7  N   UNL d   1      46.556 -19.735  42.357  0.00  0.00    -0.216 NA
BRANCH   7   8
ATOM      8  C   UNL d   1      46.307 -19.121  41.875  0.00  0.00     0.241 C 
ATOM      9  S   UNL d   1      46.646 -18.998  41.138  0.00  0.00    -0.036 SA
ATOM     10  N   UNL d   1      45.706 -18.616  42.135  0.00  0.00    -0.114 N 
ENDBRANCH   7   8
ENDBRANCH   1   7
TORSDOF 2
ENDMDL
MODEL 3
REMARK VINA RESULT:       0.2      1.715      2.433
REMARK  2 active torsions:
REMARK  status: ('A' for Active; 'I' for Inactive)
REMARK    1  A    between atoms: N_2  and  C_1 
REMARK    2  A    between atoms: C_5  and  N_2 
ROOT
ATOM      1  C   UNL d   1      45.504 -13.387  44.441  0.00  0.00     0.084 A 
ATOM      2  C   UNL d   1      44.952 -13.419  43.831  0.00  0.00     0.019 A 
ATOM      3  C   UNL d   1      45.975 -12.727  44.545  0.00  0.00     0.019 A 
ATOM      4  C   UNL d   1      45.900 -12.082  44.036  0.00  0.00     0.001 A 
ATOM      5  C   UNL d   1      44.873 -12.775  43.318  0.00  0.00     0.001 A 
ATOM      6  C   UNL d   1      45.344 -12.104  43.415  0.00  0.00     0.000 A 
ENDROOT
BRANCH   1   7
ATOM      7  N   UNL d   1      45.586 -14.028  44.955  0.00  0.00    -0.216 NA
BRANCH   7   8
ATOM      8  C   UNL d   1      45.126 -14.699  44.857  0.00  0.00     0.241 C 
ATOM      9  S   UNL d   1      45.468 -15.420  44.667  0.00  0.00    -0.036 SA
ATOM     10  N   UNL d   1      44.306 -14.649  44.951  0.00  0.00    -0.114 N 
ENDBRANCH   7   8
ENDBRANCH   1   7
TORSDOF 2
ENDMDL
MODEL 4
REMARK VINA RESULT:       0.8      7.088      7.684
REMARK  2 active torsions:
REMARK  status: ('A' for Active; 'I' for Inactive)
REMARK    1  A    between atoms: N_2  and  C_1 
REMARK    2  A    between atoms: C_5  and  N_2 
ROOT
ATOM      1  C   UNL d   1      45.234 -15.295  36.598  0.00  0.00     0.084 A 
ATOM      2  C   UNL d   1      45.996 -15.461  36.335  0.00  0.00     0.019 A 
ATOM      3  C   UNL d   1      45.097 -14.685  37.125  0.00  0.00     0.019 A 
ATOM      4  C   UNL d   1      45.727 -14.226  37.399  0.00  0.00     0.001 A 
ATOM      5  C   UNL d   1      46.631 -15.005  36.606  0.00  0.00     0.001 A 
ATOM      6  C   UNL d   1      46.502 -14.386  37.138  0.00  0.00     0.000 A 
ENDROOT
BRANCH   1   7
ATOM      7  N   UNL d   1      44.599 -15.749  36.330  0.00  0.00    -0.216 NA
BRANCH   7   8
ATOM      8  C   UNL d   1      43.913 -15.806  36.775  0.00  0.00     0.241 C 
ATOM      9  S   UNL d   1      43.209 -15.479  36.510  0.00  0.00    -0.036 SA
ATOM     10  N   UNL d   1      43.930 -16.201  37.501  0.00  0.00    -0.114 N 
ENDBRANCH   7   8
ENDBRANCH   1   7
TORSDOF 2
ENDMDL
MODEL 5
REMARK VINA RESULT:       1.6      7.237      7.728
REMARK  2 active torsions:
REMARK  status: ('A' for Active; 'I' for Inactive)
REMARK    1  A    between atoms: N_2  and  C_1 
REMARK    2  A    between atoms: C_5  and  N_2 
ROOT
ATOM      1  C   UNL d   1      44.945 -15.411  36.502  0.00  0.00     0.084 A 
ATOM      2  C   UNL d   1      44.386 -14.870  36.774  0.00  0.00     0.019 A 
ATOM      3  C   UNL d   1      44.732 -16.182  36.330  0.00  0.00     0.019 A 
ATOM      4  C   UNL d   1      43.949 -16.425  36.428  0.00  0.00     0.001 A 
ATOM      5  C   UNL d   1      43.601 -15.109  36.873  0.00  0.00     0.001 A 
ATOM      6  C   UNL d   1      43.377 -15.885  36.702  0.00  0.00     0.000 A 
ENDROOT
BRANCH   1   7
ATOM      7  N   UNL d   1      45.729 -15.176  36.402  0.00  0.00    -0.216 NA
BRANCH   7   8
ATOM      8  C   UNL d   1      46.113 -14.749  36.988  0.00  0.00     0.241 C 
ATOM      9  S   UNL d   1      46.647 -15.113  37.494  0.00  0.00    -0.036 SA
ATOM     10  N   UNL d   1      45.959 -13.941  37.070  0.00  0.00    -0.114 N 
ENDBRANCH   7   8
ENDBRANCH   1   7
TORSDOF 2
ENDMDL
