MODEL 1
REMARK VINA RESULT:      14.1      0.000      0.000
REMARK  3 active torsions:
REMARK  status: ('A' for Active; 'I' for Inactive)
REMARK    1  A    between atoms: N_5  and  C_2 
REMARK    2  A    between atoms: C_8  and  C_3 
REMARK       I    between atoms: C_7  and  N_5 
REMARK    3  A    between atoms: C_10  and  C_7 
ROOT
ATOM      1  N   UNL d   1      46.187 -15.095  44.611  0.00  0.00    -0.200 NA
ATOM      2  C   UNL d   1      45.743 -14.443  44.842  0.00  0.00     0.216 A 
ATOM      3  C   UNL d   1      45.672 -15.749  44.569  0.00  0.00     0.172 A 
ATOM      4  N   UNL d   1      44.914 -15.478  44.778  0.00  0.00    -0.187 NA
ATOM      5  S   UNL d   1      44.969 -14.671  44.945  0.00  0.00     0.054 SA
ENDROOT
BRANCH   2   6
ATOM      6  N   UNL d   1      46.037 -13.666  44.955  0.00  0.00    -0.181 NA
ATOM      7  C   UNL d   1      45.817 -13.053  44.456  0.00  0.00     0.281 C 
ATOM      8  O   UNL d   1      46.115 -12.295  44.580  0.00  0.00    -0.265 OA
BRANCH   7   9
ATOM      9  C   UNL d   1      45.298 -13.198  43.832  0.00  0.00     0.058 C 
ATOM     10  C   UNL d   1      44.491 -13.287  43.975  0.00  0.00     0.005 C 
ATOM     11  C   UNL d   1      45.589 -13.253  43.062  0.00  0.00     0.005 C 
ENDBRANCH   7   9
ENDBRANCH   2   6
BRANCH   3  12
ATOM     12  C   UNL d   1      45.846 -16.529  44.363  0.00  0.00     0.036 A 
ATOM     13  C   UNL d   1      45.948 -17.105  44.954  0.00  0.00     0.003 A 
ATOM     14  C   UNL d   1      46.122 -17.884  44.749  0.00  0.00     0.000 A 
ATOM     15  C   UNL d   1      46.196 -18.097  43.949  0.00  0.00     0.000 A 
ATOM     16  C   UNL d   1      46.094 -17.522  43.358  0.00  0.00     0.000 A 
ATOM     17  C   UNL d   1      45.920 -16.741  43.564  0.00  0.00     0.003 A 
ENDBRANCH   3  12
TORSDOF 3
ENDMDL
