MODEL 1
REMARK VINA RESULT:      -3.9      0.000      0.000
REMARK  3 active torsions:
REMARK  status: ('A' for Active; 'I' for Inactive)
REMARK    1  A    between atoms: S_10  and  C_2 
REMARK    2  A    between atoms: C_9  and  C_4 
REMARK    3  A    between atoms: C_17  and  C_12 
ROOT
ATOM      1  C   UNL d   1      56.713   0.341  33.489  0.00  0.00     0.092 A 
ATOM      2  C   UNL d   1      56.287   0.426  34.172  0.00  0.00     0.119 A 
ATOM      3  N   UNL d   1      55.473   0.256  34.175  0.00  0.00    -0.201 NA
ATOM      4  C   UNL d   1      56.334   0.084  32.795  0.00  0.00     0.016 A 
ATOM      5  C   UNL d   1      55.102   0.002  33.486  0.00  0.00     0.280 A 
ATOM      6  C   UNL d   1      57.523   0.510  33.483  0.00  0.00     0.103 C 
ATOM      7  N   UNL d   1      58.334   0.681  33.485  0.00  0.00    -0.191 NA
ATOM      8  C   UNL d   1      55.528  -0.083  32.802  0.00  0.00     0.063 A 
ATOM      9  O   UNL d   1      54.292  -0.167  33.491  0.00  0.00    -0.265 OA
ENDROOT
BRANCH   2  10
ATOM     10  S   UNL d   1      56.663   0.682  34.864  0.00  0.00    -0.093 SA
ATOM     11  C   UNL d   1      56.254   0.682  35.588  0.00  0.00     0.076 C 
ENDBRANCH   2  10
BRANCH   4  12
ATOM     12  C   UNL d   1      56.765  -0.002  32.102  0.00  0.00     0.001 A 
ATOM     13  C   UNL d   1      56.942   0.661  31.666  0.00  0.00     0.000 A 
ATOM     14  C   UNL d   1      57.378   0.584  30.964  0.00  0.00     0.000 A 
ATOM     15  C   UNL d   1      57.627  -0.143  30.714  0.00  0.00     0.000 A 
ATOM     16  C   UNL d   1      57.445  -0.809  31.160  0.00  0.00     0.000 A 
ATOM     17  C   UNL d   1      57.006  -0.737  31.868  0.00  0.00     0.000 A 
BRANCH  15  18
ATOM     18  C   UNL d   1      58.110  -0.239  29.939  0.00  0.00     0.000 C 
ATOM     19  C   UNL d   1      58.481   0.538  29.255  0.00  0.00     0.000 C 
ATOM     20  C   UNL d   1      58.473  -1.266  29.456  0.00  0.00     0.000 C 
ENDBRANCH  15  18
ENDBRANCH   4  12
TORSDOF 3
ENDMDL
