MODEL 1
REMARK VINA RESULT:      11.2      0.000      0.000
REMARK  2 active torsions:
REMARK  status: ('A' for Active; 'I' for Inactive)
REMARK    1  A    between atoms: C_7  and  C_1 
REMARK    2  A    between atoms: O_14  and  C_11 
ROOT
ATOM      1  C   UNL d   1      46.562 -19.110  43.313  0.00  0.00     0.066 A 
ATOM      2  C   UNL d   1      46.566 -19.490  42.549  0.00  0.00     0.200 A 
ATOM      3  C   UNL d   1      46.586 -19.025  41.868  0.00  0.00     0.062 A 
ATOM      4  C   UNL d   1      46.577 -18.286  43.362  0.00  0.00     0.126 A 
ATOM      5  C   UNL d   1      46.601 -18.201  41.917  0.00  0.00     0.106 A 
ATOM      6  O   UNL d   1      46.597 -17.819  42.647  0.00  0.00    -0.305 OA
ATOM      7  C   UNL d   1      46.590 -19.406  41.115  0.00  0.00     0.009 A 
ATOM      8  C   UNL d   1      46.621 -17.735  41.214  0.00  0.00     0.067 A 
ATOM      9  O   UNL d   1      46.551 -20.329  42.499  0.00  0.00    -0.286 OA
ATOM     10  C   UNL d   1      46.625 -18.115  40.457  0.00  0.00     0.198 A 
ATOM     11  C   UNL d   1      46.610 -18.939  40.409  0.00  0.00     0.042 A 
ATOM     12  O   UNL d   1      46.645 -17.649  39.752  0.00  0.00    -0.286 OA
ENDROOT
BRANCH   1  13
ATOM     13  C   UNL d   1      46.548 -19.431  43.798  0.00  0.00     0.027 A 
ATOM     14  C   UNL d   1      46.458 -19.180  44.308  0.00  0.00     0.094 A 
ATOM     15  C   UNL d   1      46.443 -19.494  44.795  0.00  0.00     0.024 A 
ATOM     16  C   UNL d   1      46.522 -20.071  44.758  0.00  0.00     0.002 A 
ATOM     17  C   UNL d   1      46.612 -20.322  44.247  0.00  0.00     0.000 A 
ATOM     18  C   UNL d   1      46.626 -20.001  43.763  0.00  0.00     0.002 A 
BRANCH  14  19
ATOM     19  O   UNL d   1      46.378 -18.597  44.343  0.00  0.00    -0.328 OA
ATOM     20  C   UNL d   1      46.295 -18.345  44.855  0.00  0.00     0.181 C 
ENDBRANCH  14  19
ENDBRANCH   1  13
TORSDOF 2
ENDMDL
MODEL 2
REMARK VINA RESULT:      11.6      4.534      5.894
REMARK  2 active torsions:
REMARK  status: ('A' for Active; 'I' for Inactive)
REMARK    1  A    between atoms: C_7  and  C_1 
REMARK    2  A    between atoms: O_14  and  C_11 
ROOT
ATOM      1  C   UNL d   1      45.565 -13.721  44.040  0.00  0.00     0.066 A 
ATOM      2  C   UNL d   1      44.999 -14.278  44.353  0.00  0.00     0.200 A 
ATOM      3  C   UNL d   1      45.235 -15.055  44.495  0.00  0.00     0.062 A 
ATOM      4  C   UNL d   1      46.338 -13.965  43.883  0.00  0.00     0.126 A 
ATOM      5  C   UNL d   1      46.008 -15.300  44.338  0.00  0.00     0.106 A 
ATOM      6  O   UNL d   1      46.566 -14.774  44.035  0.00  0.00    -0.305 OA
ATOM      7  C   UNL d   1      44.672 -15.601  44.805  0.00  0.00     0.009 A 
ATOM      8  C   UNL d   1      46.239 -16.097  44.487  0.00  0.00     0.067 A 
ATOM      9  O   UNL d   1      44.212 -14.029  44.513  0.00  0.00    -0.286 OA
ATOM     10  C   UNL d   1      45.675 -16.647  44.798  0.00  0.00     0.198 A 
ATOM     11  C   UNL d   1      44.902 -16.402  44.955  0.00  0.00     0.042 A 
ATOM     12  O   UNL d   1      45.905 -17.447  44.947  0.00  0.00    -0.286 OA
ENDROOT
BRANCH   1  13
ATOM     13  C   UNL d   1      45.406 -13.171  43.937  0.00  0.00     0.027 A 
ATOM     14  C   UNL d   1      45.622 -12.743  44.257  0.00  0.00     0.094 A 
ATOM     15  C   UNL d   1      45.468 -12.193  44.160  0.00  0.00     0.024 A 
ATOM     16  C   UNL d   1      45.089 -12.080  43.730  0.00  0.00     0.002 A 
ATOM     17  C   UNL d   1      44.873 -12.508  43.411  0.00  0.00     0.000 A 
ATOM     18  C   UNL d   1      45.032 -13.058  43.513  0.00  0.00     0.002 A 
BRANCH  14  19
ATOM     19  O   UNL d   1      46.004 -12.860  44.690  0.00  0.00    -0.328 OA
ATOM     20  C   UNL d   1      46.335 -12.439  44.907  0.00  0.00     0.181 C 
ENDBRANCH  14  19
ENDBRANCH   1  13
TORSDOF 2
ENDMDL
MODEL 3
REMARK VINA RESULT:      12.9      4.432      5.811
REMARK  2 active torsions:
REMARK  status: ('A' for Active; 'I' for Inactive)
REMARK    1  A    between atoms: C_7  and  C_1 
REMARK    2  A    between atoms: O_14  and  C_11 
ROOT
ATOM      1  C   UNL d   1      45.389 -13.750  44.357  0.00  0.00     0.066 A 
ATOM      2  C   UNL d   1      45.953 -14.345  44.119  0.00  0.00     0.200 A 
ATOM      3  C   UNL d   1      45.808 -15.135  44.305  0.00  0.00     0.062 A 
ATOM      4  C   UNL d   1      44.708 -13.971  44.769  0.00  0.00     0.126 A 
ATOM      5  C   UNL d   1      45.127 -15.356  44.718  0.00  0.00     0.106 A 
ATOM      6  O   UNL d   1      44.573 -14.794  44.955  0.00  0.00    -0.305 OA
ATOM      7  C   UNL d   1      46.368 -15.719  44.068  0.00  0.00     0.009 A 
ATOM      8  C   UNL d   1      44.988 -16.167  44.903  0.00  0.00     0.067 A 
ATOM      9  O   UNL d   1      46.646 -14.120  43.699  0.00  0.00    -0.286 OA
ATOM     10  C   UNL d   1      45.550 -16.755  44.665  0.00  0.00     0.198 A 
ATOM     11  C   UNL d   1      46.230 -16.534  44.253  0.00  0.00     0.042 A 
ATOM     12  O   UNL d   1      45.412 -17.569  44.851  0.00  0.00    -0.286 OA
ENDROOT
BRANCH   1  13
ATOM     13  C   UNL d   1      45.484 -13.191  44.229  0.00  0.00     0.027 A 
ATOM     14  C   UNL d   1      45.197 -12.940  43.798  0.00  0.00     0.094 A 
ATOM     15  C   UNL d   1      45.287 -12.383  43.666  0.00  0.00     0.024 A 
ATOM     16  C   UNL d   1      45.676 -12.081  43.979  0.00  0.00     0.002 A 
ATOM     17  C   UNL d   1      45.964 -12.332  44.410  0.00  0.00     0.000 A 
ATOM     18  C   UNL d   1      45.868 -12.891  44.538  0.00  0.00     0.002 A 
BRANCH  14  19
ATOM     19  O   UNL d   1      44.804 -13.247  43.484  0.00  0.00    -0.328 OA
ATOM     20  C   UNL d   1      44.522 -12.998  43.047  0.00  0.00     0.181 C 
ENDBRANCH  14  19
ENDBRANCH   1  13
TORSDOF 2
ENDMDL
MODEL 4
REMARK VINA RESULT:      14.0      0.657      1.508
REMARK  2 active torsions:
REMARK  status: ('A' for Active; 'I' for Inactive)
REMARK    1  A    between atoms: C_7  and  C_1 
REMARK    2  A    between atoms: O_14  and  C_11 
ROOT
ATOM      1  C   UNL d   1      46.466 -19.027  43.304  0.00  0.00     0.066 A 
ATOM      2  C   UNL d   1      46.401 -18.470  42.661  0.00  0.00     0.200 A 
ATOM      3  C   UNL d   1      46.459 -18.742  41.885  0.00  0.00     0.062 A 
ATOM      4  C   UNL d   1      46.585 -19.828  43.143  0.00  0.00     0.126 A 
ATOM      5  C   UNL d   1      46.579 -19.543  41.723  0.00  0.00     0.106 A 
ATOM      6  O   UNL d   1      46.644 -20.094  42.334  0.00  0.00    -0.305 OA
ATOM      7  C   UNL d   1      46.394 -18.188  41.253  0.00  0.00     0.009 A 
ATOM      8  C   UNL d   1      46.637 -19.811  40.926  0.00  0.00     0.067 A 
ATOM      9  O   UNL d   1      46.279 -17.654  42.825  0.00  0.00    -0.286 OA
ATOM     10  C   UNL d   1      46.573 -19.256  40.290  0.00  0.00     0.198 A 
ATOM     11  C   UNL d   1      46.453 -18.455  40.451  0.00  0.00     0.042 A 
ATOM     12  O   UNL d   1      46.631 -19.523  39.489  0.00  0.00    -0.286 OA
ENDROOT
BRANCH   1  13
ATOM     13  C   UNL d   1      46.425 -18.843  43.854  0.00  0.00     0.027 A 
ATOM     14  C   UNL d   1      46.352 -19.222  44.282  0.00  0.00     0.094 A 
ATOM     15  C   UNL d   1      46.311 -19.045  44.832  0.00  0.00     0.024 A 
ATOM     16  C   UNL d   1      46.346 -18.473  44.945  0.00  0.00     0.002 A 
ATOM     17  C   UNL d   1      46.420 -18.094  44.518  0.00  0.00     0.000 A 
ATOM     18  C   UNL d   1      46.460 -18.279  43.967  0.00  0.00     0.002 A 
BRANCH  14  19
ATOM     19  O   UNL d   1      46.317 -19.798  44.165  0.00  0.00    -0.328 OA
ATOM     20  C   UNL d   1      46.370 -20.185  44.589  0.00  0.00     0.181 C 
ENDBRANCH  14  19
ENDBRANCH   1  13
TORSDOF 2
ENDMDL
