MODEL 1
REMARK VINA RESULT:      -3.1      0.000      0.000
REMARK  1 active torsions:
REMARK  status: ('A' for Active; 'I' for Inactive)
REMARK    1  A    between atoms: C_7  and  C_4 
ROOT
ATOM      1  N   UNL d   1      30.017  17.299 -23.964  0.00  0.00    -0.242 NA
ATOM      2  C   UNL d   1      30.978  16.249 -23.770  0.00  0.00     0.156 A 
ATOM      3  N   UNL d   1      30.365  15.725 -23.592  0.00  0.00    -0.231 NA
ATOM      4  C   UNL d   1      30.801  17.042 -23.957  0.00  0.00     0.110 A 
ATOM      5  C   UNL d   1      29.409  16.768 -23.784  0.00  0.00     0.099 A 
ATOM      6  C   UNL d   1      29.589  15.984 -23.600  0.00  0.00     0.100 A 
ATOM      7 CL   UNL d   1      31.761  15.995 -23.764  0.00  0.00    -0.060 Cl
ATOM      8  C   UNL d   1      28.618  17.020 -23.789  0.00  0.00     0.021 A 
ATOM      9  C   UNL d   1      28.977  15.453 -23.420  0.00  0.00     0.021 A 
ATOM     10  C   UNL d   1      28.193  15.706 -23.425  0.00  0.00     0.002 A 
ATOM     11  C   UNL d   1      28.014  16.489 -23.610  0.00  0.00     0.002 A 
ENDROOT
BRANCH   4  12
ATOM     12  C   UNL d   1      31.406  17.564 -24.134  0.00  0.00     0.020 A 
ATOM     13  C   UNL d   1      31.572  17.754 -24.914  0.00  0.00     0.002 A 
ATOM     14  C   UNL d   1      32.178  18.277 -25.097  0.00  0.00     0.000 A 
ATOM     15  C   UNL d   1      32.629  18.618 -24.485  0.00  0.00     0.000 A 
ATOM     16  C   UNL d   1      32.459  18.423 -23.694  0.00  0.00     0.000 A 
ATOM     17  C   UNL d   1      33.241  19.145 -24.659  0.00  0.00     0.000 C 
ATOM     18  C   UNL d   1      31.849  17.897 -23.523  0.00  0.00     0.002 A 
ENDBRANCH   4  12
TORSDOF 1
ENDMDL
MODEL 2
REMARK VINA RESULT:      -3.0      0.916      3.760
REMARK  1 active torsions:
REMARK  status: ('A' for Active; 'I' for Inactive)
REMARK    1  A    between atoms: C_7  and  C_4 
ROOT
ATOM      1  N   UNL d   1      30.998  17.272 -23.805  0.00  0.00    -0.242 NA
ATOM      2  C   UNL d   1      31.093  16.192 -24.748  0.00  0.00     0.156 A 
ATOM      3  N   UNL d   1      31.839  16.461 -24.978  0.00  0.00    -0.231 NA
ATOM      4  C   UNL d   1      30.670  16.601 -24.157  0.00  0.00     0.110 A 
ATOM      5  C   UNL d   1      31.745  17.535 -24.041  0.00  0.00     0.099 A 
ATOM      6  C   UNL d   1      32.160  17.127 -24.626  0.00  0.00     0.100 A 
ATOM      7 CL   UNL d   1      30.763  15.522 -25.097  0.00  0.00    -0.060 Cl
ATOM      8  C   UNL d   1      32.081  18.209 -23.691  0.00  0.00     0.021 A 
ATOM      9  C   UNL d   1      32.911  17.393 -24.861  0.00  0.00     0.021 A 
ATOM     10  C   UNL d   1      33.241  18.062 -24.513  0.00  0.00     0.002 A 
ATOM     11  C   UNL d   1      32.826  18.470 -23.928  0.00  0.00     0.002 A 
ENDROOT
BRANCH   4  12
ATOM     12  C   UNL d   1      29.931  16.336 -23.927  0.00  0.00     0.020 A 
ATOM     13  C   UNL d   1      29.857  15.795 -23.316  0.00  0.00     0.002 A 
ATOM     14  C   UNL d   1      29.118  15.527 -23.082  0.00  0.00     0.000 A 
ATOM     15  C   UNL d   1      28.435  15.806 -23.468  0.00  0.00     0.000 A 
ATOM     16  C   UNL d   1      28.511  16.355 -24.089  0.00  0.00     0.000 A 
ATOM     17  C   UNL d   1      27.686  15.541 -23.239  0.00  0.00     0.000 C 
ATOM     18  C   UNL d   1      29.259  16.617 -24.315  0.00  0.00     0.002 A 
ENDBRANCH   4  12
TORSDOF 1
ENDMDL
MODEL 3
REMARK VINA RESULT:      -2.9      2.788      4.759
REMARK  1 active torsions:
REMARK  status: ('A' for Active; 'I' for Inactive)
REMARK    1  A    between atoms: C_7  and  C_4 
ROOT
ATOM      1  N   UNL d   1      32.743  19.562 -22.138  0.00  0.00    -0.242 NA
ATOM      2  C   UNL d   1      33.117  19.887 -23.487  0.00  0.00     0.156 A 
ATOM      3  N   UNL d   1      33.236  20.673 -23.262  0.00  0.00    -0.231 NA
ATOM      4  C   UNL d   1      32.869  19.328 -22.921  0.00  0.00     0.110 A 
ATOM      5  C   UNL d   1      32.865  20.350 -21.922  0.00  0.00     0.099 A 
ATOM      6  C   UNL d   1      33.111  20.900 -22.486  0.00  0.00     0.100 A 
ATOM      7 CL   UNL d   1      33.241  19.650 -24.267  0.00  0.00    -0.060 Cl
ATOM      8  C   UNL d   1      32.741  20.592 -21.137  0.00  0.00     0.021 A 
ATOM      9  C   UNL d   1      33.232  21.691 -22.265  0.00  0.00     0.021 A 
ATOM     10  C   UNL d   1      33.108  21.928 -21.487  0.00  0.00     0.002 A 
ATOM     11  C   UNL d   1      32.863  21.379 -20.922  0.00  0.00     0.002 A 
ENDROOT
BRANCH   4  12
ATOM     12  C   UNL d   1      32.750  18.549 -23.141  0.00  0.00     0.020 A 
ATOM     13  C   UNL d   1      33.217  17.955 -22.825  0.00  0.00     0.002 A 
ATOM     14  C   UNL d   1      33.102  17.172 -23.042  0.00  0.00     0.000 A 
ATOM     15  C   UNL d   1      32.505  16.977 -23.588  0.00  0.00     0.000 A 
ATOM     16  C   UNL d   1      32.030  17.583 -23.908  0.00  0.00     0.000 A 
ATOM     17  C   UNL d   1      32.381  16.192 -23.813  0.00  0.00     0.000 C 
ATOM     18  C   UNL d   1      32.156  18.365 -23.683  0.00  0.00     0.002 A 
ENDBRANCH   4  12
TORSDOF 1
ENDMDL
MODEL 4
REMARK VINA RESULT:      -2.8      3.516      4.911
REMARK  1 active torsions:
REMARK  status: ('A' for Active; 'I' for Inactive)
REMARK    1  A    between atoms: C_7  and  C_4 
ROOT
ATOM      1  N   UNL d   1      32.762  20.175 -22.763  0.00  0.00    -0.242 NA
ATOM      2  C   UNL d   1      33.115  19.753 -21.436  0.00  0.00     0.156 A 
ATOM      3  N   UNL d   1      33.234  18.985 -21.714  0.00  0.00    -0.231 NA
ATOM      4  C   UNL d   1      32.877  20.352 -21.965  0.00  0.00     0.110 A 
ATOM      5  C   UNL d   1      32.883  19.403 -23.033  0.00  0.00     0.099 A 
ATOM      6  C   UNL d   1      33.119  18.814 -22.506  0.00  0.00     0.100 A 
ATOM      7 CL   UNL d   1      33.229  19.933 -20.640  0.00  0.00    -0.060 Cl
ATOM      8  C   UNL d   1      32.769  19.218 -23.835  0.00  0.00     0.021 A 
ATOM      9  C   UNL d   1      33.240  18.039 -22.780  0.00  0.00     0.021 A 
ATOM     10  C   UNL d   1      33.126  17.859 -23.576  0.00  0.00     0.002 A 
ATOM     11  C   UNL d   1      32.890  18.448 -24.103  0.00  0.00     0.002 A 
ENDROOT
BRANCH   4  12
ATOM     12  C   UNL d   1      32.758  21.114 -21.692  0.00  0.00     0.020 A 
ATOM     13  C   UNL d   1      32.170  21.269 -21.144  0.00  0.00     0.002 A 
ATOM     14  C   UNL d   1      32.046  22.032 -20.867  0.00  0.00     0.000 A 
ATOM     15  C   UNL d   1      32.523  22.656 -21.145  0.00  0.00     0.000 A 
ATOM     16  C   UNL d   1      33.122  22.496 -21.702  0.00  0.00     0.000 A 
ATOM     17  C   UNL d   1      32.407  23.427 -20.872  0.00  0.00     0.000 C 
ATOM     18  C   UNL d   1      33.236  21.726 -21.972  0.00  0.00     0.002 A 
ENDBRANCH   4  12
TORSDOF 1
ENDMDL
MODEL 5
REMARK VINA RESULT:      -2.0      4.181      5.847
REMARK  1 active torsions:
REMARK  status: ('A' for Active; 'I' for Inactive)
REMARK    1  A    between atoms: C_7  and  C_4 
ROOT
ATOM      1  N   UNL d   1      32.638  21.726 -21.955  0.00  0.00    -0.242 NA
ATOM      2  C   UNL d   1      33.014  20.797 -20.926  0.00  0.00     0.156 A 
ATOM      3  N   UNL d   1      32.938  21.396 -20.361  0.00  0.00    -0.231 NA
ATOM      4  C   UNL d   1      32.862  20.964 -21.727  0.00  0.00     0.110 A 
ATOM      5  C   UNL d   1      32.565  22.319 -21.384  0.00  0.00     0.099 A 
ATOM      6  C   UNL d   1      32.716  22.149 -20.591  0.00  0.00     0.100 A 
ATOM      7 CL   UNL d   1      33.237  20.036 -20.702  0.00  0.00    -0.060 Cl
ATOM      8  C   UNL d   1      32.340  23.087 -21.606  0.00  0.00     0.021 A 
ATOM      9  C   UNL d   1      32.641  22.747 -20.020  0.00  0.00     0.021 A 
ATOM     10  C   UNL d   1      32.418  23.507 -20.243  0.00  0.00     0.002 A 
ATOM     11  C   UNL d   1      32.267  23.678 -21.036  0.00  0.00     0.002 A 
ENDROOT
BRANCH   4  12
ATOM     12  C   UNL d   1      32.936  20.373 -22.289  0.00  0.00     0.020 A 
ATOM     13  C   UNL d   1      32.790  19.592 -22.087  0.00  0.00     0.002 A 
ATOM     14  C   UNL d   1      32.863  18.995 -22.646  0.00  0.00     0.000 A 
ATOM     15  C   UNL d   1      33.087  19.184 -23.426  0.00  0.00     0.000 A 
ATOM     16  C   UNL d   1      33.236  19.978 -23.629  0.00  0.00     0.000 A 
ATOM     17  C   UNL d   1      33.163  18.590 -23.996  0.00  0.00     0.000 C 
ATOM     18  C   UNL d   1      33.159  20.568 -23.059  0.00  0.00     0.002 A 
ENDBRANCH   4  12
TORSDOF 1
ENDMDL
MODEL 6
REMARK VINA RESULT:      -0.7      3.378      4.965
REMARK  1 active torsions:
REMARK  status: ('A' for Active; 'I' for Inactive)
REMARK    1  A    between atoms: C_7  and  C_4 
ROOT
ATOM      1  N   UNL d   1      33.084  20.547 -23.196  0.00  0.00    -0.242 NA
ATOM      2  C   UNL d   1      33.173  19.615 -22.107  0.00  0.00     0.156 A 
ATOM      3  N   UNL d   1      33.207  20.244 -21.573  0.00  0.00    -0.231 NA
ATOM      4  C   UNL d   1      33.112  19.768 -22.923  0.00  0.00     0.110 A 
ATOM      5  C   UNL d   1      33.119  21.172 -22.656  0.00  0.00     0.099 A 
ATOM      6  C   UNL d   1      33.180  21.015 -21.848  0.00  0.00     0.100 A 
ATOM      7 CL   UNL d   1      33.200  18.836 -21.838  0.00  0.00    -0.060 Cl
ATOM      8  C   UNL d   1      33.092  21.958 -22.923  0.00  0.00     0.021 A 
ATOM      9  C   UNL d   1      33.214  21.644 -21.308  0.00  0.00     0.021 A 
ATOM     10  C   UNL d   1      33.187  22.423 -21.575  0.00  0.00     0.002 A 
ATOM     11  C   UNL d   1      33.126  22.579 -22.383  0.00  0.00     0.002 A 
ENDROOT
BRANCH   4  12
ATOM     12  C   UNL d   1      33.078  19.146 -23.454  0.00  0.00     0.020 A 
ATOM     13  C   UNL d   1      32.973  18.379 -23.185  0.00  0.00     0.002 A 
ATOM     14  C   UNL d   1      32.939  17.751 -23.713  0.00  0.00     0.000 A 
ATOM     15  C   UNL d   1      33.011  17.894 -24.530  0.00  0.00     0.000 A 
ATOM     16  C   UNL d   1      33.117  18.674 -24.802  0.00  0.00     0.000 A 
ATOM     17  C   UNL d   1      32.978  17.269 -25.070  0.00  0.00     0.000 C 
ATOM     18  C   UNL d   1      33.150  19.295 -24.262  0.00  0.00     0.002 A 
ENDBRANCH   4  12
TORSDOF 1
ENDMDL
