MODEL 1
REMARK VINA RESULT:       9.9      0.000      0.000
REMARK  2 active torsions:
REMARK  status: ('A' for Active; 'I' for Inactive)
REMARK    1  A    between atoms: C_6  and  C_3 
REMARK    2  A    between atoms: C_9  and  C_6 
ROOT
ATOM      1  C   UNL d   1      13.581  11.781  -3.317  0.00  0.00     0.011 C 
ENDROOT
BRANCH   1   2
ATOM      2  C   UNL d   1      13.316  12.447  -3.750  0.00  0.00     0.092 A 
ATOM      3  C   UNL d   1      13.022  12.473  -4.492  0.00  0.00     0.288 A 
ATOM      4  N   UNL d   1      12.842  13.231  -4.673  0.00  0.00    -0.163 NA
ATOM      5  O   UNL d   1      12.923  11.784  -5.001  0.00  0.00    -0.265 OA
ATOM      6  C   UNL d   1      13.043  13.680  -3.991  0.00  0.00     0.313 A 
ATOM      7  S   UNL d   1      13.330  13.162  -3.447  0.00  0.00    -0.021 SA
ATOM      8  O   UNL d   1      12.951  14.517  -3.918  0.00  0.00    -0.258 OA
ENDBRANCH   1   2
BRANCH   1   9
ATOM      9  C   UNL d   1      13.701  11.781  -2.499  0.00  0.00     0.001 A 
ATOM     10  C   UNL d   1      13.088  11.780  -1.947  0.00  0.00     0.001 A 
ATOM     11  C   UNL d   1      13.245  11.779  -1.160  0.00  0.00     0.007 A 
ATOM     12  C   UNL d   1      14.045  11.780  -0.879  0.00  0.00     0.035 A 
ATOM     13  C   UNL d   1      14.658  11.781  -1.430  0.00  0.00     0.007 A 
ATOM     14 BR   UNL d   1      14.225  11.779  -0.072  0.00  0.00    -0.049 Br
ATOM     15  C   UNL d   1      14.488  11.781  -2.254  0.00  0.00     0.001 A 
ENDBRANCH   1   9
TORSDOF 2
ENDMDL
MODEL 2
REMARK VINA RESULT:      10.8     10.553     11.056
REMARK  2 active torsions:
REMARK  status: ('A' for Active; 'I' for Inactive)
REMARK    1  A    between atoms: C_6  and  C_3 
REMARK    2  A    between atoms: C_9  and  C_6 
ROOT
ATOM      1  C   UNL d   1      23.638  12.225  -1.680  0.00  0.00     0.011 C 
ENDROOT
BRANCH   1   2
ATOM      2  C   UNL d   1      23.754  12.790  -1.073  0.00  0.00     0.092 A 
ATOM      3  C   UNL d   1      24.245  12.753  -0.445  0.00  0.00     0.288 A 
ATOM      4  N   UNL d   1      24.167  13.422  -0.015  0.00  0.00    -0.163 NA
ATOM      5  O   UNL d   1      24.768  12.089  -0.274  0.00  0.00    -0.265 OA
ATOM      6  C   UNL d   1      23.591  13.884  -0.417  0.00  0.00     0.313 A 
ATOM      7  S   UNL d   1      23.362  13.461  -1.062  0.00  0.00    -0.021 SA
ATOM      8  O   UNL d   1      23.322  14.646  -0.170  0.00  0.00    -0.258 OA
ENDBRANCH   1   2
BRANCH   1   9
ATOM      9  C   UNL d   1      23.942  12.299  -2.444  0.00  0.00     0.001 A 
ATOM     10  C   UNL d   1      24.495  11.780  -2.769  0.00  0.00     0.001 A 
ATOM     11  C   UNL d   1      24.767  11.886  -3.517  0.00  0.00     0.007 A 
ATOM     12  C   UNL d   1      24.492  12.534  -3.989  0.00  0.00     0.035 A 
ATOM     13  C   UNL d   1      23.939  13.053  -3.664  0.00  0.00     0.007 A 
ATOM     14 BR   UNL d   1      24.761  12.659  -4.761  0.00  0.00    -0.049 Br
ATOM     15  C   UNL d   1      23.658  12.938  -2.881  0.00  0.00     0.001 A 
ENDBRANCH   1   9
TORSDOF 2
ENDMDL
