MODEL 1
REMARK VINA RESULT:      -4.9      0.000      0.000
REMARK  2 active torsions:
REMARK  status: ('A' for Active; 'I' for Inactive)
REMARK    1  A    between atoms: N_2  and  S_1 
REMARK    2  A    between atoms: C_4  and  S_1 
ROOT
ATOM      1  N   UNL d   1     -41.498-123.040 -53.462  0.00  0.00    -0.231 N 
ATOM      2  C   UNL d   1     -41.869-122.493 -53.966  0.00  0.00     0.075 A 
ATOM      3  C   UNL d   1     -41.873-122.601 -54.789  0.00  0.00     0.017 A 
ATOM      4  C   UNL d   1     -41.123-123.708 -53.800  0.00  0.00     0.092 A 
ATOM      5  C   UNL d   1     -42.245-121.824 -53.629  0.00  0.00     0.018 A 
ATOM      6  C   UNL d   1     -41.126-123.816 -54.623  0.00  0.00     0.020 A 
ATOM      7  C   UNL d   1     -41.505-123.255 -55.110  0.00  0.00     0.003 A 
ATOM      8  C   UNL d   1     -42.249-122.044 -55.275  0.00  0.00     0.002 A 
ATOM      9  C   UNL d   1     -42.616-121.276 -54.123  0.00  0.00     0.002 A 
ATOM     10  C   UNL d   1     -42.620-121.384 -54.947  0.00  0.00     0.000 A 
ENDROOT
BRANCH   1  11
ATOM     11  S   UNL d   1     -41.499-122.924 -52.640  0.00  0.00     0.271 S 
ATOM     12  O   UNL d   1     -41.123-122.250 -52.696  0.00  0.00    -0.200 OA
ATOM     13  O   UNL d   1     -41.904-123.642 -52.530  0.00  0.00    -0.200 OA
BRANCH  11  14
ATOM     14  C   UNL d   1     -41.498-122.813 -51.873  0.00  0.00     0.104 A 
ATOM     15  C   UNL d   1     -41.125-122.205 -51.570  0.00  0.00     0.015 A 
ATOM     16  C   UNL d   1     -41.126-122.097 -50.804  0.00  0.00     0.022 A 
ATOM     17  C   UNL d   1     -41.499-122.594 -50.340  0.00  0.00     0.103 A 
ATOM     18  C   UNL d   1     -41.873-123.203 -50.653  0.00  0.00     0.022 A 
ATOM     19  N   UNL d   1     -41.503-122.486 -49.545  0.00  0.00    -0.148 N 
ATOM     20  C   UNL d   1     -41.873-123.313 -51.410  0.00  0.00     0.015 A 
ENDBRANCH  11  14
ENDBRANCH   1  11
TORSDOF 2
ENDMDL
MODEL 2
REMARK VINA RESULT:      -4.8      1.979      2.739
REMARK  2 active torsions:
REMARK  status: ('A' for Active; 'I' for Inactive)
REMARK    1  A    between atoms: N_2  and  S_1 
REMARK    2  A    between atoms: C_4  and  S_1 
ROOT
ATOM      1  N   UNL d   1     -41.682-123.114 -50.969  0.00  0.00    -0.231 N 
ATOM      2  C   UNL d   1     -41.494-122.395 -51.341  0.00  0.00     0.075 A 
ATOM      3  C   UNL d   1     -41.307-122.366 -52.149  0.00  0.00     0.017 A 
ATOM      4  C   UNL d   1     -41.679-123.817 -51.425  0.00  0.00     0.092 A 
ATOM      5  C   UNL d   1     -41.497-121.692 -50.885  0.00  0.00     0.018 A 
ATOM      6  C   UNL d   1     -41.491-123.787 -52.233  0.00  0.00     0.020 A 
ATOM      7  C   UNL d   1     -41.306-123.055 -52.586  0.00  0.00     0.003 A 
ATOM      8  C   UNL d   1     -41.123-121.638 -52.502  0.00  0.00     0.002 A 
ATOM      9  C   UNL d   1     -41.312-120.974 -51.247  0.00  0.00     0.002 A 
ATOM     10  C   UNL d   1     -41.124-120.944 -52.056  0.00  0.00     0.000 A 
ENDROOT
BRANCH   1  11
ATOM     11  S   UNL d   1     -41.868-123.135 -50.159  0.00  0.00     0.271 S 
ATOM     12  O   UNL d   1     -41.123-123.160 -49.950  0.00  0.00    -0.200 OA
ATOM     13  O   UNL d   1     -42.680-123.108 -50.336  0.00  0.00    -0.200 OA
BRANCH  11  14
ATOM     14  C   UNL d   1     -42.038-123.154 -49.404  0.00  0.00     0.104 A 
ATOM     15  C   UNL d   1     -42.742-122.940 -49.159  0.00  0.00     0.015 A 
ATOM     16  C   UNL d   1     -42.908-122.961 -48.403  0.00  0.00     0.022 A 
ATOM     17  C   UNL d   1     -42.373-123.194 -47.893  0.00  0.00     0.103 A 
ATOM     18  C   UNL d   1     -41.667-123.408 -48.147  0.00  0.00     0.022 A 
ATOM     19  N   UNL d   1     -42.541-123.217 -47.108  0.00  0.00    -0.148 N 
ATOM     20  C   UNL d   1     -41.500-123.388 -48.894  0.00  0.00     0.015 A 
ENDBRANCH  11  14
ENDBRANCH   1  11
TORSDOF 2
ENDMDL
MODEL 3
REMARK VINA RESULT:      -4.2      1.149      3.514
REMARK  2 active torsions:
REMARK  status: ('A' for Active; 'I' for Inactive)
REMARK    1  A    between atoms: N_2  and  S_1 
REMARK    2  A    between atoms: C_4  and  S_1 
ROOT
ATOM      1  N   UNL d   1     -41.576-122.779 -52.674  0.00  0.00    -0.231 N 
ATOM      2  C   UNL d   1     -41.424-122.214 -52.084  0.00  0.00     0.075 A 
ATOM      3  C   UNL d   1     -41.277-122.441 -51.299  0.00  0.00     0.017 A 
ATOM      4  C   UNL d   1     -41.579-123.590 -52.464  0.00  0.00     0.092 A 
ATOM      5  C   UNL d   1     -41.421-121.403 -52.294  0.00  0.00     0.018 A 
ATOM      6  C   UNL d   1     -41.432-123.818 -51.680  0.00  0.00     0.020 A 
ATOM      7  C   UNL d   1     -41.282-123.234 -51.104  0.00  0.00     0.003 A 
ATOM      8  C   UNL d   1     -41.127-121.863 -50.725  0.00  0.00     0.002 A 
ATOM      9  C   UNL d   1     -41.270-120.835 -51.713  0.00  0.00     0.002 A 
ATOM     10  C   UNL d   1     -41.123-121.063 -50.927  0.00  0.00     0.000 A 
ENDROOT
BRANCH   1  11
ATOM     11  S   UNL d   1     -41.723-122.543 -53.457  0.00  0.00     0.271 S 
ATOM     12  O   UNL d   1     -42.266-122.034 -53.241  0.00  0.00    -0.200 OA
ATOM     13  O   UNL d   1     -41.148-123.075 -53.735  0.00  0.00    -0.200 OA
BRANCH  11  14
ATOM     14  C   UNL d   1     -41.862-122.320 -54.185  0.00  0.00     0.104 A 
ATOM     15  C   UNL d   1     -41.274-122.230 -54.683  0.00  0.00     0.015 A 
ATOM     16  C   UNL d   1     -41.417-122.007 -55.410  0.00  0.00     0.022 A 
ATOM     17  C   UNL d   1     -42.145-121.874 -55.641  0.00  0.00     0.103 A 
ATOM     18  C   UNL d   1     -42.731-121.966 -55.134  0.00  0.00     0.022 A 
ATOM     19  N   UNL d   1     -42.298-121.642 -56.394  0.00  0.00    -0.148 N 
ATOM     20  C   UNL d   1     -42.593-122.186 -54.415  0.00  0.00     0.015 A 
ENDBRANCH  11  14
ENDBRANCH   1  11
TORSDOF 2
ENDMDL
MODEL 4
REMARK VINA RESULT:      -2.3      1.027      3.802
REMARK  2 active torsions:
REMARK  status: ('A' for Active; 'I' for Inactive)
REMARK    1  A    between atoms: N_2  and  S_1 
REMARK    2  A    between atoms: C_4  and  S_1 
ROOT
ATOM      1  N   UNL d   1     -41.655-122.306 -51.334  0.00  0.00    -0.231 N 
ATOM      2  C   UNL d   1     -42.092-122.748 -50.782  0.00  0.00     0.075 A 
ATOM      3  C   UNL d   1     -42.054-122.579 -49.970  0.00  0.00     0.017 A 
ATOM      4  C   UNL d   1     -41.170-121.681 -51.057  0.00  0.00     0.092 A 
ATOM      5  C   UNL d   1     -42.577-123.372 -51.059  0.00  0.00     0.018 A 
ATOM      6  C   UNL d   1     -41.132-121.513 -50.245  0.00  0.00     0.020 A 
ATOM      7  C   UNL d   1     -41.579-121.969 -49.709  0.00  0.00     0.003 A 
ATOM      8  C   UNL d   1     -42.498-123.031 -49.435  0.00  0.00     0.002 A 
ATOM      9  C   UNL d   1     -43.015-123.816 -50.517  0.00  0.00     0.002 A 
ATOM     10  C   UNL d   1     -42.977-123.647 -49.705  0.00  0.00     0.000 A 
ENDROOT
BRANCH   1  11
ATOM     11  S   UNL d   1     -41.698-122.482 -52.145  0.00  0.00     0.271 S 
ATOM     12  O   UNL d   1     -42.237-121.939 -52.271  0.00  0.00    -0.200 OA
ATOM     13  O   UNL d   1     -41.123-123.075 -52.057  0.00  0.00    -0.200 OA
BRANCH  11  14
ATOM     14  C   UNL d   1     -41.742-122.642 -52.901  0.00  0.00     0.104 A 
ATOM     15  C   UNL d   1     -41.345-123.241 -53.194  0.00  0.00     0.015 A 
ATOM     16  C   UNL d   1     -41.391-123.398 -53.951  0.00  0.00     0.022 A 
ATOM     17  C   UNL d   1     -41.832-122.960 -54.415  0.00  0.00     0.103 A 
ATOM     18  C   UNL d   1     -42.227-122.359 -54.112  0.00  0.00     0.022 A 
ATOM     19  N   UNL d   1     -41.882-123.119 -55.199  0.00  0.00    -0.148 N 
ATOM     20  C   UNL d   1     -42.184-122.201 -53.365  0.00  0.00     0.015 A 
ENDBRANCH  11  14
ENDBRANCH   1  11
TORSDOF 2
ENDMDL
