MODEL 1
REMARK VINA RESULT:      59.8      0.000      0.000
REMARK  7 active torsions:
REMARK  status: ('A' for Active; 'I' for Inactive)
REMARK    1  A    between atoms: S_2  and  C_1 
REMARK    2  A    between atoms: C_8  and  S_2 
REMARK    3  A    between atoms: N_16  and  C_6 
REMARK    4  A    between atoms: N_9  and  C_22 
REMARK    5  A    between atoms: C_24  and  N_16 
REMARK    6  A    between atoms: C_22  and  C_23 
REMARK    7  A    between atoms: C_23  and  C_24 
ROOT
ATOM      1  C   UNL d   1      60.510  48.433  50.654  0.00  0.00     0.187 A 
ATOM      2  N   UNL d   1      59.708  48.543  50.762  0.00  0.00    -0.208 NA
ATOM      3  C   UNL d   1      60.896  49.142  50.821  0.00  0.00     0.118 A 
ATOM      4  S   UNL d   1      60.329  49.687  51.031  0.00  0.00    -0.035 SA
ATOM      5  C   UNL d   1      59.587  49.321  50.996  0.00  0.00     0.196 A 
ATOM      6 CL   UNL d   1      61.704  49.278  50.784  0.00  0.00    -0.073 Cl
ENDROOT
BRANCH   1   7
ATOM      7  S   UNL d   1      60.871  47.733  50.419  0.00  0.00     0.228 S 
ATOM      8  O   UNL d   1      60.429  47.298  50.954  0.00  0.00    -0.216 OA
ATOM      9  O   UNL d   1      61.318  48.172  49.879  0.00  0.00    -0.216 OA
BRANCH   7  10
ATOM     10  C   UNL d   1      61.259  47.056  50.152  0.00  0.00     0.089 A 
ATOM     11  C   UNL d   1      61.079  46.319  50.464  0.00  0.00     0.011 A 
ATOM     12  C   UNL d   1      61.466  45.642  50.197  0.00  0.00     0.001 A 
ATOM     13  C   UNL d   1      62.045  45.706  49.607  0.00  0.00     0.000 A 
ATOM     14  C   UNL d   1      62.231  46.445  49.289  0.00  0.00     0.001 A 
ATOM     15  C   UNL d   1      62.438  45.031  49.334  0.00  0.00     0.000 C 
ATOM     16  C   UNL d   1      61.843  47.122  49.556  0.00  0.00     0.011 A 
ENDBRANCH   7  10
ENDBRANCH   1   7
BRANCH   5  17
ATOM     17  N   UNL d   1      58.858  49.669  51.165  0.00  0.00    -0.220 NA
BRANCH  17  18
ATOM     18  C   UNL d   1      58.227  49.195  51.407  0.00  0.00     0.103 C 
BRANCH  18  19
ATOM     19  C   UNL d   1      57.463  49.370  51.147  0.00  0.00     0.040 C 
BRANCH  19  20
ATOM     20  C   UNL d   1      57.354  49.708  50.401  0.00  0.00     0.083 C 
BRANCH  20  21
ATOM     21  N   UNL d   1      56.848  49.347  49.864  0.00  0.00    -0.285 N 
ATOM     22  C   UNL d   1      56.512  49.695  49.205  0.00  0.00     0.183 A 
ATOM     23  N   UNL d   1      56.045  49.133  48.829  0.00  0.00    -0.222 NA
ATOM     24  C   UNL d   1      56.095  48.441  49.258  0.00  0.00     0.120 A 
ATOM     25  C   UNL d   1      56.592  48.568  49.901  0.00  0.00     0.102 A 
ENDBRANCH  20  21
ENDBRANCH  19  20
ENDBRANCH  18  19
ENDBRANCH  17  18
ENDBRANCH   5  17
TORSDOF 7
ENDMDL
