MODEL 1
REMARK VINA RESULT:       4.2      0.000      0.000
REMARK  6 active torsions:
REMARK  status: ('A' for Active; 'I' for Inactive)
REMARK    1  A    between atoms: S_6  and  C_1 
REMARK    2  A    between atoms: C_13  and  S_6 
REMARK    3  A    between atoms: C_7  and  O_9 
REMARK    4  A    between atoms: O_9  and  C_14 
REMARK    5  A    between atoms: C_10  and  C_13 
REMARK    6  A    between atoms: C_14  and  C_10 
ROOT
ATOM      1  C   UNL d   1      45.605 -16.325  44.403  0.00  0.00     0.040 C 
ENDROOT
BRANCH   1   2
ATOM      2  C   UNL d   1      45.902 -17.053  44.650  0.00  0.00     0.034 C 
BRANCH   2   3
ATOM      3  C   UNL d   1      46.257 -17.558  44.102  0.00  0.00     0.123 C 
BRANCH   3   4
ATOM      4  O   UNL d   1      46.460 -18.320  44.337  0.00  0.00    -0.305 OA
BRANCH   4   5
ATOM      5  C   UNL d   1      46.492 -18.926  43.783  0.00  0.00     0.100 A 
ATOM      6  C   UNL d   1      46.404 -19.708  44.023  0.00  0.00     0.023 A 
ATOM      7  C   UNL d   1      46.283 -19.892  44.819  0.00  0.00     0.002 C 
ATOM      8  C   UNL d   1      46.438 -20.319  43.459  0.00  0.00     0.002 A 
ATOM      9  C   UNL d   1      46.558 -20.139  42.664  0.00  0.00     0.000 A 
ATOM     10  C   UNL d   1      46.646 -19.346  42.429  0.00  0.00     0.002 A 
ATOM     11  C   UNL d   1      46.614 -18.738  42.986  0.00  0.00     0.025 A 
ENDBRANCH   4   5
ENDBRANCH   3   4
ENDBRANCH   2   3
ENDBRANCH   1   2
BRANCH   1  12
ATOM     12  S   UNL d   1      45.503 -15.722  44.955  0.00  0.00    -0.048 SA
BRANCH  12  13
ATOM     13  C   UNL d   1      45.496 -14.935  44.714  0.00  0.00     0.194 A 
ATOM     14  N   UNL d   1      46.022 -14.340  44.952  0.00  0.00    -0.220 NA
ATOM     15  C   UNL d   1      45.804 -13.637  44.568  0.00  0.00     0.101 A 
ATOM     16  C   UNL d   1      46.127 -12.879  44.597  0.00  0.00     0.021 A 
ATOM     17  C   UNL d   1      45.142 -13.790  44.090  0.00  0.00     0.101 A 
ATOM     18  C   UNL d   1      45.793 -12.275  44.151  0.00  0.00     0.002 A 
ATOM     19  C   UNL d   1      45.137 -12.426  43.677  0.00  0.00     0.002 A 
ATOM     20  C   UNL d   1      44.815 -13.181  43.649  0.00  0.00     0.021 A 
ATOM     21  N   UNL d   1      44.949 -14.599  44.180  0.00  0.00    -0.220 NA
ENDBRANCH  12  13
ENDBRANCH   1  12
TORSDOF 6
ENDMDL
