MODEL 1
REMARK VINA RESULT:      67.8      0.000      0.000
REMARK  4 active torsions:
REMARK  status: ('A' for Active; 'I' for Inactive)
REMARK    1  A    between atoms: C_7  and  C_1 
REMARK    2  A    between atoms: C_8  and  C_3 
REMARK    3  A    between atoms: C_10  and  C_6 
REMARK    4  A    between atoms: C_9  and  C_8 
ROOT
ATOM      1  C   UNL d   1     -58.377 -99.100 -45.318  0.00  0.00     0.293 A 
ATOM      2  N   UNL d   1     -58.343 -98.942 -46.133  0.00  0.00    -0.223 N 
ATOM      3  C   UNL d   1     -57.670 -99.230 -44.889  0.00  0.00     0.113 A 
ATOM      4  C   UNL d   1     -57.600 -98.915 -46.519  0.00  0.00     0.356 A 
ATOM      5  N   UNL d   1     -56.892 -99.045 -46.091  0.00  0.00    -0.192 NA
ATOM      6  C   UNL d   1     -56.926 -99.202 -45.276  0.00  0.00     0.094 A 
ATOM      7  O   UNL d   1     -57.583 -98.757 -47.335  0.00  0.00    -0.244 OA
ATOM      8  O   UNL d   1     -58.618 -99.238 -44.529  0.00  0.00    -0.267 OA
ATOM      9  C   UNL d   1     -59.029 -98.814 -46.560  0.00  0.00     0.106 C 
ENDROOT
BRANCH   3  10
ATOM     10  C   UNL d   1     -57.704 -99.387 -44.073  0.00  0.00     0.207 C 
ATOM     11  O   UNL d   1     -57.029 -99.621 -43.666  0.00  0.00    -0.286 OA
BRANCH  10  12
ATOM     12  C   UNL d   1     -58.431 -99.307 -43.665  0.00  0.00     0.069 A 
ATOM     13  S   UNL d   1     -59.170 -99.675 -43.749  0.00  0.00    -0.083 SA
ATOM     14  C   UNL d   1     -59.673 -99.357 -43.174  0.00  0.00     0.035 A 
ATOM     15  C   UNL d   1     -59.289 -98.802 -42.725  0.00  0.00     0.008 A 
ATOM     16  C   UNL d   1     -58.512 -98.760 -43.021  0.00  0.00     0.010 A 
ENDBRANCH  10  12
ENDBRANCH   3  10
BRANCH   1  17
ATOM     17  C   UNL d   1     -59.158 -99.005 -45.543  0.00  0.00     0.469 C 
ATOM     18  F   UNL d   1     -59.571 -98.774 -45.061  0.00  0.00    -0.162 F 
ATOM     19  F   UNL d   1     -59.958 -98.912 -45.792  0.00  0.00    -0.162 F 
ATOM     20  F   UNL d   1     -59.378 -99.164 -46.232  0.00  0.00    -0.162 F 
ENDBRANCH   1  17
BRANCH   6  21
ATOM     21  C   UNL d   1     -56.237 -99.330 -44.855  0.00  0.00     0.021 A 
ATOM     22  C   UNL d   1     -56.127-100.029 -44.444  0.00  0.00     0.043 A 
ATOM     23  C   UNL d   1     -55.424-100.158 -44.016  0.00  0.00     0.196 A 
ATOM     24  O   UNL d   1     -55.319-100.855 -43.609  0.00  0.00    -0.287 OA
ATOM     25  C   UNL d   1     -54.847 -99.583 -44.010  0.00  0.00     0.042 A 
ATOM     26  C   UNL d   1     -54.951 -98.882 -44.419  0.00  0.00     0.003 A 
ATOM     27  C   UNL d   1     -55.646 -98.757 -44.841  0.00  0.00     0.002 A 
ENDBRANCH   6  21
TORSDOF 4
ENDMDL
