MODEL 1
REMARK VINA RESULT:      20.7      0.000      0.000
REMARK  3 active torsions:
REMARK  status: ('A' for Active; 'I' for Inactive)
REMARK    1  A    between atoms: N_2  and  C_1 
REMARK    2  A    between atoms: N_3  and  C_1 
REMARK       I    between atoms: C_4  and  N_2 
REMARK    3  A    between atoms: C_9  and  C_4 
ROOT
ATOM      1  C   UNL d   1      13.870  12.430  -2.184  0.00  0.00     0.209 C 
ATOM      2  S   UNL d   1      13.676  11.780  -1.719  0.00  0.00    -0.038 SA
ENDROOT
BRANCH   1   3
ATOM      3  N   UNL d   1      14.252  13.078  -1.834  0.00  0.00    -0.180 NA
ATOM      4  C   UNL d   1      14.582  12.993  -1.081  0.00  0.00     0.281 C 
ATOM      5  O   UNL d   1      14.533  12.272  -0.678  0.00  0.00    -0.265 OA
BRANCH   4   6
ATOM      6  C   UNL d   1      14.961  13.632  -0.730  0.00  0.00     0.058 A 
ATOM      7  C   UNL d   1      15.702  13.533  -0.366  0.00  0.00     0.005 A 
ATOM      8  C   UNL d   1      16.084  14.168  -0.014  0.00  0.00     0.000 A 
ATOM      9  C   UNL d   1      15.724  14.919  -0.024  0.00  0.00     0.000 A 
ATOM     10  C   UNL d   1      14.987  15.020  -0.385  0.00  0.00     0.000 A 
ATOM     11  C   UNL d   1      14.612  14.375  -0.735  0.00  0.00     0.005 A 
ENDBRANCH   4   6
ENDBRANCH   1   3
BRANCH   1  12
ATOM     12  N   UNL d   1      13.687  12.438  -2.982  0.00  0.00    -0.281 N 
ATOM     13  C   UNL d   1      13.309  11.787  -3.324  0.00  0.00     0.082 A 
ATOM     14  C   UNL d   1      13.126  11.798  -4.136  0.00  0.00     0.019 A 
ATOM     15  C   UNL d   1      13.320  12.456  -4.594  0.00  0.00     0.003 A 
ATOM     16  C   UNL d   1      13.695  13.100  -4.249  0.00  0.00     0.019 A 
ATOM     17  C   UNL d   1      13.138  12.467  -5.395  0.00  0.00     0.000 C 
ATOM     18  C   UNL d   1      13.880  13.093  -3.443  0.00  0.00     0.082 A 
ENDBRANCH   1  12
TORSDOF 3
ENDMDL
MODEL 2
REMARK VINA RESULT:      21.6      1.762      2.161
REMARK  3 active torsions:
REMARK  status: ('A' for Active; 'I' for Inactive)
REMARK    1  A    between atoms: N_2  and  C_1 
REMARK    2  A    between atoms: N_3  and  C_1 
REMARK       I    between atoms: C_4  and  N_2 
REMARK    3  A    between atoms: C_9  and  C_4 
ROOT
ATOM      1  C   UNL d   1      13.393  12.428  -3.459  0.00  0.00     0.209 C 
ATOM      2  S   UNL d   1      12.940  11.782  -3.692  0.00  0.00    -0.038 SA
ENDROOT
BRANCH   1   3
ATOM      3  N   UNL d   1      13.881  12.359  -2.791  0.00  0.00    -0.180 NA
ATOM      4  C   UNL d   1      13.571  12.034  -2.097  0.00  0.00     0.281 C 
ATOM      5  O   UNL d   1      12.785  11.780  -2.065  0.00  0.00    -0.265 OA
BRANCH   4   6
ATOM      6  C   UNL d   1      14.050  11.964  -1.433  0.00  0.00     0.058 A 
ATOM      7  C   UNL d   1      14.877  11.999  -1.505  0.00  0.00     0.005 A 
ATOM      8  C   UNL d   1      15.359  11.929  -0.844  0.00  0.00     0.000 A 
ATOM      9  C   UNL d   1      15.013  11.823  -0.095  0.00  0.00     0.000 A 
ATOM     10  C   UNL d   1      14.190  11.789  -0.020  0.00  0.00     0.000 A 
ATOM     11  C   UNL d   1      13.716  11.860  -0.690  0.00  0.00     0.005 A 
ENDBRANCH   4   6
ENDBRANCH   1   3
BRANCH   1  12
ATOM     12  N   UNL d   1      13.363  13.129  -3.879  0.00  0.00    -0.281 N 
ATOM     13  C   UNL d   1      12.820  13.214  -4.498  0.00  0.00     0.082 A 
ATOM     14  C   UNL d   1      12.792  13.929  -4.924  0.00  0.00     0.019 A 
ATOM     15  C   UNL d   1      13.302  14.547  -4.729  0.00  0.00     0.003 A 
ATOM     16  C   UNL d   1      13.839  14.457  -4.113  0.00  0.00     0.019 A 
ATOM     17  C   UNL d   1      13.274  15.252  -5.149  0.00  0.00     0.000 C 
ATOM     18  C   UNL d   1      13.871  13.748  -3.687  0.00  0.00     0.082 A 
ENDBRANCH   1  12
TORSDOF 3
ENDMDL
