MODEL 1
REMARK VINA RESULT:      42.6      0.000      0.000
REMARK  4 active torsions:
REMARK  status: ('A' for Active; 'I' for Inactive)
REMARK    1  A    between atoms: C_6  and  C_1 
REMARK    2  A    between atoms: C_7  and  C_4 
REMARK       I    between atoms: N_9  and  C_6 
REMARK    3  A    between atoms: C_23  and  N_9 
REMARK    4  A    between atoms: C_11  and  C_23 
ROOT
ATOM      1  C   UNL d   1     -49.999  26.847  33.739  0.00  0.00     0.168 A 
ATOM      2  N   UNL d   1     -50.650  27.234  33.441  0.00  0.00    -0.121 NA
ATOM      3  C   UNL d   1     -50.186  26.039  33.791  0.00  0.00     0.053 A 
ATOM      4  C   UNL d   1     -50.953  25.945  33.521  0.00  0.00     0.127 A 
ATOM      5  O   UNL d   1     -51.236  26.687  33.306  0.00  0.00    -0.211 OA
ENDROOT
BRANCH   1   6
ATOM      6  C   UNL d   1     -48.569  27.465  34.175  0.00  0.00     0.299 C 
ATOM      7  N   UNL d   1     -48.559  28.157  34.682  0.00  0.00    -0.203 NA
ATOM      8  O   UNL d   1     -47.853  27.148  33.934  0.00  0.00    -0.263 OA
BRANCH   7   9
ATOM      9  C   UNL d   1     -47.807  28.502  34.926  0.00  0.00     0.127 C 
BRANCH   9  10
ATOM     10  C   UNL d   1     -47.769  29.320  35.195  0.00  0.00     0.119 A 
ATOM     11  O   UNL d   1     -47.394  29.603  35.909  0.00  0.00    -0.304 OA
ATOM     12  C   UNL d   1     -47.497  30.447  35.943  0.00  0.00     0.123 A 
ATOM     13  C   UNL d   1     -47.945  30.696  35.237  0.00  0.00     0.029 A 
ATOM     14  C   UNL d   1     -48.112  29.986  34.774  0.00  0.00     0.028 A 
ENDBRANCH   9  10
ENDBRANCH   7   9
ENDBRANCH   1   6
BRANCH   4  15
ATOM     15  C   UNL d   1     -51.383  25.266  33.464  0.00  0.00     0.027 A 
ATOM     16  C   UNL d   1     -52.202  25.293  33.501  0.00  0.00     0.028 A 
ATOM     17  C   UNL d   1     -52.627  24.608  33.442  0.00  0.00     0.119 A 
ATOM     18  O   UNL d   1     -53.431  24.468  33.460  0.00  0.00    -0.300 OA
ATOM     19  C   UNL d   1     -52.262  23.888  33.346  0.00  0.00     0.119 A 
ATOM     20  C   UNL d   1     -53.555  23.671  33.376  0.00  0.00     0.304 A 
ATOM     21  O   UNL d   1     -52.832  23.308  33.306  0.00  0.00    -0.300 OA
ATOM     22  C   UNL d   1     -51.440  23.852  33.308  0.00  0.00     0.026 A 
ATOM     23  C   UNL d   1     -51.013  24.531  33.366  0.00  0.00     0.004 A 
ENDBRANCH   4  15
TORSDOF 4
ENDMDL
