MODEL 1
REMARK VINA RESULT:     165.0      0.000      0.000
REMARK  9 active torsions:
REMARK  status: ('A' for Active; 'I' for Inactive)
REMARK    1  A    between atoms: C_5  and  C_1 
REMARK    2  A    between atoms: C_10  and  C_2 
REMARK    3  A    between atoms: S_11  and  C_3 
REMARK    4  A    between atoms: C_9  and  C_4 
REMARK       I    between atoms: N_8  and  C_5 
REMARK    5  A    between atoms: C_13  and  N_8 
REMARK    6  A    between atoms: C_18  and  S_11 
REMARK    7  A    between atoms: C_16  and  C_18 
REMARK    8  A    between atoms: C_23  and  C_16 
REMARK    9  A    between atoms: O_25  and  C_20 
ROOT
ATOM      1  C   UNL d   1     -55.412-101.438 -43.891  0.00  0.00     0.077 A 
ATOM      2  C   UNL d   1     -55.346-101.338 -42.470  0.00  0.00     0.047 A 
ATOM      3  C   UNL d   1     -55.212-102.154 -42.419  0.00  0.00     0.112 A 
ATOM      4  C   UNL d   1     -55.446-100.979 -43.207  0.00  0.00     0.032 A 
ATOM      5  C   UNL d   1     -55.277-102.254 -43.840  0.00  0.00     0.087 A 
ATOM      6  N   UNL d   1     -55.177-102.613 -43.104  0.00  0.00    -0.239 NA
ATOM      7  C   UNL d   1     -55.241-102.730 -44.529  0.00  0.00     0.021 C 
ENDROOT
BRANCH   1   8
ATOM      8  C   UNL d   1     -55.515-101.063 -44.635  0.00  0.00     0.281 C 
ATOM      9  N   UNL d   1     -55.099-101.336 -45.284  0.00  0.00    -0.206 NA
ATOM     10  O   UNL d   1     -56.028-100.431 -44.703  0.00  0.00    -0.265 OA
BRANCH   9  11
ATOM     11  C   UNL d   1     -55.194-100.976 -46.010  0.00  0.00     0.107 A 
ATOM     12  C   UNL d   1     -55.734-101.265 -46.552  0.00  0.00     0.112 A 
ATOM     13  C   UNL d   1     -55.819-100.889 -47.281  0.00  0.00     0.026 A 
ATOM     14  C   UNL d   1     -55.355-100.218 -47.461  0.00  0.00     0.002 A 
ATOM     15  C   UNL d   1     -54.816 -99.933 -46.915  0.00  0.00     0.002 A 
ATOM     16  C   UNL d   1     -54.732-100.309 -46.186  0.00  0.00     0.021 A 
BRANCH  12  17
ATOM     17  O   UNL d   1     -56.204-101.936 -46.383  0.00  0.00    -0.327 OA
ATOM     18  C   UNL d   1     -56.258-102.852 -46.754  0.00  0.00     0.181 C 
ENDBRANCH  12  17
ENDBRANCH   9  11
ENDBRANCH   1   8
BRANCH   4  19
ATOM     19  C   UNL d   1     -55.581-100.157 -43.258  0.00  0.00     0.100 A 
ATOM     20  O   UNL d   1     -54.955 -99.648 -43.415  0.00  0.00    -0.305 OA
ATOM     21  C   UNL d   1     -55.263 -98.875 -43.432  0.00  0.00     0.123 A 
ATOM     22  C   UNL d   1     -56.051 -98.906 -43.291  0.00  0.00     0.029 A 
ATOM     23  C   UNL d   1     -56.270 -99.681 -43.181  0.00  0.00     0.027 A 
ENDBRANCH   4  19
BRANCH   2  24
ATOM     24  C   UNL d   1     -55.382-100.861 -41.775  0.00  0.00     0.124 C 
ATOM     25  N   UNL d   1     -54.743-100.401 -41.560  0.00  0.00    -0.146 N 
ENDBRANCH   2  24
BRANCH   3  26
ATOM     26  S   UNL d   1     -55.108-102.528 -41.670  0.00  0.00    -0.064 SA
BRANCH  26  27
ATOM     27  C   UNL d   1     -55.706-102.503 -41.114  0.00  0.00     0.079 C 
BRANCH  27  28
ATOM     28  C   UNL d   1     -55.525-102.633 -40.338  0.00  0.00     0.202 C 
ATOM     29  O   UNL d   1     -54.735-102.764 -40.119  0.00  0.00    -0.286 OA
BRANCH  28  30
ATOM     30  C   UNL d   1     -56.116-102.634 -39.772  0.00  0.00     0.040 A 
ATOM     31  C   UNL d   1     -56.887-102.398 -39.971  0.00  0.00     0.003 A 
ATOM     32  C   UNL d   1     -57.485-102.399 -39.403  0.00  0.00     0.000 A 
ATOM     33  C   UNL d   1     -57.301-102.645 -38.610  0.00  0.00     0.000 A 
ATOM     34  C   UNL d   1     -56.528-102.875 -38.434  0.00  0.00     0.000 A 
ATOM     35  C   UNL d   1     -55.942-102.872 -39.004  0.00  0.00     0.003 A 
ENDBRANCH  28  30
ENDBRANCH  27  28
ENDBRANCH  26  27
ENDBRANCH   3  26
TORSDOF 9
ENDMDL
