MODEL 1
REMARK VINA RESULT:      -8.4      0.000      0.000
REMARK  3 active torsions:
REMARK  status: ('A' for Active; 'I' for Inactive)
REMARK    1  A    between atoms: C_9  and  N_1 
REMARK    2  A    between atoms: C_8  and  C_3 
REMARK    3  A    between atoms: C_17  and  C_9 
ROOT
ATOM      1  N   UNL d   1     -48.834  13.970  23.271  0.00  0.00    -0.269 N 
ATOM      2  N   UNL d   1     -48.293  15.002  22.614  0.00  0.00    -0.204 NA
ATOM      3  C   UNL d   1     -48.984  14.725  22.970  0.00  0.00     0.174 A 
ATOM      4  C   UNL d   1     -48.049  13.781  23.100  0.00  0.00     0.185 A 
ATOM      5  C   UNL d   1     -47.711  14.421  22.692  0.00  0.00     0.199 A 
ATOM      6  N   UNL d   1     -47.594  13.111  23.261  0.00  0.00    -0.224 NA
ATOM      7  N   UNL d   1     -46.931  14.389  22.450  0.00  0.00    -0.223 NA
ATOM      8  C   UNL d   1     -46.802  13.085  23.013  0.00  0.00     0.101 A 
ATOM      9  C   UNL d   1     -46.473  13.727  22.607  0.00  0.00     0.101 A 
ATOM     10  C   UNL d   1     -46.342  12.413  23.173  0.00  0.00     0.021 A 
ATOM     11  C   UNL d   1     -45.692  13.695  22.365  0.00  0.00     0.021 A 
ATOM     12  C   UNL d   1     -45.560  12.390  22.926  0.00  0.00     0.002 A 
ATOM     13  C   UNL d   1     -45.235  13.032  22.521  0.00  0.00     0.002 A 
ENDROOT
BRANCH   1  14
ATOM     14  C   UNL d   1     -49.365  13.488  23.669  0.00  0.00     0.108 C 
BRANCH  14  15
ATOM     15  C   UNL d   1     -49.636  12.798  23.310  0.00  0.00     0.118 A 
ATOM     16  O   UNL d   1     -49.816  12.702  22.509  0.00  0.00    -0.304 OA
ATOM     17  C   UNL d   1     -50.066  11.927  22.393  0.00  0.00     0.123 A 
ATOM     18  C   UNL d   1     -50.041  11.540  23.119  0.00  0.00     0.029 A 
ATOM     19  C   UNL d   1     -49.777  12.077  23.685  0.00  0.00     0.028 A 
ENDBRANCH  14  15
ENDBRANCH   1  14
BRANCH   3  20
ATOM     20  C   UNL d   1     -49.695  15.134  23.014  0.00  0.00     0.135 A 
ATOM     21  O   UNL d   1     -50.253  15.174  22.397  0.00  0.00    -0.302 OA
ATOM     22  C   UNL d   1     -50.934  15.676  22.694  0.00  0.00     0.123 A 
ATOM     23  C   UNL d   1     -50.755  15.922  23.495  0.00  0.00     0.029 A 
ATOM     24  C   UNL d   1     -49.971  15.579  23.697  0.00  0.00     0.030 A 
ENDBRANCH   3  20
TORSDOF 3
ENDMDL
MODEL 2
REMARK VINA RESULT:      -7.5      0.767      1.092
REMARK  3 active torsions:
REMARK  status: ('A' for Active; 'I' for Inactive)
REMARK    1  A    between atoms: C_9  and  N_1 
REMARK    2  A    between atoms: C_8  and  C_3 
REMARK    3  A    between atoms: C_17  and  C_9 
ROOT
ATOM      1  N   UNL d   1     -48.356  13.467  23.354  0.00  0.00    -0.269 N 
ATOM      2  N   UNL d   1     -47.486  14.275  22.737  0.00  0.00    -0.204 NA
ATOM      3  C   UNL d   1     -48.262  14.214  23.011  0.00  0.00     0.174 A 
ATOM      4  C   UNL d   1     -47.637  13.067  23.289  0.00  0.00     0.185 A 
ATOM      5  C   UNL d   1     -47.095  13.567  22.906  0.00  0.00     0.199 A 
ATOM      6  N   UNL d   1     -47.400  12.313  23.528  0.00  0.00    -0.224 NA
ATOM      7  N   UNL d   1     -46.330  13.314  22.766  0.00  0.00    -0.223 NA
ATOM      8  C   UNL d   1     -46.623  12.062  23.382  0.00  0.00     0.101 A 
ATOM      9  C   UNL d   1     -46.089  12.566  23.000  0.00  0.00     0.101 A 
ATOM     10  C   UNL d   1     -46.382  11.305  23.621  0.00  0.00     0.021 A 
ATOM     11  C   UNL d   1     -45.324  12.314  22.859  0.00  0.00     0.021 A 
ATOM     12  C   UNL d   1     -45.613  11.060  23.476  0.00  0.00     0.002 A 
ATOM     13  C   UNL d   1     -45.083  11.565  23.094  0.00  0.00     0.002 A 
ENDROOT
BRANCH   1  14
ATOM     14  C   UNL d   1     -49.039  13.170  23.697  0.00  0.00     0.108 C 
BRANCH  14  15
ATOM     15  C   UNL d   1     -49.447  12.558  23.328  0.00  0.00     0.118 A 
ATOM     16  O   UNL d   1     -49.605  12.495  22.519  0.00  0.00    -0.304 OA
ATOM     17  C   UNL d   1     -50.025  11.799  22.393  0.00  0.00     0.123 A 
ATOM     18  C   UNL d   1     -50.127  11.428  23.121  0.00  0.00     0.029 A 
ATOM     19  C   UNL d   1     -49.771  11.896  23.697  0.00  0.00     0.028 A 
ENDBRANCH  14  15
ENDBRANCH   1  14
BRANCH   3  20
ATOM     20  C   UNL d   1     -48.836  14.798  22.953  0.00  0.00     0.135 A 
ATOM     21  O   UNL d   1     -49.236  15.131  23.603  0.00  0.00    -0.302 OA
ATOM     22  C   UNL d   1     -49.806  15.739  23.275  0.00  0.00     0.123 A 
ATOM     23  C   UNL d   1     -49.724  15.749  22.422  0.00  0.00     0.029 A 
ATOM     24  C   UNL d   1     -49.111  15.153  22.218  0.00  0.00     0.030 A 
ENDBRANCH   3  20
TORSDOF 3
ENDMDL
MODEL 3
REMARK VINA RESULT:      -7.4      1.181      3.617
REMARK  3 active torsions:
REMARK  status: ('A' for Active; 'I' for Inactive)
REMARK    1  A    between atoms: C_9  and  N_1 
REMARK    2  A    between atoms: C_8  and  C_3 
REMARK    3  A    between atoms: C_17  and  C_9 
ROOT
ATOM      1  N   UNL d   1     -47.642  13.413  23.150  0.00  0.00    -0.269 N 
ATOM      2  N   UNL d   1     -47.236  14.508  22.499  0.00  0.00    -0.204 NA
ATOM      3  C   UNL d   1     -47.007  13.755  22.745  0.00  0.00     0.174 A 
ATOM      4  C   UNL d   1     -48.262  13.957  23.153  0.00  0.00     0.185 A 
ATOM      5  C   UNL d   1     -48.012  14.638  22.749  0.00  0.00     0.199 A 
ATOM      6  N   UNL d   1     -49.024  13.925  23.470  0.00  0.00    -0.224 NA
ATOM      7  N   UNL d   1     -48.518  15.275  22.664  0.00  0.00    -0.223 NA
ATOM      8  C   UNL d   1     -49.532  14.575  23.381  0.00  0.00     0.101 A 
ATOM      9  C   UNL d   1     -49.275  15.250  22.976  0.00  0.00     0.101 A 
ATOM     10  C   UNL d   1     -50.299  14.546  23.698  0.00  0.00     0.021 A 
ATOM     11  C   UNL d   1     -49.781  15.888  22.892  0.00  0.00     0.021 A 
ATOM     12  C   UNL d   1     -50.798  15.190  23.608  0.00  0.00     0.002 A 
ATOM     13  C   UNL d   1     -50.539  15.862  23.204  0.00  0.00     0.002 A 
ENDROOT
BRANCH   1  14
ATOM     14  C   UNL d   1     -47.659  12.667  23.491  0.00  0.00     0.108 C 
BRANCH  14  15
ATOM     15  C   UNL d   1     -48.154  12.089  23.178  0.00  0.00     0.118 A 
ATOM     16  O   UNL d   1     -48.327  11.974  22.378  0.00  0.00    -0.304 OA
ATOM     17  C   UNL d   1     -48.844  11.337  22.315  0.00  0.00     0.123 A 
ATOM     18  C   UNL d   1     -48.993  11.055  23.074  0.00  0.00     0.029 A 
ATOM     19  C   UNL d   1     -48.568  11.518  23.606  0.00  0.00     0.028 A 
ENDBRANCH  14  15
ENDBRANCH   1  14
BRANCH   3  20
ATOM     20  C   UNL d   1     -46.274  13.410  22.609  0.00  0.00     0.135 A 
ATOM     21  O   UNL d   1     -45.801  13.064  23.200  0.00  0.00    -0.302 OA
ATOM     22  C   UNL d   1     -45.060  12.763  22.797  0.00  0.00     0.123 A 
ATOM     23  C   UNL d   1     -45.118  12.943  21.962  0.00  0.00     0.029 A 
ATOM     24  C   UNL d   1     -45.886  13.353  21.843  0.00  0.00     0.030 A 
ENDBRANCH   3  20
TORSDOF 3
ENDMDL
MODEL 4
REMARK VINA RESULT:      -6.2      1.858      4.605
REMARK  3 active torsions:
REMARK  status: ('A' for Active; 'I' for Inactive)
REMARK    1  A    between atoms: C_9  and  N_1 
REMARK    2  A    between atoms: C_8  and  C_3 
REMARK    3  A    between atoms: C_17  and  C_9 
ROOT
ATOM      1  N   UNL d   1     -47.148  12.183  23.647  0.00  0.00    -0.269 N 
ATOM      2  N   UNL d   1     -47.589  10.923  23.567  0.00  0.00    -0.204 NA
ATOM      3  C   UNL d   1     -46.911  11.391  23.616  0.00  0.00     0.174 A 
ATOM      4  C   UNL d   1     -47.972  12.202  23.617  0.00  0.00     0.185 A 
ATOM      5  C   UNL d   1     -48.248  11.420  23.567  0.00  0.00     0.199 A 
ATOM      6  N   UNL d   1     -48.512  12.827  23.628  0.00  0.00    -0.224 NA
ATOM      7  N   UNL d   1     -49.051  11.269  23.530  0.00  0.00    -0.223 NA
ATOM      8  C   UNL d   1     -49.325  12.667  23.589  0.00  0.00     0.101 A 
ATOM      9  C   UNL d   1     -49.592  11.885  23.540  0.00  0.00     0.101 A 
ATOM     10  C   UNL d   1     -49.870  13.293  23.600  0.00  0.00     0.021 A 
ATOM     11  C   UNL d   1     -50.395  11.733  23.503  0.00  0.00     0.021 A 
ATOM     12  C   UNL d   1     -50.673  13.131  23.562  0.00  0.00     0.002 A 
ATOM     13  C   UNL d   1     -50.936  12.350  23.513  0.00  0.00     0.002 A 
ENDROOT
BRANCH   1  14
ATOM     14  C   UNL d   1     -46.656  12.838  23.698  0.00  0.00     0.108 C 
BRANCH  14  15
ATOM     15  C   UNL d   1     -46.612  13.363  23.066  0.00  0.00     0.118 A 
ATOM     16  O   UNL d   1     -46.562  13.162  22.266  0.00  0.00    -0.304 OA
ATOM     17  C   UNL d   1     -46.529  13.857  21.827  0.00  0.00     0.123 A 
ATOM     18  C   UNL d   1     -46.559  14.491  22.352  0.00  0.00     0.029 A 
ATOM     19  C   UNL d   1     -46.611  14.187  23.116  0.00  0.00     0.028 A 
ENDBRANCH  14  15
ENDBRANCH   1  14
BRANCH   3  20
ATOM     20  C   UNL d   1     -46.138  11.113  23.631  0.00  0.00     0.135 A 
ATOM     21  O   UNL d   1     -45.464  11.599  23.586  0.00  0.00    -0.302 OA
ATOM     22  C   UNL d   1     -44.751  11.058  23.623  0.00  0.00     0.123 A 
ATOM     23  C   UNL d   1     -45.030  10.251  23.689  0.00  0.00     0.029 A 
ATOM     24  C   UNL d   1     -45.909  10.286  23.694  0.00  0.00     0.030 A 
ENDBRANCH   3  20
TORSDOF 3
ENDMDL
MODEL 5
REMARK VINA RESULT:      -6.1      8.819     10.451
REMARK  3 active torsions:
REMARK  status: ('A' for Active; 'I' for Inactive)
REMARK    1  A    between atoms: C_9  and  N_1 
REMARK    2  A    between atoms: C_8  and  C_3 
REMARK    3  A    between atoms: C_17  and  C_9 
ROOT
ATOM      1  N   UNL d   1     -39.651  14.007  18.522  0.00  0.00    -0.269 N 
ATOM      2  N   UNL d   1     -38.520  13.747  19.186  0.00  0.00    -0.204 NA
ATOM      3  C   UNL d   1     -38.924  13.615  18.479  0.00  0.00     0.174 A 
ATOM      4  C   UNL d   1     -39.694  14.382  19.256  0.00  0.00     0.185 A 
ATOM      5  C   UNL d   1     -38.992  14.221  19.670  0.00  0.00     0.199 A 
ATOM      6  N   UNL d   1     -40.278  14.849  19.606  0.00  0.00    -0.224 NA
ATOM      7  N   UNL d   1     -38.879  14.524  20.421  0.00  0.00    -0.223 NA
ATOM      8  C   UNL d   1     -40.157  15.153  20.368  0.00  0.00     0.101 A 
ATOM      9  C   UNL d   1     -39.455  14.988  20.774  0.00  0.00     0.101 A 
ATOM     10  C   UNL d   1     -40.742  15.623  20.722  0.00  0.00     0.021 A 
ATOM     11  C   UNL d   1     -39.342  15.291  21.526  0.00  0.00     0.021 A 
ATOM     12  C   UNL d   1     -40.620  15.922  21.476  0.00  0.00     0.002 A 
ATOM     13  C   UNL d   1     -39.919  15.756  21.878  0.00  0.00     0.002 A 
ENDROOT
BRANCH   1  14
ATOM     14  C   UNL d   1     -40.230  14.026  17.942  0.00  0.00     0.108 C 
BRANCH  14  15
ATOM     15  C   UNL d   1     -40.382  14.729  17.541  0.00  0.00     0.118 A 
ATOM     16  O   UNL d   1     -39.818  15.260  17.256  0.00  0.00    -0.304 OA
ATOM     17  C   UNL d   1     -40.212  15.885  16.894  0.00  0.00     0.123 A 
ATOM     18  C   UNL d   1     -41.021  15.744  16.953  0.00  0.00     0.029 A 
ATOM     19  C   UNL d   1     -41.126  15.031  17.352  0.00  0.00     0.028 A 
ENDBRANCH  14  15
ENDBRANCH   1  14
BRANCH   3  20
ATOM     20  C   UNL d   1     -38.648  13.169  17.847  0.00  0.00     0.135 A 
ATOM     21  O   UNL d   1     -38.898  12.394  17.674  0.00  0.00    -0.302 OA
ATOM     22  C   UNL d   1     -38.451  12.134  16.942  0.00  0.00     0.123 A 
ATOM     23  C   UNL d   1     -37.940  12.777  16.699  0.00  0.00     0.029 A 
ATOM     24  C   UNL d   1     -38.064  13.432  17.271  0.00  0.00     0.030 A 
ENDBRANCH   3  20
TORSDOF 3
ENDMDL
MODEL 6
REMARK VINA RESULT:      -6.1      9.216      9.914
REMARK  3 active torsions:
REMARK  status: ('A' for Active; 'I' for Inactive)
REMARK    1  A    between atoms: C_9  and  N_1 
REMARK    2  A    between atoms: C_8  and  C_3 
REMARK    3  A    between atoms: C_17  and  C_9 
ROOT
ATOM      1  N   UNL d   1     -40.201  14.629  18.570  0.00  0.00    -0.269 N 
ATOM      2  N   UNL d   1     -40.617  15.841  18.952  0.00  0.00    -0.204 NA
ATOM      3  C   UNL d   1     -40.585  15.316  18.317  0.00  0.00     0.174 A 
ATOM      4  C   UNL d   1     -39.995  14.732  19.362  0.00  0.00     0.185 A 
ATOM      5  C   UNL d   1     -40.253  15.484  19.602  0.00  0.00     0.199 A 
ATOM      6  N   UNL d   1     -39.607  14.241  19.901  0.00  0.00    -0.224 NA
ATOM      7  N   UNL d   1     -40.123  15.739  20.368  0.00  0.00    -0.223 NA
ATOM      8  C   UNL d   1     -39.478  14.506  20.677  0.00  0.00     0.101 A 
ATOM      9  C   UNL d   1     -39.738  15.257  20.908  0.00  0.00     0.101 A 
ATOM     10  C   UNL d   1     -39.088  14.015  21.221  0.00  0.00     0.021 A 
ATOM     11  C   UNL d   1     -39.608  15.512  21.674  0.00  0.00     0.021 A 
ATOM     12  C   UNL d   1     -38.963  14.279  21.987  0.00  0.00     0.002 A 
ATOM     13  C   UNL d   1     -39.223  15.029  22.214  0.00  0.00     0.002 A 
ENDROOT
BRANCH   1  14
ATOM     14  C   UNL d   1     -40.048  13.961  18.119  0.00  0.00     0.108 C 
BRANCH  14  15
ATOM     15  C   UNL d   1     -39.275  13.797  17.886  0.00  0.00     0.118 A 
ATOM     16  O   UNL d   1     -38.650  14.336  17.852  0.00  0.00    -0.304 OA
ATOM     17  C   UNL d   1     -37.980  13.937  17.590  0.00  0.00     0.123 A 
ATOM     18  C   UNL d   1     -38.187  13.151  17.461  0.00  0.00     0.029 A 
ATOM     19  C   UNL d   1     -38.985  13.064  17.643  0.00  0.00     0.028 A 
ENDBRANCH  14  15
ENDBRANCH   1  14
BRANCH   3  20
ATOM     20  C   UNL d   1     -40.886  15.457  17.565  0.00  0.00     0.135 A 
ATOM     21  O   UNL d   1     -41.615  15.165  17.289  0.00  0.00    -0.302 OA
ATOM     22  C   UNL d   1     -41.710  15.457  16.447  0.00  0.00     0.123 A 
ATOM     23  C   UNL d   1     -41.020  15.922  16.246  0.00  0.00     0.029 A 
ATOM     24  C   UNL d   1     -40.498  15.922  16.953  0.00  0.00     0.030 A 
ENDBRANCH   3  20
TORSDOF 3
ENDMDL
MODEL 7
REMARK VINA RESULT:      -5.7      1.373      4.037
REMARK  3 active torsions:
REMARK  status: ('A' for Active; 'I' for Inactive)
REMARK    1  A    between atoms: C_9  and  N_1 
REMARK    2  A    between atoms: C_8  and  C_3 
REMARK    3  A    between atoms: C_17  and  C_9 
ROOT
ATOM      1  N   UNL d   1     -47.736  13.238  22.347  0.00  0.00    -0.269 N 
ATOM      2  N   UNL d   1     -47.280  12.184  23.032  0.00  0.00    -0.204 NA
ATOM      3  C   UNL d   1     -47.052  12.845  22.594  0.00  0.00     0.174 A 
ATOM      4  C   UNL d   1     -48.386  12.819  22.634  0.00  0.00     0.185 A 
ATOM      5  C   UNL d   1     -48.105  12.164  23.060  0.00  0.00     0.199 A 
ATOM      6  N   UNL d   1     -49.200  12.944  22.567  0.00  0.00    -0.224 NA
ATOM      7  N   UNL d   1     -48.630  11.644  23.411  0.00  0.00    -0.223 NA
ATOM      8  C   UNL d   1     -49.727  12.414  22.925  0.00  0.00     0.101 A 
ATOM      9  C   UNL d   1     -49.439  11.763  23.347  0.00  0.00     0.101 A 
ATOM     10  C   UNL d   1     -50.545  12.537  22.858  0.00  0.00     0.021 A 
ATOM     11  C   UNL d   1     -49.964  11.243  23.698  0.00  0.00     0.021 A 
ATOM     12  C   UNL d   1     -51.064  12.011  23.213  0.00  0.00     0.002 A 
ATOM     13  C   UNL d   1     -50.773  11.363  23.634  0.00  0.00     0.002 A 
ENDROOT
BRANCH   1  14
ATOM     14  C   UNL d   1     -47.771  13.923  21.898  0.00  0.00     0.108 C 
BRANCH  14  15
ATOM     15  C   UNL d   1     -48.128  14.597  22.209  0.00  0.00     0.118 A 
ATOM     16  O   UNL d   1     -48.007  14.908  22.965  0.00  0.00    -0.304 OA
ATOM     17  C   UNL d   1     -48.473  15.581  23.044  0.00  0.00     0.123 A 
ATOM     18  C   UNL d   1     -48.883  15.690  22.338  0.00  0.00     0.029 A 
ATOM     19  C   UNL d   1     -48.671  15.084  21.824  0.00  0.00     0.028 A 
ENDBRANCH  14  15
ENDBRANCH   1  14
BRANCH   3  20
ATOM     20  C   UNL d   1     -46.278  13.068  22.433  0.00  0.00     0.135 A 
ATOM     21  O   UNL d   1     -45.847  13.622  22.882  0.00  0.00    -0.302 OA
ATOM     22  C   UNL d   1     -45.037  13.688  22.504  0.00  0.00     0.123 A 
ATOM     23  C   UNL d   1     -45.013  13.161  21.829  0.00  0.00     0.029 A 
ATOM     24  C   UNL d   1     -45.798  12.768  21.784  0.00  0.00     0.030 A 
ENDBRANCH   3  20
TORSDOF 3
ENDMDL
MODEL 8
REMARK VINA RESULT:      -5.6      8.297     10.315
REMARK  3 active torsions:
REMARK  status: ('A' for Active; 'I' for Inactive)
REMARK    1  A    between atoms: C_9  and  N_1 
REMARK    2  A    between atoms: C_8  and  C_3 
REMARK    3  A    between atoms: C_17  and  C_9 
ROOT
ATOM      1  N   UNL d   1     -38.860  14.540  20.451  0.00  0.00    -0.269 N 
ATOM      2  N   UNL d   1     -38.172  13.400  20.327  0.00  0.00    -0.204 NA
ATOM      3  C   UNL d   1     -38.451  13.955  20.869  0.00  0.00     0.174 A 
ATOM      4  C   UNL d   1     -38.832  14.344  19.650  0.00  0.00     0.185 A 
ATOM      5  C   UNL d   1     -38.405  13.636  19.570  0.00  0.00     0.199 A 
ATOM      6  N   UNL d   1     -39.138  14.715  18.979  0.00  0.00    -0.224 NA
ATOM      7  N   UNL d   1     -38.288  13.307  18.831  0.00  0.00    -0.223 NA
ATOM      8  C   UNL d   1     -39.016  14.376  18.231  0.00  0.00     0.101 A 
ATOM      9  C   UNL d   1     -38.590  13.670  18.161  0.00  0.00     0.101 A 
ATOM     10  C   UNL d   1     -39.323  14.746  17.555  0.00  0.00     0.021 A 
ATOM     11  C   UNL d   1     -38.472  13.340  17.421  0.00  0.00     0.021 A 
ATOM     12  C   UNL d   1     -39.200  14.409  16.818  0.00  0.00     0.002 A 
ATOM     13  C   UNL d   1     -38.774  13.705  16.751  0.00  0.00     0.002 A 
ENDROOT
BRANCH   1  14
ATOM     14  C   UNL d   1     -39.229  15.199  20.769  0.00  0.00     0.108 C 
BRANCH  14  15
ATOM     15  C   UNL d   1     -40.052  15.238  20.781  0.00  0.00     0.118 A 
ATOM     16  O   UNL d   1     -40.570  14.599  20.861  0.00  0.00    -0.304 OA
ATOM     17  C   UNL d   1     -41.339  14.888  20.845  0.00  0.00     0.123 A 
ATOM     18  C   UNL d   1     -41.302  15.706  20.756  0.00  0.00     0.029 A 
ATOM     19  C   UNL d   1     -40.508  15.922  20.717  0.00  0.00     0.028 A 
ENDBRANCH  14  15
ENDBRANCH   1  14
BRANCH   3  20
ATOM     20  C   UNL d   1     -38.339  13.926  21.682  0.00  0.00     0.135 A 
ATOM     21  O   UNL d   1     -37.940  14.510  22.122  0.00  0.00    -0.302 OA
ATOM     22  C   UNL d   1     -37.954  14.246  22.978  0.00  0.00     0.123 A 
ATOM     23  C   UNL d   1     -38.371  13.499  23.020  0.00  0.00     0.029 A 
ATOM     24  C   UNL d   1     -38.615  13.297  22.200  0.00  0.00     0.030 A 
ENDBRANCH   3  20
TORSDOF 3
ENDMDL
