MODEL 1
REMARK VINA RESULT:      -3.4      0.000      0.000
REMARK  3 active torsions:
REMARK  status: ('A' for Active; 'I' for Inactive)
REMARK    1  A    between atoms: N_6  and  S_1 
REMARK    2  A    between atoms: C_7  and  S_1 
REMARK    3  A    between atoms: C_10  and  N_6 
ROOT
ATOM      1  S   UNL d   1      32.916  20.397 -22.228  0.00  0.00     0.327 S 
ATOM      2  O   UNL d   1      32.532  20.308 -21.508  0.00  0.00    -0.186 OA
ATOM      3  O   UNL d   1      33.217  21.132 -22.446  0.00  0.00    -0.186 OA
ENDROOT
BRANCH   1   4
ATOM      4  N   UNL d   1      32.828  21.036 -21.720  0.00  0.00    -0.317 NA
BRANCH   4   5
ATOM      5  C   UNL d   1      32.738  21.690 -21.201  0.00  0.00     0.145 A 
ATOM      6  C   UNL d   1      33.038  21.641 -20.428  0.00  0.00     0.033 A 
ATOM      7  C   UNL d   1      32.948  22.287 -19.917  0.00  0.00     0.003 A 
ATOM      8  C   UNL d   1      33.241  22.251 -19.149  0.00  0.00     0.000 C 
ATOM      9  C   UNL d   1      32.562  22.971 -20.181  0.00  0.00     0.000 A 
ATOM     10  C   UNL d   1      32.268  23.009 -20.949  0.00  0.00     0.003 A 
ATOM     11  C   UNL d   1      32.358  22.365 -21.458  0.00  0.00     0.033 A 
ATOM     12  C   UNL d   1      31.886  23.684 -21.213  0.00  0.00     0.000 C 
ENDBRANCH   4   5
ENDBRANCH   1   4
BRANCH   1  13
ATOM     13  C   UNL d   1      33.000  19.753 -22.729  0.00  0.00     0.118 A 
ATOM     14  C   UNL d   1      32.966  18.991 -22.425  0.00  0.00     0.035 A 
ATOM     15  C   UNL d   1      33.050  18.337 -22.928  0.00  0.00     0.105 A 
ATOM     16  N   UNL d   1      33.041  17.524 -22.789  0.00  0.00    -0.189 NA
ATOM     17  C   UNL d   1      33.170  18.456 -23.743  0.00  0.00     0.104 A 
ATOM     18  C   UNL d   1      33.155  17.134 -23.517  0.00  0.00     0.369 A 
ATOM     19  O   UNL d   1      33.183  16.320 -23.631  0.00  0.00    -0.242 OA
ATOM     20  N   UNL d   1      33.233  17.715 -24.100  0.00  0.00    -0.189 NA
ATOM     21  C   UNL d   1      33.204  19.227 -24.045  0.00  0.00     0.022 A 
ATOM     22  C   UNL d   1      33.119  19.871 -23.535  0.00  0.00     0.016 A 
ENDBRANCH   1  13
TORSDOF 3
ENDMDL
MODEL 2
REMARK VINA RESULT:      -3.2      1.375      4.960
REMARK  3 active torsions:
REMARK  status: ('A' for Active; 'I' for Inactive)
REMARK    1  A    between atoms: N_6  and  S_1 
REMARK    2  A    between atoms: C_7  and  S_1 
REMARK    3  A    between atoms: C_10  and  N_6 
ROOT
ATOM      1  S   UNL d   1      32.840  20.823 -21.956  0.00  0.00     0.327 S 
ATOM      2  O   UNL d   1      33.233  20.828 -22.677  0.00  0.00    -0.186 OA
ATOM      3  O   UNL d   1      32.491  20.129 -21.682  0.00  0.00    -0.186 OA
ENDROOT
BRANCH   1   4
ATOM      4  N   UNL d   1      32.889  20.140 -22.409  0.00  0.00    -0.317 NA
BRANCH   4   5
ATOM      5  C   UNL d   1      32.939  19.442 -22.874  0.00  0.00     0.145 A 
ATOM      6  C   UNL d   1      32.859  19.496 -23.700  0.00  0.00     0.033 A 
ATOM      7  C   UNL d   1      32.909  18.806 -24.156  0.00  0.00     0.003 A 
ATOM      8  C   UNL d   1      32.831  18.846 -24.974  0.00  0.00     0.000 C 
ATOM      9  C   UNL d   1      33.037  18.075 -23.787  0.00  0.00     0.000 A 
ATOM     10  C   UNL d   1      33.114  18.034 -22.969  0.00  0.00     0.003 A 
ATOM     11  C   UNL d   1      33.065  18.721 -22.514  0.00  0.00     0.033 A 
ATOM     12  C   UNL d   1      33.241  17.312 -22.601  0.00  0.00     0.000 C 
ENDBRANCH   4   5
ENDBRANCH   1   4
BRANCH   1  13
ATOM     13  C   UNL d   1      32.796  21.509 -21.509  0.00  0.00     0.118 A 
ATOM     14  C   UNL d   1      32.947  21.483 -20.702  0.00  0.00     0.035 A 
ATOM     15  C   UNL d   1      32.904  22.174 -20.246  0.00  0.00     0.105 A 
ATOM     16  N   UNL d   1      33.022  22.319 -19.443  0.00  0.00    -0.189 NA
ATOM     17  C   UNL d   1      32.707  22.896 -20.610  0.00  0.00     0.104 A 
ATOM     18  C   UNL d   1      32.900  23.131 -19.304  0.00  0.00     0.369 A 
ATOM     19  O   UNL d   1      32.962  23.514 -18.578  0.00  0.00    -0.242 OA
ATOM     20  N   UNL d   1      32.706  23.480 -20.028  0.00  0.00    -0.189 NA
ATOM     21  C   UNL d   1      32.556  22.918 -21.425  0.00  0.00     0.022 A 
ATOM     22  C   UNL d   1      32.602  22.223 -21.869  0.00  0.00     0.016 A 
ENDBRANCH   1  13
TORSDOF 3
ENDMDL
MODEL 3
REMARK VINA RESULT:      -3.1      0.879      1.521
REMARK  3 active torsions:
REMARK  status: ('A' for Active; 'I' for Inactive)
REMARK    1  A    between atoms: N_6  and  S_1 
REMARK    2  A    between atoms: C_7  and  S_1 
REMARK    3  A    between atoms: C_10  and  N_6 
ROOT
ATOM      1  S   UNL d   1      32.787  19.944 -22.403  0.00  0.00     0.327 S 
ATOM      2  O   UNL d   1      32.345  20.084 -21.725  0.00  0.00    -0.186 OA
ATOM      3  O   UNL d   1      33.240  20.548 -22.731  0.00  0.00    -0.186 OA
ENDROOT
BRANCH   1   4
ATOM      4  N   UNL d   1      32.792  20.684 -22.047  0.00  0.00    -0.317 NA
BRANCH   4   5
ATOM      5  C   UNL d   1      32.795  21.441 -21.682  0.00  0.00     0.145 A 
ATOM      6  C   UNL d   1      32.606  22.112 -22.134  0.00  0.00     0.033 A 
ATOM      7  C   UNL d   1      32.610  22.857 -21.773  0.00  0.00     0.003 A 
ATOM      8  C   UNL d   1      32.425  23.529 -22.210  0.00  0.00     0.000 C 
ATOM      9  C   UNL d   1      32.803  22.925 -20.970  0.00  0.00     0.000 A 
ATOM     10  C   UNL d   1      32.989  22.254 -20.532  0.00  0.00     0.003 A 
ATOM     11  C   UNL d   1      32.984  21.511 -20.891  0.00  0.00     0.033 A 
ATOM     12  C   UNL d   1      33.179  22.318 -19.737  0.00  0.00     0.000 C 
ENDBRANCH   4   5
ENDBRANCH   1   4
BRANCH   1  13
ATOM     13  C   UNL d   1      32.777  19.202 -22.752  0.00  0.00     0.118 A 
ATOM     14  C   UNL d   1      32.303  19.065 -23.409  0.00  0.00     0.035 A 
ATOM     15  C   UNL d   1      32.290  18.317 -23.765  0.00  0.00     0.105 A 
ATOM     16  N   UNL d   1      31.880  18.018 -24.415  0.00  0.00    -0.189 NA
ATOM     17  C   UNL d   1      32.758  17.703 -23.455  0.00  0.00     0.104 A 
ATOM     18  C   UNL d   1      32.092  17.218 -24.512  0.00  0.00     0.369 A 
ATOM     19  O   UNL d   1      31.812  16.709 -25.095  0.00  0.00    -0.242 OA
ATOM     20  N   UNL d   1      32.633  17.031 -23.916  0.00  0.00    -0.189 NA
ATOM     21  C   UNL d   1      33.235  17.846 -22.791  0.00  0.00     0.022 A 
ATOM     22  C   UNL d   1      33.240  18.595 -22.445  0.00  0.00     0.016 A 
ENDBRANCH   1  13
TORSDOF 3
ENDMDL
MODEL 4
REMARK VINA RESULT:      -2.9      1.576      5.190
REMARK  3 active torsions:
REMARK  status: ('A' for Active; 'I' for Inactive)
REMARK    1  A    between atoms: N_6  and  S_1 
REMARK    2  A    between atoms: C_7  and  S_1 
REMARK    3  A    between atoms: C_10  and  N_6 
ROOT
ATOM      1  S   UNL d   1      32.611  18.765 -23.206  0.00  0.00     0.327 S 
ATOM      2  O   UNL d   1      32.004  18.681 -23.753  0.00  0.00    -0.186 OA
ATOM      3  O   UNL d   1      33.048  18.108 -22.972  0.00  0.00    -0.186 OA
ENDROOT
BRANCH   1   4
ATOM      4  N   UNL d   1      32.434  18.029 -23.524  0.00  0.00    -0.317 NA
BRANCH   4   5
ATOM      5  C   UNL d   1      32.254  17.276 -23.849  0.00  0.00     0.145 A 
ATOM      6  C   UNL d   1      31.509  16.938 -23.705  0.00  0.00     0.033 A 
ATOM      7  C   UNL d   1      31.333  16.195 -24.027  0.00  0.00     0.003 A 
ATOM      8  C   UNL d   1      30.598  15.850 -23.892  0.00  0.00     0.000 C 
ATOM      9  C   UNL d   1      31.898  15.800 -24.486  0.00  0.00     0.000 A 
ATOM     10  C   UNL d   1      32.633  16.144 -24.622  0.00  0.00     0.003 A 
ATOM     11  C   UNL d   1      32.808  16.884 -24.302  0.00  0.00     0.033 A 
ATOM     12  C   UNL d   1      33.195  15.755 -25.076  0.00  0.00     0.000 C 
ENDBRANCH   4   5
ENDBRANCH   1   4
BRANCH   1  13
ATOM     13  C   UNL d   1      32.780  19.504 -22.893  0.00  0.00     0.118 A 
ATOM     14  C   UNL d   1      32.663  19.647 -22.093  0.00  0.00     0.035 A 
ATOM     15  C   UNL d   1      32.833  20.392 -21.772  0.00  0.00     0.105 A 
ATOM     16  N   UNL d   1      32.774  20.696 -21.007  0.00  0.00    -0.189 NA
ATOM     17  C   UNL d   1      33.123  20.997 -22.265  0.00  0.00     0.104 A 
ATOM     18  C   UNL d   1      33.027  21.489 -21.021  0.00  0.00     0.369 A 
ATOM     19  O   UNL d   1      33.057  22.000 -20.377  0.00  0.00    -0.242 OA
ATOM     20  N   UNL d   1      33.241  21.668 -21.800  0.00  0.00    -0.189 NA
ATOM     21  C   UNL d   1      33.240  20.849 -23.072  0.00  0.00     0.022 A 
ATOM     22  C   UNL d   1      33.067  20.102 -23.380  0.00  0.00     0.016 A 
ENDBRANCH   1  13
TORSDOF 3
ENDMDL
MODEL 5
REMARK VINA RESULT:      -2.4      1.995      5.117
REMARK  3 active torsions:
REMARK  status: ('A' for Active; 'I' for Inactive)
REMARK    1  A    between atoms: N_6  and  S_1 
REMARK    2  A    between atoms: C_7  and  S_1 
REMARK    3  A    between atoms: C_10  and  N_6 
ROOT
ATOM      1  S   UNL d   1      32.983  21.705 -20.743  0.00  0.00     0.327 S 
ATOM      2  O   UNL d   1      33.240  20.937 -20.605  0.00  0.00    -0.186 OA
ATOM      3  O   UNL d   1      32.784  21.942 -21.506  0.00  0.00    -0.186 OA
ENDROOT
BRANCH   1   4
ATOM      4  N   UNL d   1      33.045  21.168 -21.361  0.00  0.00    -0.317 NA
BRANCH   4   5
ATOM      5  C   UNL d   1      33.108  20.618 -21.993  0.00  0.00     0.145 A 
ATOM      6  C   UNL d   1      33.137  19.805 -21.825  0.00  0.00     0.033 A 
ATOM      7  C   UNL d   1      33.199  19.265 -22.450  0.00  0.00     0.003 A 
ATOM      8  C   UNL d   1      33.228  18.457 -22.296  0.00  0.00     0.000 C 
ATOM      9  C   UNL d   1      33.231  19.539 -23.231  0.00  0.00     0.000 A 
ATOM     10  C   UNL d   1      33.202  20.347 -23.386  0.00  0.00     0.003 A 
ATOM     11  C   UNL d   1      33.140  20.885 -22.764  0.00  0.00     0.033 A 
ATOM     12  C   UNL d   1      33.234  20.621 -24.158  0.00  0.00     0.000 C 
ENDBRANCH   4   5
ENDBRANCH   1   4
BRANCH   1  13
ATOM     13  C   UNL d   1      32.924  22.234 -20.120  0.00  0.00     0.118 A 
ATOM     14  C   UNL d   1      33.102  21.990 -19.356  0.00  0.00     0.035 A 
ATOM     15  C   UNL d   1      33.044  22.522 -18.723  0.00  0.00     0.105 A 
ATOM     16  N   UNL d   1      33.183  22.441 -17.914  0.00  0.00    -0.189 NA
ATOM     17  C   UNL d   1      32.804  23.306 -18.863  0.00  0.00     0.104 A 
ATOM     18  C   UNL d   1      33.030  23.174 -17.548  0.00  0.00     0.369 A 
ATOM     19  O   UNL d   1      33.099  23.339 -16.745  0.00  0.00    -0.242 OA
ATOM     20  N   UNL d   1      32.797  23.702 -18.140  0.00  0.00    -0.189 NA
ATOM     21  C   UNL d   1      32.625  23.549 -19.636  0.00  0.00     0.022 A 
ATOM     22  C   UNL d   1      32.686  23.010 -20.259  0.00  0.00     0.016 A 
ENDBRANCH   1  13
TORSDOF 3
ENDMDL
