MODEL 1
REMARK VINA RESULT:      87.3      0.000      0.000
REMARK  5 active torsions:
REMARK  status: ('A' for Active; 'I' for Inactive)
REMARK    1  A    between atoms: C_4  and  S_1 
REMARK    2  A    between atoms: N_6  and  S_1 
REMARK    3  A    between atoms: C_2  and  C_14 
REMARK    4  A    between atoms: C_7  and  C_16 
REMARK       I    between atoms: N_11  and  C_7 
REMARK    5  A    between atoms: C_26  and  N_11 
ROOT
ATOM      1  C   UNL d   1     -50.215  27.956  33.869  0.00  0.00     0.279 C 
ATOM      2  N   UNL d   1     -49.620  28.008  34.434  0.00  0.00    -0.208 NA
ATOM      3  O   UNL d   1     -50.385  28.598  33.388  0.00  0.00    -0.265 OA
ENDROOT
BRANCH   1   4
ATOM      4  C   UNL d   1     -50.643  27.254  33.787  0.00  0.00     0.061 A 
ATOM      5  C   UNL d   1     -51.442  27.278  33.544  0.00  0.00     0.025 A 
ATOM      6  C   UNL d   1     -51.870  26.576  33.461  0.00  0.00     0.092 A 
ATOM      7  N   UNL d   1     -51.507  25.848  33.620  0.00  0.00    -0.229 N 
ATOM      8  C   UNL d   1     -50.715  25.828  33.861  0.00  0.00     0.092 A 
ATOM      9  C   UNL d   1     -50.282  26.523  33.945  0.00  0.00     0.025 A 
BRANCH   7  10
ATOM     10  S   UNL d   1     -51.932  25.142  33.539  0.00  0.00     0.277 S 
ATOM     11  O   UNL d   1     -52.623  25.584  33.553  0.00  0.00    -0.199 OA
ATOM     12  O   UNL d   1     -51.230  24.702  33.525  0.00  0.00    -0.199 OA
BRANCH  10  13
ATOM     13  C   UNL d   1     -52.385  24.468  33.459  0.00  0.00     0.133 A 
ATOM     14  S   UNL d   1     -52.108  23.691  33.369  0.00  0.00    -0.074 SA
ATOM     15  C   UNL d   1     -52.753  23.191  33.310  0.00  0.00     0.036 A 
ATOM     16  C   UNL d   1     -53.441  23.645  33.361  0.00  0.00     0.008 A 
ATOM     17  C   UNL d   1     -53.214  24.433  33.454  0.00  0.00     0.020 A 
ENDBRANCH  10  13
ENDBRANCH   7  10
ENDBRANCH   1   4
BRANCH   2  18
ATOM     18  C   UNL d   1     -49.191  28.707  34.519  0.00  0.00     0.085 A 
ATOM     19  C   UNL d   1     -49.457  29.398  34.144  0.00  0.00     0.019 A 
ATOM     20  C   UNL d   1     -49.018  30.086  34.239  0.00  0.00     0.004 A 
ATOM     21  C   UNL d   1     -48.342  30.079  34.690  0.00  0.00     0.024 A 
ATOM     22  C   UNL d   1     -48.091  29.392  35.053  0.00  0.00     0.004 A 
ATOM     23  C   UNL d   1     -48.510  28.712  34.969  0.00  0.00     0.019 A 
BRANCH  21  24
ATOM     24  C   UNL d   1     -47.913  30.778  34.775  0.00  0.00     0.111 A 
ATOM     25  N   UNL d   1     -47.916  31.422  34.247  0.00  0.00    -0.239 NA
ATOM     26  C   UNL d   1     -47.407  32.006  34.546  0.00  0.00     0.088 A 
ATOM     27  C   UNL d   1     -47.195  32.748  34.265  0.00  0.00     0.020 A 
ATOM     28  C   UNL d   1     -47.094  31.723  35.253  0.00  0.00     0.049 A 
ATOM     29  C   UNL d   1     -46.664  33.213  34.695  0.00  0.00     0.002 A 
ATOM     30  C   UNL d   1     -46.348  32.933  35.404  0.00  0.00     0.001 A 
ATOM     31  C   UNL d   1     -46.560  32.189  35.688  0.00  0.00     0.008 A 
ATOM     32  S   UNL d   1     -47.396  30.964  35.410  0.00  0.00    -0.066 SA
ENDBRANCH  21  24
ENDBRANCH   2  18
TORSDOF 5
ENDMDL
