MODEL 1
REMARK VINA RESULT:      66.3      0.000      0.000
REMARK  7 active torsions:
REMARK  status: ('A' for Active; 'I' for Inactive)
REMARK    1  A    between atoms: C_3  and  C_1 
REMARK    2  A    between atoms: C_6  and  C_2 
REMARK       I    between atoms: N_5  and  C_3 
REMARK    3  A    between atoms: C_9  and  N_5 
REMARK    4  A    between atoms: N_10  and  C_9 
REMARK    5  A    between atoms: C_15  and  N_10 
REMARK    6  A    between atoms: C_13  and  C_15 
REMARK    7  A    between atoms: C_17  and  C_13 
ROOT
ATOM      1  C   UNL d   1     -48.277  30.388  34.523  0.00  0.00     0.285 C 
ATOM      2  N   UNL d   1     -48.626  29.661  34.691  0.00  0.00    -0.179 NA
ATOM      3  O   UNL d   1     -48.388  30.744  33.786  0.00  0.00    -0.265 OA
ENDROOT
BRANCH   1   4
ATOM      4  C   UNL d   1     -47.811  30.761  35.105  0.00  0.00     0.103 A 
ATOM      5  C   UNL d   1     -47.602  31.553  35.121  0.00  0.00     0.116 A 
ATOM      6  N   UNL d   1     -47.141  31.683  35.789  0.00  0.00    -0.126 NA
ATOM      7  O   UNL d   1     -47.067  30.963  36.185  0.00  0.00    -0.211 OA
ATOM      8  C   UNL d   1     -47.480  30.397  35.762  0.00  0.00     0.131 A 
ATOM      9  C   UNL d   1     -47.546  29.600  35.971  0.00  0.00     0.029 C 
BRANCH   5  10
ATOM     10  C   UNL d   1     -47.798  32.147  34.584  0.00  0.00     0.031 A 
ATOM     11  C   UNL d   1     -47.211  32.518  34.143  0.00  0.00     0.059 A 
ATOM     12 CL   UNL d   1     -46.411  32.296  34.235  0.00  0.00    -0.082 Cl
ATOM     13  C   UNL d   1     -47.404  33.105  33.611  0.00  0.00     0.011 A 
ATOM     14  C   UNL d   1     -48.192  33.326  33.517  0.00  0.00     0.001 A 
ATOM     15  C   UNL d   1     -48.778  32.962  33.952  0.00  0.00     0.000 A 
ATOM     16  C   UNL d   1     -48.587  32.369  34.490  0.00  0.00     0.002 A 
ENDBRANCH   5  10
ENDBRANCH   1   4
BRANCH   2  17
ATOM     17  C   UNL d   1     -49.088  29.287  34.121  0.00  0.00     0.224 C 
ATOM     18  S   UNL d   1     -49.604  29.732  33.654  0.00  0.00    -0.037 SA
BRANCH  17  19
ATOM     19  N   UNL d   1     -49.033  28.472  34.019  0.00  0.00    -0.212 NA
BRANCH  19  20
ATOM     20  C   UNL d   1     -49.707  28.039  33.817  0.00  0.00     0.143 C 
BRANCH  20  21
ATOM     21  C   UNL d   1     -49.688  27.211  33.815  0.00  0.00     0.215 C 
ATOM     22  O   UNL d   1     -48.987  26.811  33.961  0.00  0.00    -0.285 OA
BRANCH  21  23
ATOM     23  C   UNL d   1     -50.381  26.788  33.667  0.00  0.00     0.041 A 
ATOM     24  C   UNL d   1     -51.071  27.179  33.456  0.00  0.00     0.003 A 
ATOM     25  C   UNL d   1     -51.764  26.756  33.307  0.00  0.00     0.000 A 
ATOM     26  C   UNL d   1     -51.761  25.932  33.372  0.00  0.00     0.000 A 
ATOM     27  C   UNL d   1     -51.072  25.541  33.582  0.00  0.00     0.000 A 
ATOM     28  C   UNL d   1     -50.379  25.963  33.731  0.00  0.00     0.003 A 
ENDBRANCH  21  23
ENDBRANCH  20  21
ENDBRANCH  19  20
ENDBRANCH  17  19
ENDBRANCH   2  17
TORSDOF 7
ENDMDL
MODEL 2
REMARK VINA RESULT:      68.4      0.982      1.362
REMARK  7 active torsions:
REMARK  status: ('A' for Active; 'I' for Inactive)
REMARK    1  A    between atoms: C_3  and  C_1 
REMARK    2  A    between atoms: C_6  and  C_2 
REMARK       I    between atoms: N_5  and  C_3 
REMARK    3  A    between atoms: C_9  and  N_5 
REMARK    4  A    between atoms: N_10  and  C_9 
REMARK    5  A    between atoms: C_15  and  N_10 
REMARK    6  A    between atoms: C_13  and  C_15 
REMARK    7  A    between atoms: C_17  and  C_13 
ROOT
ATOM      1  C   UNL d   1     -48.637  29.355  34.800  0.00  0.00     0.285 C 
ATOM      2  N   UNL d   1     -48.624  28.582  34.516  0.00  0.00    -0.179 NA
ATOM      3  O   UNL d   1     -49.188  29.897  34.509  0.00  0.00    -0.265 OA
ENDROOT
BRANCH   1   4
ATOM      4  C   UNL d   1     -48.088  29.585  35.384  0.00  0.00     0.103 A 
ATOM      5  C   UNL d   1     -47.716  30.313  35.438  0.00  0.00     0.116 A 
ATOM      6  N   UNL d   1     -47.223  30.302  36.094  0.00  0.00    -0.126 NA
ATOM      7  O   UNL d   1     -47.293  29.558  36.446  0.00  0.00    -0.211 OA
ATOM      8  C   UNL d   1     -47.826  29.119  36.007  0.00  0.00     0.131 A 
ATOM      9  C   UNL d   1     -48.053  28.341  36.173  0.00  0.00     0.029 C 
BRANCH   5  10
ATOM     10  C   UNL d   1     -47.796  30.967  34.943  0.00  0.00     0.031 A 
ATOM     11  C   UNL d   1     -47.131  31.382  34.692  0.00  0.00     0.059 A 
ATOM     12 CL   UNL d   1     -46.369  31.143  34.938  0.00  0.00    -0.082 Cl
ATOM     13  C   UNL d   1     -47.209  32.028  34.203  0.00  0.00     0.011 A 
ATOM     14  C   UNL d   1     -47.959  32.267  33.959  0.00  0.00     0.001 A 
ATOM     15  C   UNL d   1     -48.622  31.860  34.204  0.00  0.00     0.000 A 
ATOM     16  C   UNL d   1     -48.547  31.206  34.698  0.00  0.00     0.002 A 
ENDBRANCH   5  10
ENDBRANCH   1   4
BRANCH   2  17
ATOM     17  C   UNL d   1     -49.163  28.349  33.939  0.00  0.00     0.224 C 
ATOM     18  S   UNL d   1     -49.344  28.859  33.316  0.00  0.00    -0.037 SA
BRANCH  17  19
ATOM     19  N   UNL d   1     -49.518  27.607  33.986  0.00  0.00    -0.212 NA
BRANCH  19  20
ATOM     20  C   UNL d   1     -49.914  27.301  33.328  0.00  0.00     0.143 C 
BRANCH  20  21
ATOM     21  C   UNL d   1     -50.660  26.952  33.414  0.00  0.00     0.215 C 
ATOM     22  O   UNL d   1     -51.325  27.418  33.532  0.00  0.00    -0.285 OA
BRANCH  21  23
ATOM     23  C   UNL d   1     -50.733  26.131  33.378  0.00  0.00     0.041 A 
ATOM     24  C   UNL d   1     -50.065  25.655  33.358  0.00  0.00     0.003 A 
ATOM     25  C   UNL d   1     -50.137  24.833  33.323  0.00  0.00     0.000 A 
ATOM     26  C   UNL d   1     -50.889  24.489  33.308  0.00  0.00     0.000 A 
ATOM     27  C   UNL d   1     -51.556  24.965  33.329  0.00  0.00     0.000 A 
ATOM     28  C   UNL d   1     -51.485  25.787  33.364  0.00  0.00     0.003 A 
ENDBRANCH  21  23
ENDBRANCH  20  21
ENDBRANCH  19  20
ENDBRANCH  17  19
ENDBRANCH   2  17
TORSDOF 7
ENDMDL
