MODEL 1
REMARK VINA RESULT:      16.9      0.000      0.000
REMARK  5 active torsions:
REMARK  status: ('A' for Active; 'I' for Inactive)
REMARK    1  A    between atoms: C_3  and  S_1 
REMARK    2  A    between atoms: N_10  and  S_1 
REMARK    3  A    between atoms: C_19  and  N_10 
REMARK    4  A    between atoms: C_21  and  C_19 
REMARK    5  A    between atoms: C_22  and  C_21 
ROOT
ATOM      1  N   UNL d   1      46.397 -19.344  43.353  0.00  0.00    -0.273 N 
ATOM      2  C   UNL d   1      46.050 -16.999  44.055  0.00  0.00     0.104 A 
ATOM      3  C   UNL d   1      46.281 -18.561  43.587  0.00  0.00     0.067 A 
ATOM      4  C   UNL d   1      46.170 -17.978  43.019  0.00  0.00     0.017 A 
ATOM      5  C   UNL d   1      46.277 -18.366  44.389  0.00  0.00     0.017 A 
ATOM      6  C   UNL d   1      46.402 -19.540  42.552  0.00  0.00     0.265 A 
ATOM      7  C   UNL d   1      46.054 -17.194  43.253  0.00  0.00     0.014 A 
ATOM      8  C   UNL d   1      46.161 -17.587  44.623  0.00  0.00     0.014 A 
ATOM      9  C   UNL d   1      46.175 -18.173  42.218  0.00  0.00     0.006 A 
ATOM     10  C   UNL d   1      46.290 -18.951  41.984  0.00  0.00     0.061 A 
ATOM     11  O   UNL d   1      46.519 -20.330  42.312  0.00  0.00    -0.267 OA
ATOM     12  C   UNL d   1      46.509 -19.932  43.922  0.00  0.00     0.083 A 
ATOM     13  C   UNL d   1      46.387 -18.945  44.954  0.00  0.00     0.003 A 
ATOM     14  C   UNL d   1      46.503 -19.729  44.722  0.00  0.00     0.019 A 
ENDROOT
BRANCH   2  15
ATOM     15  S   UNL d   1      45.933 -16.211  44.286  0.00  0.00     0.271 S 
ATOM     16  O   UNL d   1      45.301 -16.452  44.772  0.00  0.00    -0.200 OA
ATOM     17  O   UNL d   1      46.562 -15.965  43.804  0.00  0.00    -0.200 OA
BRANCH  15  18
ATOM     18  N   UNL d   1      45.813 -15.418  44.521  0.00  0.00    -0.228 N 
ATOM     19  C   UNL d   1      46.390 -15.016  44.945  0.00  0.00     0.111 C 
BRANCH  18  20
ATOM     20  C   UNL d   1      45.110 -15.033  44.328  0.00  0.00     0.092 C 
BRANCH  20  21
ATOM     21  C   UNL d   1      45.071 -14.209  44.350  0.00  0.00     0.020 C 
BRANCH  21  22
ATOM     22  C   UNL d   1      44.384 -13.821  44.109  0.00  0.00     0.002 C 
ATOM     23  C   UNL d   1      44.426 -13.182  43.609  0.00  0.00     0.000 C 
ENDBRANCH  21  22
ENDBRANCH  20  21
ENDBRANCH  18  20
ENDBRANCH  15  18
ENDBRANCH   2  15
TORSDOF 5
ENDMDL
