MODEL 1
REMARK VINA RESULT:      62.0      0.000      0.000
REMARK  4 active torsions:
REMARK  status: ('A' for Active; 'I' for Inactive)
REMARK    1  A    between atoms: N_2  and  S_1 
REMARK    2  A    between atoms: C_4  and  S_1 
REMARK    3  A    between atoms: C_11  and  C_3 
REMARK    4  A    between atoms: O_17  and  C_9 
ROOT
ATOM      1  S   UNL d   1     -56.492 -99.193 -44.271  0.00  0.00     0.273 S 
ATOM      2  O   UNL d   1     -56.936 -99.598 -43.697  0.00  0.00    -0.200 OA
ATOM      3  O   UNL d   1     -56.053 -98.792 -44.839  0.00  0.00    -0.200 OA
ENDROOT
BRANCH   1   4
ATOM      4  N   UNL d   1     -55.812 -99.302 -43.822  0.00  0.00    -0.213 N 
ATOM      5  C   UNL d   1     -55.329 -99.968 -43.826  0.00  0.00     0.157 A 
ATOM      6  N   UNL d   1     -54.711 -99.842 -43.294  0.00  0.00    -0.224 NA
ATOM      7  C   UNL d   1     -54.813 -99.089 -42.957  0.00  0.00     0.120 A 
ATOM      8  C   UNL d   1     -55.493 -98.756 -43.284  0.00  0.00     0.114 A 
BRANCH   5   9
ATOM      9  C   UNL d   1     -55.445-100.646 -44.284  0.00  0.00     0.035 A 
ATOM     10  C   UNL d   1     -56.003-101.206 -44.063  0.00  0.00     0.003 A 
ATOM     11  C   UNL d   1     -56.122-101.886 -44.519  0.00  0.00     0.000 A 
ATOM     12  C   UNL d   1     -55.669-102.000 -45.211  0.00  0.00     0.000 A 
ATOM     13  C   UNL d   1     -55.112-101.440 -45.433  0.00  0.00     0.000 A 
ATOM     14  C   UNL d   1     -54.996-100.762 -44.974  0.00  0.00     0.003 A 
ENDBRANCH   5   9
ENDBRANCH   1   4
BRANCH   1  15
ATOM     15  C   UNL d   1     -57.179 -99.083 -44.725  0.00  0.00     0.106 A 
ATOM     16  C   UNL d   1     -57.928 -99.182 -44.378  0.00  0.00     0.039 A 
ATOM     17  C   UNL d   1     -58.607 -99.073 -44.827  0.00  0.00     0.122 A 
ATOM     18  C   UNL d   1     -58.543 -98.864 -45.626  0.00  0.00     0.162 A 
ATOM     19  C   UNL d   1     -57.802 -98.766 -45.972  0.00  0.00     0.032 A 
ATOM     20  F   UNL d   1     -59.224 -98.756 -46.076  0.00  0.00    -0.202 F 
ATOM     21  C   UNL d   1     -57.124 -98.876 -45.520  0.00  0.00     0.015 A 
BRANCH  17  22
ATOM     22  O   UNL d   1     -59.349 -99.171 -44.482  0.00  0.00    -0.326 OA
ATOM     23  C   UNL d   1     -59.510 -98.831 -43.752  0.00  0.00     0.181 C 
ENDBRANCH  17  22
ENDBRANCH   1  15
TORSDOF 4
ENDMDL
