MODEL 1
REMARK VINA RESULT:      14.7      0.000      0.000
REMARK  3 active torsions:
REMARK  status: ('A' for Active; 'I' for Inactive)
REMARK    1  A    between atoms: N_2  and  C_1 
REMARK    2  A    between atoms: N_4  and  C_1 
REMARK       I    between atoms: C_3  and  N_2 
REMARK    3  A    between atoms: C_5  and  C_3 
ROOT
ATOM      1  C   UNL d   1      45.937 -16.935  44.250  0.00  0.00     0.209 C 
ATOM      2  S   UNL d   1      46.023 -17.381  44.950  0.00  0.00    -0.038 SA
ENDROOT
BRANCH   1   3
ATOM      3  N   UNL d   1      46.054 -17.282  43.522  0.00  0.00    -0.179 NA
ATOM      4  C   UNL d   1      46.274 -18.072  43.470  0.00  0.00     0.287 C 
ATOM      5  O   UNL d   1      46.375 -18.516  44.161  0.00  0.00    -0.265 OA
BRANCH   4   6
ATOM      6  C   UNL d   1      46.393 -18.425  42.734  0.00  0.00     0.087 A 
ATOM      7  S   UNL d   1      46.613 -18.112  41.996  0.00  0.00    -0.082 SA
ATOM      8  C   UNL d   1      46.646 -18.735  41.453  0.00  0.00     0.036 A 
ATOM      9  C   UNL d   1      46.449 -19.426  41.852  0.00  0.00     0.008 A 
ATOM     10  C   UNL d   1      46.292 -19.239  42.645  0.00  0.00     0.012 A 
ENDBRANCH   4   6
ENDBRANCH   1   3
BRANCH   1  11
ATOM     11  N   UNL d   1      45.729 -16.131  44.297  0.00  0.00    -0.281 N 
ATOM     12  C   UNL d   1      45.048 -15.897  44.707  0.00  0.00     0.082 A 
ATOM     13  C   UNL d   1      44.844 -15.106  44.752  0.00  0.00     0.019 A 
ATOM     14  C   UNL d   1      45.318 -14.531  44.387  0.00  0.00     0.003 A 
ATOM     15  C   UNL d   1      45.995 -14.770  43.980  0.00  0.00     0.019 A 
ATOM     16  C   UNL d   1      45.117 -13.723  44.429  0.00  0.00     0.000 C 
ATOM     17  C   UNL d   1      46.200 -15.564  43.935  0.00  0.00     0.082 A 
ENDBRANCH   1  11
TORSDOF 3
ENDMDL
MODEL 2
REMARK VINA RESULT:      15.6      1.109      3.929
REMARK  3 active torsions:
REMARK  status: ('A' for Active; 'I' for Inactive)
REMARK    1  A    between atoms: N_2  and  C_1 
REMARK    2  A    between atoms: N_4  and  C_1 
REMARK       I    between atoms: C_3  and  N_2 
REMARK    3  A    between atoms: C_5  and  C_3 
ROOT
ATOM      1  C   UNL d   1      46.170 -17.349  44.199  0.00  0.00     0.209 C 
ATOM      2  S   UNL d   1      46.021 -17.670  44.955  0.00  0.00    -0.038 SA
ENDROOT
BRANCH   1   3
ATOM      3  N   UNL d   1      46.201 -16.541  44.092  0.00  0.00    -0.179 NA
ATOM      4  C   UNL d   1      45.656 -16.053  44.467  0.00  0.00     0.287 C 
ATOM      5  O   UNL d   1      45.075 -16.384  44.955  0.00  0.00    -0.265 OA
BRANCH   4   6
ATOM      6  C   UNL d   1      45.685 -15.235  44.361  0.00  0.00     0.087 A 
ATOM      7  S   UNL d   1      46.215 -14.747  43.946  0.00  0.00    -0.082 SA
ATOM      8  C   UNL d   1      45.965 -13.964  44.034  0.00  0.00     0.036 A 
ATOM      9  C   UNL d   1      45.288 -13.968  44.499  0.00  0.00     0.008 A 
ATOM     10  C   UNL d   1      45.111 -14.753  44.703  0.00  0.00     0.012 A 
ENDBRANCH   4   6
ENDBRANCH   1   3
BRANCH   1  11
ATOM     11  N   UNL d   1      46.288 -17.857  43.551  0.00  0.00    -0.281 N 
ATOM     12  C   UNL d   1      46.190 -17.578  42.777  0.00  0.00     0.082 A 
ATOM     13  C   UNL d   1      46.306 -18.077  42.140  0.00  0.00     0.019 A 
ATOM     14  C   UNL d   1      46.523 -18.868  42.264  0.00  0.00     0.003 A 
ATOM     15  C   UNL d   1      46.618 -19.141  43.037  0.00  0.00     0.019 A 
ATOM     16  C   UNL d   1      46.642 -19.384  41.619  0.00  0.00     0.000 C 
ATOM     17  C   UNL d   1      46.502 -18.639  43.677  0.00  0.00     0.082 A 
ENDBRANCH   1  11
TORSDOF 3
ENDMDL
MODEL 3
REMARK VINA RESULT:      17.0      1.221      1.835
REMARK  3 active torsions:
REMARK  status: ('A' for Active; 'I' for Inactive)
REMARK    1  A    between atoms: N_2  and  C_1 
REMARK    2  A    between atoms: N_4  and  C_1 
REMARK       I    between atoms: C_3  and  N_2 
REMARK    3  A    between atoms: C_5  and  C_3 
ROOT
ATOM      1  C   UNL d   1      45.218 -15.342  44.430  0.00  0.00     0.209 C 
ATOM      2  S   UNL d   1      44.605 -15.554  44.955  0.00  0.00    -0.038 SA
ENDROOT
BRANCH   1   3
ATOM      3  N   UNL d   1      45.644 -15.916  44.039  0.00  0.00    -0.179 NA
ATOM      4  C   UNL d   1      45.542 -16.709  44.229  0.00  0.00     0.287 C 
ATOM      5  O   UNL d   1      45.004 -16.924  44.820  0.00  0.00    -0.265 OA
BRANCH   4   6
ATOM      6  C   UNL d   1      45.973 -17.292  43.834  0.00  0.00     0.087 A 
ATOM      7  S   UNL d   1      46.239 -17.352  43.049  0.00  0.00    -0.082 SA
ATOM      8  C   UNL d   1      46.646 -18.066  42.969  0.00  0.00     0.036 A 
ATOM      9  C   UNL d   1      46.633 -18.445  43.698  0.00  0.00     0.008 A 
ATOM     10  C   UNL d   1      46.217 -17.969  44.237  0.00  0.00     0.012 A 
ENDBRANCH   4   6
ENDBRANCH   1   3
BRANCH   1  11
ATOM     11  N   UNL d   1      45.394 -14.539  44.306  0.00  0.00    -0.281 N 
ATOM     12  C   UNL d   1      45.008 -14.112  43.709  0.00  0.00     0.082 A 
ATOM     13  C   UNL d   1      45.182 -13.322  43.587  0.00  0.00     0.019 A 
ATOM     14  C   UNL d   1      45.748 -12.941  44.060  0.00  0.00     0.003 A 
ATOM     15  C   UNL d   1      46.129 -13.371  44.652  0.00  0.00     0.019 A 
ATOM     16  C   UNL d   1      45.931 -12.137  43.941  0.00  0.00     0.000 C 
ATOM     17  C   UNL d   1      45.954 -14.164  44.775  0.00  0.00     0.082 A 
ENDBRANCH   1  11
TORSDOF 3
ENDMDL
