MODEL 1
REMARK VINA RESULT:      47.2      0.000      0.000
REMARK  2 active torsions:
REMARK  status: ('A' for Active; 'I' for Inactive)
REMARK    1  A    between atoms: N_9  and  C_3 
REMARK    2  A    between atoms: C_11  and  C_4 
ROOT
ATOM      1  N   UNL d   1      45.964 -16.012  43.314  0.00  0.00    -0.196 N 
ATOM      2  C   UNL d   1      46.026 -16.838  43.119  0.00  0.00     0.167 A 
ATOM      3  C   UNL d   1      45.633 -15.803  44.019  0.00  0.00     0.152 A 
ATOM      4  C   UNL d   1      46.356 -17.067  42.414  0.00  0.00     0.057 A 
ATOM      5  N   UNL d   1      46.576 -15.687  42.071  0.00  0.00    -0.161 NA
ATOM      6  N   UNL d   1      45.751 -17.401  43.643  0.00  0.00    -0.227 NA
ATOM      7  C   UNL d   1      45.352 -16.363  44.555  0.00  0.00     0.057 A 
ATOM      8  C   UNL d   1      46.636 -16.488  41.882  0.00  0.00     0.124 A 
ATOM      9  C   UNL d   1      45.413 -17.176  44.364  0.00  0.00     0.086 A 
ATOM     10  C   UNL d   1      45.123 -17.769  44.916  0.00  0.00     0.021 C 
ENDROOT
BRANCH   4  11
ATOM     11  C   UNL d   1      46.416 -17.868  42.226  0.00  0.00     0.005 A 
ATOM     12  C   UNL d   1      46.568 -18.412  42.813  0.00  0.00     0.001 A 
ATOM     13  C   UNL d   1      46.626 -19.200  42.627  0.00  0.00     0.011 A 
ATOM     14  C   UNL d   1      46.533 -19.456  41.852  0.00  0.00     0.058 A 
ATOM     15  C   UNL d   1      46.381 -18.911  41.265  0.00  0.00     0.011 A 
ATOM     16 CL   UNL d   1      46.596 -20.296  41.654  0.00  0.00    -0.082 Cl
ATOM     17  C   UNL d   1      46.322 -18.110  41.454  0.00  0.00     0.001 A 
ENDBRANCH   4  11
BRANCH   3  18
ATOM     18  N   UNL d   1      45.569 -14.969  44.220  0.00  0.00    -0.289 N 
ATOM     19  C   UNL d   1      46.159 -14.596  44.718  0.00  0.00     0.082 A 
ATOM     20  C   UNL d   1      46.100 -13.771  44.918  0.00  0.00     0.019 A 
ATOM     21  C   UNL d   1      45.441 -13.301  44.619  0.00  0.00     0.003 A 
ATOM     22  C   UNL d   1      44.852 -13.681  44.119  0.00  0.00     0.019 A 
ATOM     23  C   UNL d   1      44.912 -14.506  43.919  0.00  0.00     0.082 A 
ENDBRANCH   3  18
TORSDOF 2
ENDMDL
MODEL 2
REMARK VINA RESULT:      47.3      1.055      1.602
REMARK  2 active torsions:
REMARK  status: ('A' for Active; 'I' for Inactive)
REMARK    1  A    between atoms: N_9  and  C_3 
REMARK    2  A    between atoms: C_11  and  C_4 
ROOT
ATOM      1  N   UNL d   1      45.553 -15.073  43.596  0.00  0.00    -0.196 N 
ATOM      2  C   UNL d   1      45.487 -15.921  43.577  0.00  0.00     0.167 A 
ATOM      3  C   UNL d   1      45.039 -14.654  44.056  0.00  0.00     0.152 A 
ATOM      4  C   UNL d   1      45.995 -16.358  43.120  0.00  0.00     0.057 A 
ATOM      5  N   UNL d   1      46.645 -15.150  42.687  0.00  0.00    -0.161 NA
ATOM      6  N   UNL d   1      44.911 -16.294  44.020  0.00  0.00    -0.227 NA
ATOM      7  C   UNL d   1      44.454 -15.021  44.507  0.00  0.00     0.057 A 
ATOM      8  C   UNL d   1      46.582 -15.972  42.669  0.00  0.00     0.124 A 
ATOM      9  C   UNL d   1      44.390 -15.856  44.488  0.00  0.00     0.086 A 
ATOM     10  C   UNL d   1      43.783 -16.249  44.955  0.00  0.00     0.021 C 
ENDROOT
BRANCH   4  11
ATOM     11  C   UNL d   1      45.931 -17.181  43.101  0.00  0.00     0.005 A 
ATOM     12  C   UNL d   1      45.656 -17.551  42.430  0.00  0.00     0.001 A 
ATOM     13  C   UNL d   1      45.593 -18.360  42.412  0.00  0.00     0.011 A 
ATOM     14  C   UNL d   1      45.805 -18.811  43.065  0.00  0.00     0.058 A 
ATOM     15  C   UNL d   1      46.080 -18.440  43.737  0.00  0.00     0.011 A 
ATOM     16 CL   UNL d   1      45.738 -19.673  43.046  0.00  0.00    -0.082 Cl
ATOM     17  C   UNL d   1      46.144 -17.618  43.755  0.00  0.00     0.001 A 
ENDBRANCH   4  11
BRANCH   3  18
ATOM     18  N   UNL d   1      45.102 -13.796  44.078  0.00  0.00    -0.289 N 
ATOM     19  C   UNL d   1      44.829 -13.324  43.416  0.00  0.00     0.082 A 
ATOM     20  C   UNL d   1      44.890 -12.476  43.434  0.00  0.00     0.019 A 
ATOM     21  C   UNL d   1      45.229 -12.082  44.122  0.00  0.00     0.003 A 
ATOM     22  C   UNL d   1      45.502 -12.561  44.783  0.00  0.00     0.019 A 
ATOM     23  C   UNL d   1      45.441 -13.410  44.765  0.00  0.00     0.082 A 
ENDBRANCH   3  18
TORSDOF 2
ENDMDL
