MODEL 1
REMARK VINA RESULT:      32.1      0.000      0.000
REMARK  5 active torsions:
REMARK  status: ('A' for Active; 'I' for Inactive)
REMARK    1  A    between atoms: N_6  and  C_1 
REMARK    2  A    between atoms: S_10  and  C_4 
REMARK       I    between atoms: C_7  and  N_6 
REMARK       I    between atoms: N_8  and  C_7 
REMARK    3  A    between atoms: C_11  and  N_8 
REMARK    4  A    between atoms: C_18  and  S_10 
REMARK    5  A    between atoms: C_19  and  C_18 
ROOT
ATOM      1  N   UNL d   1      13.665  12.849  -3.029  0.00  0.00    -0.321 NA
ATOM      2  C   UNL d   1      13.305  13.017  -3.614  0.00  0.00     0.422 C 
ATOM      3  N   UNL d   1      12.845  13.205  -4.334  0.00  0.00    -0.180 NA
ATOM      4  O   UNL d   1      13.699  13.586  -3.716  0.00  0.00    -0.228 OA
ENDROOT
BRANCH   1   5
ATOM      5  C   UNL d   1      13.997  12.504  -2.302  0.00  0.00     0.271 A 
ATOM      6  S   UNL d   1      13.850  12.519  -1.611  0.00  0.00    -0.006 SA
ATOM      7  C   UNL d   1      14.264  12.152  -1.163  0.00  0.00     0.166 A 
ATOM      8  N   UNL d   1      14.814  11.780  -1.407  0.00  0.00    -0.132 NA
ATOM      9  N   UNL d   1      14.547  12.132  -2.546  0.00  0.00    -0.107 NA
BRANCH   7  10
ATOM     10  S   UNL d   1      14.225  12.083  -0.444  0.00  0.00    -0.059 SA
BRANCH  10  11
ATOM     11  C   UNL d   1      14.885  11.847  -0.017  0.00  0.00     0.037 C 
BRANCH  11  12
ATOM     12  C   UNL d   1      15.563  12.310  -0.024  0.00  0.00     0.007 C 
ATOM     13  C   UNL d   1      15.507  13.128  -0.016  0.00  0.00     0.001 C 
ENDBRANCH  11  12
ENDBRANCH  10  11
ENDBRANCH   7  10
ENDBRANCH   1   5
BRANCH   3  14
ATOM     14  C   UNL d   1      13.037  13.881  -4.777  0.00  0.00     0.087 A 
ATOM     15  C   UNL d   1      12.784  14.624  -4.520  0.00  0.00     0.022 A 
ATOM     16  C   UNL d   1      12.980  15.289  -4.968  0.00  0.00     0.031 A 
ATOM     17  C   UNL d   1      13.422  15.220  -5.661  0.00  0.00     0.140 A 
ATOM     18  C   UNL d   1      13.672  14.474  -5.911  0.00  0.00     0.031 A 
ATOM     19  F   UNL d   1      13.615  15.896  -6.103  0.00  0.00    -0.204 F 
ATOM     20  C   UNL d   1      13.480  13.805  -5.469  0.00  0.00     0.022 A 
ENDBRANCH   3  14
TORSDOF 5
ENDMDL
