MODEL 1
REMARK VINA RESULT:       0.0      0.000      0.000
REMARK  3 active torsions:
REMARK  status: ('A' for Active; 'I' for Inactive)
REMARK    1  A    between atoms: N_3  and  C_2 
REMARK       I    between atoms: C_4  and  N_3 
REMARK    2  A    between atoms: C_10  and  N_3 
REMARK    3  A    between atoms: C_12  and  C_4 
ROOT
ATOM      1  N   UNL d   1     -41.564-122.277 -52.376  0.00  0.00    -0.274 N 
ATOM      2  C   UNL d   1     -41.254-121.083 -52.155  0.00  0.00     0.265 C 
ATOM      3  O   UNL d   1     -41.144-120.669 -52.832  0.00  0.00    -0.267 OA
ENDROOT
BRANCH   1   4
ATOM      4  C   UNL d   1     -41.683-122.724 -51.738  0.00  0.00     0.079 A 
ATOM      5  C   UNL d   1     -42.340-122.749 -51.307  0.00  0.00     0.116 A 
ATOM      6  S   UNL d   1     -42.227-123.263 -50.725  0.00  0.00     0.213 S 
ATOM      7  C   UNL d   1     -41.501-123.553 -50.801  0.00  0.00     0.100 A 
ATOM      8  O   UNL d   1     -42.114-123.778 -50.143  0.00  0.00    -0.217 OA
ATOM      9  O   UNL d   1     -42.953-122.996 -50.621  0.00  0.00    -0.217 OA
ATOM     10  C   UNL d   1     -41.167-123.222 -51.423  0.00  0.00     0.030 A 
ENDBRANCH   1   4
BRANCH   1  11
ATOM     11  C   UNL d   1     -41.639-122.573 -53.144  0.00  0.00     0.067 A 
ATOM     12  C   UNL d   1     -41.127-123.160 -53.397  0.00  0.00     0.020 A 
ATOM     13  C   UNL d   1     -41.199-123.467 -54.181  0.00  0.00     0.031 A 
ATOM     14  C   UNL d   1     -41.786-123.171 -54.685  0.00  0.00     0.140 A 
ATOM     15  C   UNL d   1     -42.298-122.580 -54.424  0.00  0.00     0.031 A 
ATOM     16  F   UNL d   1     -41.861-123.465 -55.449  0.00  0.00    -0.204 F 
ATOM     17  C   UNL d   1     -42.240-122.271 -53.662  0.00  0.00     0.020 A 
ENDBRANCH   1  11
BRANCH   2  18
ATOM     18  C   UNL d   1     -41.173-120.764 -51.395  0.00  0.00     0.057 C 
ATOM     19  C   UNL d   1     -41.131-121.264 -50.723  0.00  0.00     0.005 C 
ATOM     20  C   UNL d   1     -41.132-119.926 -51.295  0.00  0.00     0.005 C 
ENDBRANCH   2  18
TORSDOF 3
ENDMDL
MODEL 2
REMARK VINA RESULT:       0.3      1.128      2.300
REMARK  3 active torsions:
REMARK  status: ('A' for Active; 'I' for Inactive)
REMARK    1  A    between atoms: N_3  and  C_2 
REMARK       I    between atoms: C_4  and  N_3 
REMARK    2  A    between atoms: C_10  and  N_3 
REMARK    3  A    between atoms: C_12  and  C_4 
ROOT
ATOM      1  N   UNL d   1     -41.767-122.188 -52.433  0.00  0.00    -0.274 N 
ATOM      2  C   UNL d   1     -41.960-123.145 -51.648  0.00  0.00     0.265 C 
ATOM      3  O   UNL d   1     -42.161-123.817 -52.035  0.00  0.00    -0.267 OA
ENDROOT
BRANCH   1   4
ATOM      4  C   UNL d   1     -41.567-121.504 -52.097  0.00  0.00     0.079 A 
ATOM      5  C   UNL d   1     -41.671-120.788 -52.408  0.00  0.00     0.116 A 
ATOM      6  S   UNL d   1     -41.397-120.261 -51.896  0.00  0.00     0.213 S 
ATOM      7  C   UNL d   1     -41.126-120.654 -51.271  0.00  0.00     0.100 A 
ATOM      8  O   UNL d   1     -41.123-119.734 -51.383  0.00  0.00    -0.217 OA
ATOM      9  O   UNL d   1     -41.656-119.840 -52.499  0.00  0.00    -0.217 OA
ATOM     10  C   UNL d   1     -41.230-121.417 -51.396  0.00  0.00     0.030 A 
ENDBRANCH   1   4
BRANCH   1  11
ATOM     11  C   UNL d   1     -41.845-122.272 -53.252  0.00  0.00     0.067 A 
ATOM     12  C   UNL d   1     -41.207-122.543 -53.688  0.00  0.00     0.020 A 
ATOM     13  C   UNL d   1     -41.282-122.631 -54.525  0.00  0.00     0.031 A 
ATOM     14  C   UNL d   1     -41.999-122.442 -54.895  0.00  0.00     0.140 A 
ATOM     15  C   UNL d   1     -42.637-122.171 -54.450  0.00  0.00     0.031 A 
ATOM     16  F   UNL d   1     -42.077-122.526 -55.709  0.00  0.00    -0.204 F 
ATOM     17  C   UNL d   1     -42.579-122.080 -53.633  0.00  0.00     0.020 A 
ENDBRANCH   1  11
BRANCH   2  18
ATOM     18  C   UNL d   1     -41.888-123.085 -50.825  0.00  0.00     0.057 C 
ATOM     19  C   UNL d   1     -41.197-123.358 -50.436  0.00  0.00     0.005 C 
ATOM     20  C   UNL d   1     -42.516-122.745 -50.373  0.00  0.00     0.005 C 
ENDBRANCH   2  18
TORSDOF 3
ENDMDL
MODEL 3
REMARK VINA RESULT:       0.7      2.005      3.562
REMARK  3 active torsions:
REMARK  status: ('A' for Active; 'I' for Inactive)
REMARK    1  A    between atoms: N_3  and  C_2 
REMARK       I    between atoms: C_4  and  N_3 
REMARK    2  A    between atoms: C_10  and  N_3 
REMARK    3  A    between atoms: C_12  and  C_4 
ROOT
ATOM      1  N   UNL d   1     -41.810-122.408 -51.546  0.00  0.00    -0.274 N 
ATOM      2  C   UNL d   1     -41.944-123.057 -52.610  0.00  0.00     0.265 C 
ATOM      3  O   UNL d   1     -42.157-123.817 -52.475  0.00  0.00    -0.267 OA
ENDROOT
BRANCH   1   4
ATOM      4  C   UNL d   1     -41.600-121.653 -51.629  0.00  0.00     0.079 A 
ATOM      5  C   UNL d   1     -41.656-121.095 -51.077  0.00  0.00     0.116 A 
ATOM      6  S   UNL d   1     -41.389-120.424 -51.386  0.00  0.00     0.213 S 
ATOM      7  C   UNL d   1     -41.171-120.573 -52.126  0.00  0.00     0.100 A 
ATOM      8  O   UNL d   1     -41.123-119.754 -51.694  0.00  0.00    -0.217 OA
ATOM      9  O   UNL d   1     -41.596-120.243 -50.655  0.00  0.00    -0.217 OA
ATOM     10  C   UNL d   1     -41.301-121.327 -52.274  0.00  0.00     0.030 A 
ENDBRANCH   1   4
BRANCH   1  11
ATOM     11  C   UNL d   1     -41.934-122.754 -50.806  0.00  0.00     0.067 A 
ATOM     12  C   UNL d   1     -41.309-123.126 -50.429  0.00  0.00     0.020 A 
ATOM     13  C   UNL d   1     -41.430-123.481 -49.672  0.00  0.00     0.031 A 
ATOM     14  C   UNL d   1     -42.179-123.449 -49.319  0.00  0.00     0.140 A 
ATOM     15  C   UNL d   1     -42.804-123.073 -49.704  0.00  0.00     0.031 A 
ATOM     16  F   UNL d   1     -42.303-123.792 -48.583  0.00  0.00    -0.204 F 
ATOM     17  C   UNL d   1     -42.700-122.722 -50.442  0.00  0.00     0.020 A 
ENDBRANCH   1  11
BRANCH   2  18
ATOM     18  C   UNL d   1     -41.825-122.733 -53.363  0.00  0.00     0.057 C 
ATOM     19  C   UNL d   1     -42.395-122.219 -53.702  0.00  0.00     0.005 C 
ATOM     20  C   UNL d   1     -41.123-122.921 -53.794  0.00  0.00     0.005 C 
ENDBRANCH   2  18
TORSDOF 3
ENDMDL
MODEL 4
REMARK VINA RESULT:       1.5      2.746      4.108
REMARK  3 active torsions:
REMARK  status: ('A' for Active; 'I' for Inactive)
REMARK    1  A    between atoms: N_3  and  C_2 
REMARK       I    between atoms: C_4  and  N_3 
REMARK    2  A    between atoms: C_10  and  N_3 
REMARK    3  A    between atoms: C_12  and  C_4 
ROOT
ATOM      1  N   UNL d   1     -42.383-122.799 -50.017  0.00  0.00    -0.274 N 
ATOM      2  C   UNL d   1     -43.400-122.080 -50.157  0.00  0.00     0.265 C 
ATOM      3  O   UNL d   1     -43.707-121.850 -49.453  0.00  0.00    -0.267 OA
ENDROOT
BRANCH   1   4
ATOM      4  C   UNL d   1     -42.046-123.049 -50.684  0.00  0.00     0.079 A 
ATOM      5  C   UNL d   1     -41.638-122.606 -51.190  0.00  0.00     0.116 A 
ATOM      6  S   UNL d   1     -41.400-123.069 -51.777  0.00  0.00     0.213 S 
ATOM      7  C   UNL d   1     -41.662-123.795 -51.629  0.00  0.00     0.100 A 
ATOM      8  O   UNL d   1     -41.161-123.533 -52.364  0.00  0.00    -0.217 OA
ATOM      9  O   UNL d   1     -41.124-122.361 -51.954  0.00  0.00    -0.217 OA
ATOM     10  C   UNL d   1     -42.059-123.782 -50.958  0.00  0.00     0.030 A 
ENDBRANCH   1   4
BRANCH   1  11
ATOM     11  C   UNL d   1     -42.088-122.996 -49.271  0.00  0.00     0.067 A 
ATOM     12  C   UNL d   1     -42.435-123.608 -48.852  0.00  0.00     0.020 A 
ATOM     13  C   UNL d   1     -42.137-123.814 -48.090  0.00  0.00     0.031 A 
ATOM     14  C   UNL d   1     -41.497-123.395 -47.773  0.00  0.00     0.140 A 
ATOM     15  C   UNL d   1     -41.151-122.780 -48.199  0.00  0.00     0.031 A 
ATOM     16  F   UNL d   1     -41.202-123.591 -47.031  0.00  0.00    -0.204 F 
ATOM     17  C   UNL d   1     -41.431-122.568 -48.945  0.00  0.00     0.020 A 
ENDBRANCH   1  11
BRANCH   2  18
ATOM     18  C   UNL d   1     -43.715-121.869 -50.894  0.00  0.00     0.057 C 
ATOM     19  C   UNL d   1     -44.378-122.276 -51.207  0.00  0.00     0.005 C 
ATOM     20  C   UNL d   1     -43.366-121.237 -51.333  0.00  0.00     0.005 C 
ENDBRANCH   2  18
TORSDOF 3
ENDMDL
MODEL 5
REMARK VINA RESULT:       2.4      2.251      3.278
REMARK  3 active torsions:
REMARK  status: ('A' for Active; 'I' for Inactive)
REMARK    1  A    between atoms: N_3  and  C_2 
REMARK       I    between atoms: C_4  and  N_3 
REMARK    2  A    between atoms: C_10  and  N_3 
REMARK    3  A    between atoms: C_12  and  C_4 
ROOT
ATOM      1  N   UNL d   1     -41.875-122.366 -51.062  0.00  0.00    -0.274 N 
ATOM      2  C   UNL d   1     -41.660-121.136 -51.173  0.00  0.00     0.265 C 
ATOM      3  O   UNL d   1     -41.798-120.743 -50.489  0.00  0.00    -0.267 OA
ENDROOT
BRANCH   1   4
ATOM      4  C   UNL d   1     -41.753-122.795 -51.712  0.00  0.00     0.079 A 
ATOM      5  C   UNL d   1     -42.244-122.857 -52.324  0.00  0.00     0.116 A 
ATOM      6  S   UNL d   1     -41.913-123.336 -52.850  0.00  0.00     0.213 S 
ATOM      7  C   UNL d   1     -41.220-123.566 -52.559  0.00  0.00     0.100 A 
ATOM      8  O   UNL d   1     -41.581-123.815 -53.376  0.00  0.00    -0.217 OA
ATOM      9  O   UNL d   1     -42.594-123.127 -53.168  0.00  0.00    -0.217 OA
ATOM     10  C   UNL d   1     -41.123-123.234 -51.861  0.00  0.00     0.030 A 
ENDBRANCH   1   4
BRANCH   1  11
ATOM     11  C   UNL d   1     -42.129-122.702 -50.351  0.00  0.00     0.067 A 
ATOM     12  C   UNL d   1     -41.608-123.162 -49.918  0.00  0.00     0.020 A 
ATOM     13  C   UNL d   1     -41.862-123.508 -49.191  0.00  0.00     0.031 A 
ATOM     14  C   UNL d   1     -42.635-123.379 -48.924  0.00  0.00     0.140 A 
ATOM     15  C   UNL d   1     -43.155-122.915 -49.364  0.00  0.00     0.031 A 
ATOM     16  F   UNL d   1     -42.888-123.714 -48.217  0.00  0.00    -0.204 F 
ATOM     17  C   UNL d   1     -42.921-122.571 -50.075  0.00  0.00     0.020 A 
ENDBRANCH   1  11
BRANCH   2  18
ATOM     18  C   UNL d   1     -41.406-120.776 -51.874  0.00  0.00     0.057 C 
ATOM     19  C   UNL d   1     -41.123-119.987 -51.871  0.00  0.00     0.005 C 
ATOM     20  C   UNL d   1     -41.431-121.209 -52.599  0.00  0.00     0.005 C 
ENDBRANCH   2  18
TORSDOF 3
ENDMDL
MODEL 6
REMARK VINA RESULT:       3.0      2.199      3.897
REMARK  3 active torsions:
REMARK  status: ('A' for Active; 'I' for Inactive)
REMARK    1  A    between atoms: N_3  and  C_2 
REMARK       I    between atoms: C_4  and  N_3 
REMARK    2  A    between atoms: C_10  and  N_3 
REMARK    3  A    between atoms: C_12  and  C_4 
ROOT
ATOM      1  N   UNL d   1     -41.857-122.139 -53.281  0.00  0.00    -0.274 N 
ATOM      2  C   UNL d   1     -41.841-123.363 -53.550  0.00  0.00     0.265 C 
ATOM      3  O   UNL d   1     -41.819-123.816 -52.890  0.00  0.00    -0.267 OA
ENDROOT
BRANCH   1   4
ATOM      4  C   UNL d   1     -41.879-121.652 -53.900  0.00  0.00     0.079 A 
ATOM      5  C   UNL d   1     -42.495-121.217 -54.124  0.00  0.00     0.116 A 
ATOM      6  S   UNL d   1     -42.285-120.813 -54.764  0.00  0.00     0.213 S 
ATOM      7  C   UNL d   1     -41.540-121.002 -54.930  0.00  0.00     0.100 A 
ATOM      8  O   UNL d   1     -42.075-120.410 -55.403  0.00  0.00    -0.217 OA
ATOM      9  O   UNL d   1     -43.024-120.604 -54.627  0.00  0.00    -0.217 OA
ATOM     10  C   UNL d   1     -41.292-121.517 -54.400  0.00  0.00     0.030 A 
ENDBRANCH   1   4
BRANCH   1  11
ATOM     11  C   UNL d   1     -41.845-121.863 -52.502  0.00  0.00     0.067 A 
ATOM     12  C   UNL d   1     -41.142-121.881 -52.083  0.00  0.00     0.020 A 
ATOM     13  C   UNL d   1     -41.124-121.600 -51.286  0.00  0.00     0.031 A 
ATOM     14  C   UNL d   1     -41.817-121.310 -50.938  0.00  0.00     0.140 A 
ATOM     15  C   UNL d   1     -42.521-121.294 -51.366  0.00  0.00     0.031 A 
ATOM     16  F   UNL d   1     -41.805-121.035 -50.163  0.00  0.00    -0.204 F 
ATOM     17  C   UNL d   1     -42.554-121.564 -52.144  0.00  0.00     0.020 A 
ENDBRANCH   1  11
BRANCH   2  18
ATOM     18  C   UNL d   1     -41.853-123.663 -54.322  0.00  0.00     0.057 C 
ATOM     19  C   UNL d   1     -42.581-123.817 -54.710  0.00  0.00     0.005 C 
ATOM     20  C   UNL d   1     -41.125-123.815 -54.723  0.00  0.00     0.005 C 
ENDBRANCH   2  18
TORSDOF 3
ENDMDL
