MODEL 1
REMARK VINA RESULT:      24.1      0.000      0.000
REMARK  2 active torsions:
REMARK  status: ('A' for Active; 'I' for Inactive)
REMARK    1  A    between atoms: C_9  and  C_4 
REMARK    2  A    between atoms: C_13  and  C_6 
ROOT
ATOM      1  N   UNL d   1      14.685  12.978  -1.187  0.00  0.00    -0.185 N 
ATOM      2  C   UNL d   1      14.701  12.168  -1.022  0.00  0.00     0.219 A 
ATOM      3  N   UNL d   1      14.306  13.081  -1.903  0.00  0.00    -0.153 NA
ATOM      4  C   UNL d   1      14.084  12.346  -2.189  0.00  0.00     0.156 A 
ATOM      5  S   UNL d   1      14.328  11.779  -1.645  0.00  0.00    -0.024 SA
ATOM      6  C   UNL d   1      15.058  13.370  -0.566  0.00  0.00     0.187 A 
ATOM      7  N   UNL d   1      15.306  12.803  -0.015  0.00  0.00    -0.127 NA
ATOM      8  N   UNL d   1      15.083  12.061  -0.301  0.00  0.00    -0.120 NA
ENDROOT
BRANCH   6   9
ATOM      9  C   UNL d   1      15.169  14.181  -0.498  0.00  0.00     0.038 A 
ATOM     10  C   UNL d   1      15.819  14.479  -0.087  0.00  0.00     0.004 A 
ATOM     11  C   UNL d   1      15.929  15.291  -0.020  0.00  0.00     0.011 A 
ATOM     12  C   UNL d   1      15.385  15.805  -0.365  0.00  0.00     0.058 A 
ATOM     13  C   UNL d   1      14.731  15.505  -0.778  0.00  0.00     0.011 A 
ATOM     14 CL   UNL d   1      15.491  16.624  -0.300  0.00  0.00    -0.082 Cl
ATOM     15  C   UNL d   1      14.632  14.695  -0.838  0.00  0.00     0.004 A 
ENDBRANCH   6   9
BRANCH   4  16
ATOM     16  C   UNL d   1      13.686  12.193  -2.897  0.00  0.00     0.126 A 
ATOM     17  O   UNL d   1      13.958  12.392  -3.650  0.00  0.00    -0.298 OA
ATOM     18  C   UNL d   1      13.392  12.139  -4.193  0.00  0.00     0.134 A 
ATOM     19 BR   UNL d   1      13.430  12.221  -5.010  0.00  0.00    -0.022 Br
ATOM     20  C   UNL d   1      12.769  11.784  -3.777  0.00  0.00     0.034 A 
ATOM     21  C   UNL d   1      12.953  11.818  -2.974  0.00  0.00     0.029 A 
ENDBRANCH   4  16
TORSDOF 2
ENDMDL
