MODEL 1
REMARK VINA RESULT:      -8.9      0.000      0.000
REMARK  3 active torsions:
REMARK  status: ('A' for Active; 'I' for Inactive)
REMARK    1  A    between atoms: N_10  and  C_3 
REMARK    2  A    between atoms: C_13  and  C_5 
REMARK    3  A    between atoms: C_12  and  C_9 
ROOT
ATOM      1  N   UNL d   1      52.300  33.721  53.424  0.00  0.00    -0.196 N 
ATOM      2  C   UNL d   1      52.948  33.338  53.749  0.00  0.00     0.167 A 
ATOM      3  C   UNL d   1      51.754  33.304  52.968  0.00  0.00     0.152 A 
ATOM      4  N   UNL d   1      52.335  34.512  53.643  0.00  0.00    -0.163 NA
ATOM      5  C   UNL d   1      53.387  33.890  54.169  0.00  0.00     0.055 A 
ATOM      6  N   UNL d   1      53.062  32.531  53.622  0.00  0.00    -0.231 NA
ATOM      7  C   UNL d   1      51.868  32.495  52.841  0.00  0.00     0.052 A 
ATOM      8  C   UNL d   1      53.013  34.614  54.107  0.00  0.00     0.104 A 
ATOM      9  C   UNL d   1      52.516  32.112  53.165  0.00  0.00     0.063 A 
ATOM     10  C   UNL d   1      53.272  35.314  54.449  0.00  0.00     0.023 C 
ENDROOT
BRANCH   3  11
ATOM     11  N   UNL d   1      51.106  33.687  52.643  0.00  0.00    -0.286 N 
ATOM     12  C   UNL d   1      51.127  33.954  51.862  0.00  0.00     0.101 A 
ATOM     13  C   UNL d   1      50.475  34.340  51.536  0.00  0.00     0.100 A 
ATOM     14  N   UNL d   1      49.797  34.459  51.989  0.00  0.00    -0.299 N 
ATOM     15  C   UNL d   1      49.773  34.194  52.768  0.00  0.00     0.100 A 
ATOM     16  C   UNL d   1      49.145  34.845  51.663  0.00  0.00     0.100 C 
ATOM     17  C   UNL d   1      50.425  33.808  53.094  0.00  0.00     0.101 A 
ENDBRANCH   3  11
BRANCH   9  18
ATOM     18  C   UNL d   1      52.620  31.287  53.027  0.00  0.00     0.036 C 
ATOM     19  C   UNL d   1      52.722  30.472  52.891  0.00  0.00     0.006 C 
ATOM     20  C   UNL d   1      53.224  31.455  52.478  0.00  0.00     0.006 C 
ATOM     21  C   UNL d   1      52.014  31.123  53.577  0.00  0.00     0.006 C 
ENDBRANCH   9  18
BRANCH   5  22
ATOM     22  C   UNL d   1      54.085  33.828  54.605  0.00  0.00     0.004 A 
ATOM     23  C   UNL d   1      54.065  33.617  55.407  0.00  0.00     0.000 A 
ATOM     24  C   UNL d   1      54.763  33.556  55.838  0.00  0.00     0.000 A 
ATOM     25  C   UNL d   1      55.493  33.705  55.477  0.00  0.00     0.000 A 
ATOM     26  C   UNL d   1      55.514  33.918  54.671  0.00  0.00     0.000 A 
ATOM     27  C   UNL d   1      54.811  33.977  54.243  0.00  0.00     0.000 A 
ENDBRANCH   5  22
TORSDOF 3
ENDMDL
MODEL 2
REMARK VINA RESULT:      -8.8      1.217      3.269
REMARK  3 active torsions:
REMARK  status: ('A' for Active; 'I' for Inactive)
REMARK    1  A    between atoms: N_10  and  C_3 
REMARK    2  A    between atoms: C_13  and  C_5 
REMARK    3  A    between atoms: C_12  and  C_9 
ROOT
ATOM      1  N   UNL d   1      52.529  32.029  53.455  0.00  0.00    -0.196 N 
ATOM      2  C   UNL d   1      53.109  31.574  53.814  0.00  0.00     0.167 A 
ATOM      3  C   UNL d   1      52.571  32.853  53.481  0.00  0.00     0.152 A 
ATOM      4  N   UNL d   1      51.980  31.522  53.116  0.00  0.00    -0.163 NA
ATOM      5  C   UNL d   1      52.922  30.783  53.698  0.00  0.00     0.055 A 
ATOM      6  N   UNL d   1      53.741  31.934  54.204  0.00  0.00    -0.231 NA
ATOM      7  C   UNL d   1      53.202  33.214  53.871  0.00  0.00     0.052 A 
ATOM      8  C   UNL d   1      52.227  30.746  53.269  0.00  0.00     0.104 A 
ATOM      9  C   UNL d   1      53.783  32.759  54.230  0.00  0.00     0.063 A 
ATOM     10  C   UNL d   1      51.848  30.056  53.035  0.00  0.00     0.023 C 
ENDROOT
BRANCH   3  11
ATOM     11  N   UNL d   1      51.991  33.308  53.122  0.00  0.00    -0.286 N 
ATOM     12  C   UNL d   1      51.277  33.456  53.511  0.00  0.00     0.101 A 
ATOM     13  C   UNL d   1      50.693  33.914  53.150  0.00  0.00     0.100 A 
ATOM     14  N   UNL d   1      50.821  34.227  52.399  0.00  0.00    -0.299 N 
ATOM     15  C   UNL d   1      51.530  34.082  52.009  0.00  0.00     0.100 A 
ATOM     16  C   UNL d   1      50.237  34.685  52.038  0.00  0.00     0.100 C 
ATOM     17  C   UNL d   1      52.114  33.624  52.370  0.00  0.00     0.101 A 
ENDBRANCH   3  11
BRANCH   9  18
ATOM     18  C   UNL d   1      54.422  33.141  54.625  0.00  0.00     0.036 C 
ATOM     19  C   UNL d   1      55.054  33.518  55.015  0.00  0.00     0.006 C 
ATOM     20  C   UNL d   1      53.991  33.124  55.338  0.00  0.00     0.006 C 
ATOM     21  C   UNL d   1      54.851  33.156  53.908  0.00  0.00     0.006 C 
ENDBRANCH   9  18
BRANCH   5  22
ATOM     22  C   UNL d   1      53.295  30.085  53.929  0.00  0.00     0.004 A 
ATOM     23  C   UNL d   1      53.910  29.764  53.474  0.00  0.00     0.000 A 
ATOM     24  C   UNL d   1      54.280  29.067  53.709  0.00  0.00     0.000 A 
ATOM     25  C   UNL d   1      54.043  28.678  54.400  0.00  0.00     0.000 A 
ATOM     26  C   UNL d   1      53.424  29.000  54.858  0.00  0.00     0.000 A 
ATOM     27  C   UNL d   1      53.057  29.699  54.619  0.00  0.00     0.000 A 
ENDBRANCH   5  22
TORSDOF 3
ENDMDL
MODEL 3
REMARK VINA RESULT:      -7.2      0.963      3.956
REMARK  3 active torsions:
REMARK  status: ('A' for Active; 'I' for Inactive)
REMARK    1  A    between atoms: N_10  and  C_3 
REMARK    2  A    between atoms: C_13  and  C_5 
REMARK    3  A    between atoms: C_12  and  C_9 
ROOT
ATOM      1  N   UNL d   1      52.865  33.493  53.650  0.00  0.00    -0.196 N 
ATOM      2  C   UNL d   1      52.240  33.250  53.178  0.00  0.00     0.167 A 
ATOM      3  C   UNL d   1      53.422  32.946  53.917  0.00  0.00     0.152 A 
ATOM      4  N   UNL d   1      52.798  34.302  53.766  0.00  0.00    -0.163 NA
ATOM      5  C   UNL d   1      51.782  33.908  53.001  0.00  0.00     0.055 A 
ATOM      6  N   UNL d   1      52.161  32.457  52.966  0.00  0.00    -0.231 NA
ATOM      7  C   UNL d   1      53.343  32.151  53.705  0.00  0.00     0.052 A 
ATOM      8  C   UNL d   1      52.123  34.559  53.361  0.00  0.00     0.104 A 
ATOM      9  C   UNL d   1      52.718  31.909  53.233  0.00  0.00     0.063 A 
ATOM     10  C   UNL d   1      51.837  35.328  53.322  0.00  0.00     0.023 C 
ENDROOT
BRANCH   3  11
ATOM     11  N   UNL d   1      54.048  33.188  54.389  0.00  0.00    -0.286 N 
ATOM     12  C   UNL d   1      53.979  33.175  55.212  0.00  0.00     0.101 A 
ATOM     13  C   UNL d   1      54.608  33.419  55.686  0.00  0.00     0.100 A 
ATOM     14  N   UNL d   1      55.309  33.678  55.340  0.00  0.00    -0.299 N 
ATOM     15  C   UNL d   1      55.381  33.692  54.521  0.00  0.00     0.100 A 
ATOM     16  C   UNL d   1      55.938  33.922  55.814  0.00  0.00     0.100 C 
ATOM     17  C   UNL d   1      54.752  33.448  54.046  0.00  0.00     0.101 A 
ENDBRANCH   3  11
BRANCH   9  18
ATOM     18  C   UNL d   1      52.650  31.095  53.024  0.00  0.00     0.036 C 
ATOM     19  C   UNL d   1      52.582  30.291  52.818  0.00  0.00     0.006 C 
ATOM     20  C   UNL d   1      53.274  31.183  52.479  0.00  0.00     0.006 C 
ATOM     21  C   UNL d   1      52.025  31.010  53.572  0.00  0.00     0.006 C 
ENDBRANCH   9  18
BRANCH   5  22
ATOM     22  C   UNL d   1      51.095  34.003  52.555  0.00  0.00     0.004 A 
ATOM     23  C   UNL d   1      50.350  33.994  52.919  0.00  0.00     0.000 A 
ATOM     24  C   UNL d   1      49.667  34.089  52.471  0.00  0.00     0.000 A 
ATOM     25  C   UNL d   1      49.715  34.194  51.650  0.00  0.00     0.000 A 
ATOM     26  C   UNL d   1      50.464  34.202  51.283  0.00  0.00     0.000 A 
ATOM     27  C   UNL d   1      51.146  34.107  51.737  0.00  0.00     0.000 A 
ENDBRANCH   5  22
TORSDOF 3
ENDMDL
MODEL 4
REMARK VINA RESULT:      -6.9      1.464      4.365
REMARK  3 active torsions:
REMARK  status: ('A' for Active; 'I' for Inactive)
REMARK    1  A    between atoms: N_10  and  C_3 
REMARK    2  A    between atoms: C_13  and  C_5 
REMARK    3  A    between atoms: C_12  and  C_9 
ROOT
ATOM      1  N   UNL d   1      52.731  31.792  53.707  0.00  0.00    -0.196 N 
ATOM      2  C   UNL d   1      52.690  32.603  53.593  0.00  0.00     0.167 A 
ATOM      3  C   UNL d   1      53.395  31.454  54.062  0.00  0.00     0.152 A 
ATOM      4  N   UNL d   1      52.039  31.459  53.418  0.00  0.00    -0.163 NA
ATOM      5  C   UNL d   1      51.973  32.775  53.233  0.00  0.00     0.055 A 
ATOM      6  N   UNL d   1      53.312  33.090  53.831  0.00  0.00    -0.231 NA
ATOM      7  C   UNL d   1      54.018  31.941  54.301  0.00  0.00     0.052 A 
ATOM      8  C   UNL d   1      51.569  32.073  53.123  0.00  0.00     0.104 A 
ATOM      9  C   UNL d   1      53.977  32.752  54.186  0.00  0.00     0.063 A 
ATOM     10  C   UNL d   1      50.827  32.000  52.779  0.00  0.00     0.023 C 
ENDROOT
BRANCH   3  11
ATOM     11  N   UNL d   1      53.436  30.643  54.176  0.00  0.00    -0.286 N 
ATOM     12  C   UNL d   1      53.204  30.311  54.896  0.00  0.00     0.101 A 
ATOM     13  C   UNL d   1      53.245  29.495  55.011  0.00  0.00     0.100 A 
ATOM     14  N   UNL d   1      53.519  29.008  54.406  0.00  0.00    -0.299 N 
ATOM     15  C   UNL d   1      53.751  29.335  53.688  0.00  0.00     0.100 A 
ATOM     16  C   UNL d   1      53.560  28.192  54.521  0.00  0.00     0.100 C 
ATOM     17  C   UNL d   1      53.710  30.151  53.573  0.00  0.00     0.101 A 
ENDBRANCH   3  11
BRANCH   9  18
ATOM     18  C   UNL d   1      54.620  33.237  54.435  0.00  0.00     0.036 C 
ATOM     19  C   UNL d   1      55.256  33.716  54.680  0.00  0.00     0.006 C 
ATOM     20  C   UNL d   1      54.256  33.339  55.178  0.00  0.00     0.006 C 
ATOM     21  C   UNL d   1      54.983  33.132  53.690  0.00  0.00     0.006 C 
ENDBRANCH   9  18
BRANCH   5  22
ATOM     22  C   UNL d   1      51.631  33.485  52.987  0.00  0.00     0.004 A 
ATOM     23  C   UNL d   1      51.795  33.796  52.236  0.00  0.00     0.000 A 
ATOM     24  C   UNL d   1      51.452  34.504  51.996  0.00  0.00     0.000 A 
ATOM     25  C   UNL d   1      50.939  34.914  52.500  0.00  0.00     0.000 A 
ATOM     26  C   UNL d   1      50.773  34.602  53.256  0.00  0.00     0.000 A 
ATOM     27  C   UNL d   1      51.120  33.892  53.492  0.00  0.00     0.000 A 
ENDBRANCH   5  22
TORSDOF 3
ENDMDL
MODEL 5
REMARK VINA RESULT:      -5.9      0.841      3.195
REMARK  3 active torsions:
REMARK  status: ('A' for Active; 'I' for Inactive)
REMARK    1  A    between atoms: N_10  and  C_3 
REMARK    2  A    between atoms: C_13  and  C_5 
REMARK    3  A    between atoms: C_12  and  C_9 
ROOT
ATOM      1  N   UNL d   1      52.707  33.002  53.632  0.00  0.00    -0.196 N 
ATOM      2  C   UNL d   1      52.538  33.803  53.667  0.00  0.00     0.167 A 
ATOM      3  C   UNL d   1      52.242  32.497  53.174  0.00  0.00     0.152 A 
ATOM      4  N   UNL d   1      53.363  32.859  54.104  0.00  0.00    -0.163 NA
ATOM      5  C   UNL d   1      53.089  34.160  54.160  0.00  0.00     0.055 A 
ATOM      6  N   UNL d   1      51.901  34.114  53.244  0.00  0.00    -0.231 NA
ATOM      7  C   UNL d   1      51.604  32.807  52.751  0.00  0.00     0.052 A 
ATOM      8  C   UNL d   1      53.599  33.582  54.431  0.00  0.00     0.104 A 
ATOM      9  C   UNL d   1      51.435  33.609  52.785  0.00  0.00     0.063 A 
ATOM     10  C   UNL d   1      54.232  33.707  54.940  0.00  0.00     0.023 C 
ENDROOT
BRANCH   3  11
ATOM     11  N   UNL d   1      52.411  31.695  53.139  0.00  0.00    -0.286 N 
ATOM     12  C   UNL d   1      51.968  31.156  53.581  0.00  0.00     0.101 A 
ATOM     13  C   UNL d   1      52.138  30.349  53.546  0.00  0.00     0.100 A 
ATOM     14  N   UNL d   1      52.753  30.078  53.069  0.00  0.00    -0.299 N 
ATOM     15  C   UNL d   1      53.196  30.612  52.628  0.00  0.00     0.100 A 
ATOM     16  C   UNL d   1      52.923  29.272  53.035  0.00  0.00     0.100 C 
ATOM     17  C   UNL d   1      53.026  31.419  52.663  0.00  0.00     0.101 A 
ENDBRANCH   3  11
BRANCH   9  18
ATOM     18  C   UNL d   1      50.781  33.912  52.348  0.00  0.00     0.036 C 
ATOM     19  C   UNL d   1      50.135  34.212  51.916  0.00  0.00     0.006 C 
ATOM     20  C   UNL d   1      51.285  34.063  51.701  0.00  0.00     0.006 C 
ATOM     21  C   UNL d   1      50.280  33.759  52.998  0.00  0.00     0.006 C 
ENDBRANCH   9  18
BRANCH   5  22
ATOM     22  C   UNL d   1      53.194  34.942  54.400  0.00  0.00     0.004 A 
ATOM     23  C   UNL d   1      53.647  35.467  53.944  0.00  0.00     0.000 A 
ATOM     24  C   UNL d   1      53.749  36.246  54.187  0.00  0.00     0.000 A 
ATOM     25  C   UNL d   1      53.402  36.516  54.890  0.00  0.00     0.000 A 
ATOM     26  C   UNL d   1      52.947  35.988  55.349  0.00  0.00     0.000 A 
ATOM     27  C   UNL d   1      52.847  35.208  55.101  0.00  0.00     0.000 A 
ENDBRANCH   5  22
TORSDOF 3
ENDMDL
