MODEL 1
REMARK VINA RESULT:      20.4      0.000      0.000
REMARK  3 active torsions:
REMARK  status: ('A' for Active; 'I' for Inactive)
REMARK    1  A    between atoms: C_8  and  N_2 
REMARK    2  A    between atoms: C_6  and  C_3 
REMARK    3  A    between atoms: C_7  and  C_4 
ROOT
ATOM      1  N   UNL d   1      15.056  13.790  -1.256  0.00  0.00    -0.159 NA
ATOM      2  N   UNL d   1      14.492  13.179  -1.288  0.00  0.00    -0.234 N 
ATOM      3  C   UNL d   1      15.218  13.941  -0.479  0.00  0.00     0.167 A 
ATOM      4  C   UNL d   1      14.316  12.962  -0.524  0.00  0.00     0.062 A 
ATOM      5  C   UNL d   1      14.763  13.431  -0.014  0.00  0.00     0.042 A 
ENDROOT
BRANCH   2   6
ATOM      6  C   UNL d   1      14.194  12.877  -1.995  0.00  0.00     0.083 A 
ATOM      7  C   UNL d   1      14.194  12.071  -2.136  0.00  0.00     0.019 A 
ATOM      8  C   UNL d   1      13.897  11.779  -2.839  0.00  0.00     0.002 A 
ATOM      9  C   UNL d   1      13.598  12.287  -3.403  0.00  0.00     0.000 A 
ATOM     10  C   UNL d   1      13.598  13.092  -3.261  0.00  0.00     0.002 A 
ATOM     11  C   UNL d   1      13.897  13.393  -2.554  0.00  0.00     0.019 A 
ENDBRANCH   2   6
BRANCH   4  12
ATOM     12  C   UNL d   1      13.779  12.371  -0.285  0.00  0.00     0.036 C 
ATOM     13  C   UNL d   1      13.243  11.779  -0.047  0.00  0.00     0.006 C 
ATOM     14  C   UNL d   1      14.352  11.787  -0.446  0.00  0.00     0.006 C 
ATOM     15  C   UNL d   1      13.210  12.958  -0.125  0.00  0.00     0.006 C 
ENDBRANCH   4  12
BRANCH   3  16
ATOM     16  C   UNL d   1      15.750  14.510  -0.196  0.00  0.00     0.231 C 
ATOM     17  O   UNL d   1      15.495  15.283  -0.063  0.00  0.00    -0.643 OA
ATOM     18  O   UNL d   1      16.529  14.296  -0.049  0.00  0.00    -0.643 OA
ENDBRANCH   3  16
TORSDOF 3
ENDMDL
