MODEL 1
REMARK VINA RESULT:      -2.6      0.000      0.000
REMARK  9 active torsions:
REMARK  status: ('A' for Active; 'I' for Inactive)
REMARK    1  A    between atoms: N_2  and  S_1 
REMARK    2  A    between atoms: C_12  and  S_1 
REMARK    3  A    between atoms: C_4  and  N_2 
REMARK    4  A    between atoms: N_6  and  C_8 
REMARK       I    between atoms: C_9  and  N_6 
REMARK    5  A    between atoms: O_22  and  C_7 
REMARK    6  A    between atoms: C_8  and  N_15 
REMARK    7  A    between atoms: C_16  and  C_9 
REMARK    8  A    between atoms: O_23  and  C_10 
REMARK    9  A    between atoms: N_15  and  C_21 
ROOT
ATOM      1  C   UNL d   1      32.476  18.757 -23.375  0.00  0.00     0.105 A 
ATOM      2  C   UNL d   1      32.305  18.806 -22.586  0.00  0.00     0.015 A 
ATOM      3  C   UNL d   1      32.898  19.356 -23.745  0.00  0.00     0.015 A 
ATOM      4  C   UNL d   1      32.980  20.062 -22.519  0.00  0.00     0.084 A 
ATOM      5  C   UNL d   1      32.544  19.441 -22.141  0.00  0.00     0.020 A 
ATOM      6  C   UNL d   1      33.145  19.999 -23.317  0.00  0.00     0.020 A 
ENDROOT
BRANCH   1   7
ATOM      7  S   UNL d   1      32.227  18.100 -23.827  0.00  0.00     0.287 S 
ATOM      8  O   UNL d   1      32.455  17.597 -23.195  0.00  0.00    -0.198 OA
ATOM      9  O   UNL d   1      32.008  18.601 -24.441  0.00  0.00    -0.198 OA
BRANCH   7  10
ATOM     10  N   UNL d   1      31.986  17.430 -24.259  0.00  0.00    -0.139 NA
BRANCH  10  11
ATOM     11  C   UNL d   1      31.215  17.130 -24.202  0.00  0.00     0.182 A 
ATOM     12  N   UNL d   1      30.613  17.499 -24.572  0.00  0.00    -0.185 NA
ATOM     13  C   UNL d   1      29.840  17.210 -24.523  0.00  0.00     0.274 A 
ATOM     14  N   UNL d   1      29.688  16.548 -24.098  0.00  0.00    -0.181 NA
ATOM     15  C   UNL d   1      30.285  16.149 -23.709  0.00  0.00     0.185 A 
ATOM     16  C   UNL d   1      31.091  16.463 -23.768  0.00  0.00     0.084 A 
BRANCH  13  17
ATOM     17  O   UNL d   1      29.203  17.599 -24.913  0.00  0.00    -0.297 OA
ATOM     18  C   UNL d   1      28.669  18.057 -24.494  0.00  0.00     0.185 C 
ENDBRANCH  13  17
BRANCH  15  19
ATOM     19  O   UNL d   1      30.093  15.469 -23.280  0.00  0.00    -0.312 OA
ATOM     20  C   UNL d   1      30.044  15.501 -22.457  0.00  0.00     0.183 C 
ENDBRANCH  15  19
ENDBRANCH  10  11
ENDBRANCH   7  10
ENDBRANCH   1   7
BRANCH   4  21
ATOM     21  N   UNL d   1      33.241  20.727 -22.099  0.00  0.00    -0.217 NA
BRANCH  21  22
ATOM     22  C   UNL d   1      32.815  20.992 -21.467  0.00  0.00     0.223 C 
ATOM     23  S   UNL d   1      32.832  20.574 -20.745  0.00  0.00    -0.037 SA
BRANCH  22  24
ATOM     24  N   UNL d   1      32.369  21.670 -21.538  0.00  0.00    -0.183 NA
ATOM     25  C   UNL d   1      32.517  22.323 -21.067  0.00  0.00     0.257 C 
ATOM     26  O   UNL d   1      33.143  22.287 -20.501  0.00  0.00    -0.270 OA
BRANCH  25  27
ATOM     27  C   UNL d   1      32.065  23.010 -21.138  0.00  0.00     0.073 C 
ATOM     28  C   UNL d   1      31.750  22.882 -20.376  0.00  0.00     0.009 C 
ATOM     29  C   UNL d   1      32.379  23.137 -21.899  0.00  0.00     0.009 C 
ATOM     30  C   UNL d   1      31.610  23.702 -21.210  0.00  0.00     0.009 C 
ENDBRANCH  25  27
ENDBRANCH  22  24
ENDBRANCH  21  22
ENDBRANCH   4  21
TORSDOF 9
ENDMDL
MODEL 2
REMARK VINA RESULT:      -0.2      1.387      1.784
REMARK  9 active torsions:
REMARK  status: ('A' for Active; 'I' for Inactive)
REMARK    1  A    between atoms: N_2  and  S_1 
REMARK    2  A    between atoms: C_12  and  S_1 
REMARK    3  A    between atoms: C_4  and  N_2 
REMARK    4  A    between atoms: N_6  and  C_8 
REMARK       I    between atoms: C_9  and  N_6 
REMARK    5  A    between atoms: O_22  and  C_7 
REMARK    6  A    between atoms: C_8  and  N_15 
REMARK    7  A    between atoms: C_16  and  C_9 
REMARK    8  A    between atoms: O_23  and  C_10 
REMARK    9  A    between atoms: N_15  and  C_21 
ROOT
ATOM      1  C   UNL d   1      33.130  19.996 -23.601  0.00  0.00     0.105 A 
ATOM      2  C   UNL d   1      33.083  20.017 -22.794  0.00  0.00     0.015 A 
ATOM      3  C   UNL d   1      33.210  20.691 -24.030  0.00  0.00     0.015 A 
ATOM      4  C   UNL d   1      33.194  21.440 -22.827  0.00  0.00     0.084 A 
ATOM      5  C   UNL d   1      33.112  20.720 -22.388  0.00  0.00     0.020 A 
ATOM      6  C   UNL d   1      33.241  21.403 -23.642  0.00  0.00     0.020 A 
ENDROOT
BRANCH   1   7
ATOM      7  S   UNL d   1      33.099  19.269 -24.013  0.00  0.00     0.287 S 
ATOM      8  O   UNL d   1      32.964  19.694 -24.724  0.00  0.00    -0.198 OA
ATOM      9  O   UNL d   1      33.232  18.862 -23.312  0.00  0.00    -0.198 OA
BRANCH   7  10
ATOM     10  N   UNL d   1      33.064  18.558 -24.444  0.00  0.00    -0.139 NA
BRANCH  10  11
ATOM     11  C   UNL d   1      32.518  17.963 -24.258  0.00  0.00     0.182 A 
ATOM     12  N   UNL d   1      31.753  18.040 -24.471  0.00  0.00    -0.185 NA
ATOM     13  C   UNL d   1      31.198  17.454 -24.292  0.00  0.00     0.274 A 
ATOM     14  N   UNL d   1      31.427  16.795 -23.898  0.00  0.00    -0.181 NA
ATOM     15  C   UNL d   1      32.204  16.689 -23.667  0.00  0.00     0.185 A 
ATOM     16  C   UNL d   1      32.775  17.311 -23.861  0.00  0.00     0.084 A 
BRANCH  13  17
ATOM     17  O   UNL d   1      30.390  17.534 -24.517  0.00  0.00    -0.297 OA
ATOM     18  C   UNL d   1      30.164  18.079 -25.085  0.00  0.00     0.185 C 
ENDBRANCH  13  17
BRANCH  15  19
ATOM     19  O   UNL d   1      32.406  15.998 -23.262  0.00  0.00    -0.312 OA
ATOM     20  C   UNL d   1      33.198  15.787 -23.173  0.00  0.00     0.183 C 
ENDBRANCH  15  19
ENDBRANCH  10  11
ENDBRANCH   7  10
ENDBRANCH   1   7
BRANCH   4  21
ATOM     21  N   UNL d   1      33.228  22.177 -22.449  0.00  0.00    -0.217 NA
BRANCH  21  22
ATOM     22  C   UNL d   1      32.711  22.343 -21.853  0.00  0.00     0.223 C 
ATOM     23  S   UNL d   1      31.903  22.467 -22.020  0.00  0.00    -0.037 SA
BRANCH  22  24
ATOM     24  N   UNL d   1      32.983  22.390 -21.086  0.00  0.00    -0.183 NA
ATOM     25  C   UNL d   1      32.609  22.865 -20.534  0.00  0.00     0.257 C 
ATOM     26  O   UNL d   1      31.933  23.313 -20.770  0.00  0.00    -0.270 OA
BRANCH  25  27
ATOM     27  C   UNL d   1      32.884  22.912 -19.758  0.00  0.00     0.073 C 
ATOM     28  C   UNL d   1      32.594  22.143 -19.609  0.00  0.00     0.009 C 
ATOM     29  C   UNL d   1      33.173  23.678 -19.906  0.00  0.00     0.009 C 
ATOM     30  C   UNL d   1      33.161  22.959 -18.975  0.00  0.00     0.009 C 
ENDBRANCH  25  27
ENDBRANCH  22  24
ENDBRANCH  21  22
ENDBRANCH   4  21
TORSDOF 9
ENDMDL
