MODEL 1
REMARK VINA RESULT:      12.7      0.000      0.000
REMARK  3 active torsions:
REMARK  status: ('A' for Active; 'I' for Inactive)
REMARK    1  A    between atoms: C_4  and  C_1 
REMARK    2  A    between atoms: O_10  and  C_4 
REMARK    3  A    between atoms: C_13  and  O_10 
ROOT
ATOM      1  C   UNL d   1      13.568  12.529  -2.770  0.00  0.00     0.121 A 
ATOM      2  C   UNL d   1      14.239  12.818  -2.352  0.00  0.00     0.204 A 
ATOM      3  C   UNL d   1      14.363  12.577  -1.584  0.00  0.00     0.057 A 
ATOM      4  N   UNL d   1      13.200  11.780  -1.614  0.00  0.00    -0.244 NA
ATOM      5  C   UNL d   1      13.048  12.009  -2.401  0.00  0.00     0.107 A 
ATOM      6  C   UNL d   1      13.843  12.057  -1.214  0.00  0.00     0.085 A 
ATOM      7  O   UNL d   1      14.754  13.333  -2.718  0.00  0.00    -0.286 OA
ATOM      8  C   UNL d   1      15.029  12.866  -1.173  0.00  0.00     0.005 A 
ATOM      9  C   UNL d   1      13.990  11.828  -0.435  0.00  0.00     0.019 A 
ATOM     10  C   UNL d   1      15.165  12.626  -0.387  0.00  0.00     0.000 A 
ATOM     11  C   UNL d   1      14.645  12.106  -0.017  0.00  0.00     0.002 A 
ENDROOT
BRANCH   1  12
ATOM     12  C   UNL d   1      13.433  12.769  -3.555  0.00  0.00     0.305 C 
ATOM     13  O   UNL d   1      13.296  13.567  -3.729  0.00  0.00    -0.259 OA
BRANCH  12  14
ATOM     14  O   UNL d   1      13.436  12.224  -4.147  0.00  0.00    -0.271 OA
BRANCH  14  15
ATOM     15  C   UNL d   1      12.898  12.289  -4.767  0.00  0.00     0.126 C 
ATOM     16  C   UNL d   1      12.955  11.783  -5.427  0.00  0.00     0.029 C 
ENDBRANCH  14  15
ENDBRANCH  12  14
ENDBRANCH   1  12
TORSDOF 3
ENDMDL
