MODEL 1
REMARK VINA RESULT:       3.4      0.000      0.000
REMARK  5 active torsions:
REMARK  status: ('A' for Active; 'I' for Inactive)
REMARK    1  A    between atoms: N_7  and  C_1 
REMARK    2  A    between atoms: C_13  and  C_2 
REMARK    3  A    between atoms: N_4  and  C_9 
REMARK       I    between atoms: C_10  and  N_7 
REMARK       I    between atoms: C_15  and  N_8 
REMARK    4  A    between atoms: C_18  and  C_10 
REMARK    5  A    between atoms: O_27  and  C_13 
ROOT
ATOM      1  C   UNL d   1     -42.307-122.824 -50.820  0.00  0.00     0.119 A 
ATOM      2  C   UNL d   1     -42.931-122.531 -50.370  0.00  0.00     0.088 A 
ATOM      3  C   UNL d   1     -42.041-123.069 -49.531  0.00  0.00     0.049 A 
ATOM      4  C   UNL d   1     -42.764-122.683 -49.572  0.00  0.00     0.016 A 
ATOM      5  S   UNL d   1     -41.752-123.159 -50.301  0.00  0.00    -0.066 SA
ATOM      6  N   UNL d   1     -42.147-123.128 -48.106  0.00  0.00    -0.272 N 
ATOM      7  C   UNL d   1     -41.733-123.292 -48.786  0.00  0.00     0.089 A 
ATOM      8  C   UNL d   1     -41.850-123.345 -47.367  0.00  0.00     0.265 C 
ATOM      9  C   UNL d   1     -43.190-122.515 -48.877  0.00  0.00     0.020 A 
ATOM     10  C   UNL d   1     -42.881-122.736 -48.152  0.00  0.00     0.083 A 
ATOM     11  O   UNL d   1     -41.123-123.732 -47.321  0.00  0.00    -0.267 OA
ATOM     12  C   UNL d   1     -42.264-123.181 -46.679  0.00  0.00     0.066 C 
ENDROOT
BRANCH   1  13
ATOM     13  N   UNL d   1     -42.239-122.793 -51.646  0.00  0.00    -0.201 NA
ATOM     14  C   UNL d   1     -41.652-123.239 -52.024  0.00  0.00     0.280 C 
ATOM     15  O   UNL d   1     -41.136-123.713 -51.589  0.00  0.00    -0.265 OA
BRANCH  14  16
ATOM     16  C   UNL d   1     -41.585-123.208 -52.845  0.00  0.00     0.059 A 
ATOM     17  C   UNL d   1     -41.909-122.576 -53.254  0.00  0.00     0.022 A 
ATOM     18  C   UNL d   1     -41.841-122.546 -54.076  0.00  0.00     0.070 A 
ATOM     19  C   UNL d   1     -41.449-123.147 -54.488  0.00  0.00     0.018 A 
ATOM     20  C   UNL d   1     -41.123-123.787 -54.063  0.00  0.00     0.002 A 
ATOM     21  C   UNL d   1     -41.190-123.817 -53.241  0.00  0.00     0.005 A 
BRANCH  18  22
ATOM     22  N   UNL d   1     -42.166-121.911 -54.501  0.00  0.00    -0.242 N 
ATOM     23  C   UNL d   1     -42.060-121.106 -54.376  0.00  0.00     0.267 A 
ATOM     24  C   UNL d   1     -42.497-120.696 -54.943  0.00  0.00     0.066 A 
ATOM     25  O   UNL d   1     -41.607-120.752 -53.797  0.00  0.00    -0.267 OA
ATOM     26  C   UNL d   1     -42.870-121.251 -55.416  0.00  0.00     0.066 A 
ATOM     27  C   UNL d   1     -42.669-122.028 -55.148  0.00  0.00     0.267 A 
ATOM     28  O   UNL d   1     -42.917-122.740 -55.458  0.00  0.00    -0.267 OA
ENDBRANCH  18  22
ENDBRANCH  14  16
ENDBRANCH   1  13
BRANCH   2  29
ATOM     29  C   UNL d   1     -43.597-122.155 -50.666  0.00  0.00     0.298 C 
ATOM     30  O   UNL d   1     -43.504-121.502 -51.167  0.00  0.00    -0.259 OA
BRANCH  29  31
ATOM     31  O   UNL d   1     -44.356-122.429 -50.464  0.00  0.00    -0.296 OA
ATOM     32  C   UNL d   1     -45.022-121.959 -50.615  0.00  0.00     0.185 C 
ENDBRANCH  29  31
ENDBRANCH   2  29
TORSDOF 5
ENDMDL
