MODEL 1
REMARK VINA RESULT:      -8.2      0.000      0.000
REMARK  5 active torsions:
REMARK  status: ('A' for Active; 'I' for Inactive)
REMARK       I    between atoms: C_5  and  N_1 
REMARK    1  A    between atoms: S_13  and  C_2 
REMARK    2  A    between atoms: S_3  and  C_9 
REMARK    3  A    between atoms: N_7  and  S_3 
REMARK    4  A    between atoms: C_12  and  C_5 
REMARK    5  A    between atoms: C_23  and  S_13 
ROOT
ATOM      1  C   UNL d   1      50.083  34.363  52.671  0.00  0.00     0.104 A 
ATOM      2  C   UNL d   1      51.419  33.407  52.817  0.00  0.00     0.057 A 
ATOM      3  C   UNL d   1      50.690  34.411  52.114  0.00  0.00     0.013 A 
ATOM      4  C   UNL d   1      50.145  33.831  53.306  0.00  0.00     0.013 A 
ATOM      5  C   UNL d   1      50.814  33.351  53.381  0.00  0.00     0.005 A 
ATOM      6  C   UNL d   1      51.355  33.933  52.189  0.00  0.00     0.005 A 
ENDROOT
BRANCH   2   7
ATOM      7  C   UNL d   1      52.080  32.931  52.893  0.00  0.00     0.266 C 
ATOM      8  N   UNL d   1      52.758  33.204  53.285  0.00  0.00    -0.253 N 
ATOM      9  C   UNL d   1      52.843  33.949  53.628  0.00  0.00     0.182 A 
ATOM     10  C   UNL d   1      53.458  32.781  53.399  0.00  0.00     0.086 A 
ATOM     11  N   UNL d   1      53.602  33.988  53.957  0.00  0.00    -0.221 NA
ATOM     12  C   UNL d   1      53.980  33.271  53.816  0.00  0.00     0.100 A 
ATOM     13  C   UNL d   1      54.728  32.995  54.010  0.00  0.00     0.021 A 
ATOM     14  C   UNL d   1      54.961  32.236  53.792  0.00  0.00     0.002 A 
ATOM     15  C   UNL d   1      54.436  31.748  53.375  0.00  0.00     0.002 A 
ATOM     16  C   UNL d   1      53.686  32.028  53.182  0.00  0.00     0.019 A 
ATOM     17  O   UNL d   1      52.074  32.166  52.575  0.00  0.00    -0.267 OA
BRANCH   9  18
ATOM     18  S   UNL d   1      52.274  34.539  53.637  0.00  0.00    -0.049 SA
BRANCH  18  19
ATOM     19  C   UNL d   1      52.498  35.482  53.912  0.00  0.00     0.038 C 
ATOM     20  C   UNL d   1      52.525  35.810  54.797  0.00  0.00     0.008 C 
ENDBRANCH  18  19
ENDBRANCH   9  18
ENDBRANCH   2   7
BRANCH   1  21
ATOM     21  S   UNL d   1      49.415  34.844  52.593  0.00  0.00     0.271 S 
ATOM     22  O   UNL d   1      49.369  34.663  51.784  0.00  0.00    -0.200 OA
ATOM     23  O   UNL d   1      49.451  35.033  53.397  0.00  0.00    -0.200 OA
BRANCH  21  24
ATOM     24  N   UNL d   1      48.746  35.328  52.518  0.00  0.00    -0.229 N 
ATOM     25  C   UNL d   1      48.537  35.850  53.129  0.00  0.00     0.092 A 
ATOM     26  C   UNL d   1      47.879  36.327  53.056  0.00  0.00     0.020 A 
ATOM     27  C   UNL d   1      47.422  36.290  52.377  0.00  0.00     0.003 A 
ATOM     28  C   UNL d   1      47.619  35.774  51.760  0.00  0.00     0.020 A 
ATOM     29  C   UNL d   1      48.287  35.295  51.840  0.00  0.00     0.092 A 
ENDBRANCH  21  24
ENDBRANCH   1  21
TORSDOF 5
ENDMDL
MODEL 2
REMARK VINA RESULT:      -7.2      1.285      2.045
REMARK  5 active torsions:
REMARK  status: ('A' for Active; 'I' for Inactive)
REMARK       I    between atoms: C_5  and  N_1 
REMARK    1  A    between atoms: S_13  and  C_2 
REMARK    2  A    between atoms: S_3  and  C_9 
REMARK    3  A    between atoms: N_7  and  S_3 
REMARK    4  A    between atoms: C_12  and  C_5 
REMARK    5  A    between atoms: C_23  and  S_13 
ROOT
ATOM      1  C   UNL d   1      50.669  34.599  52.601  0.00  0.00     0.104 A 
ATOM      2  C   UNL d   1      52.059  34.568  53.489  0.00  0.00     0.057 A 
ATOM      3  C   UNL d   1      50.635  34.518  53.421  0.00  0.00     0.013 A 
ATOM      4  C   UNL d   1      51.406  34.665  52.222  0.00  0.00     0.013 A 
ATOM      5  C   UNL d   1      52.103  34.650  52.666  0.00  0.00     0.005 A 
ATOM      6  C   UNL d   1      51.329  34.503  53.862  0.00  0.00     0.005 A 
ENDROOT
BRANCH   2   7
ATOM      7  C   UNL d   1      52.750  34.554  53.927  0.00  0.00     0.266 C 
ATOM      8  N   UNL d   1      53.156  33.842  54.056  0.00  0.00    -0.253 N 
ATOM      9  C   UNL d   1      52.925  33.102  53.775  0.00  0.00     0.182 A 
ATOM     10  C   UNL d   1      53.856  33.753  54.486  0.00  0.00     0.086 A 
ATOM     11  N   UNL d   1      53.486  32.550  54.031  0.00  0.00    -0.221 NA
ATOM     12  C   UNL d   1      54.058  32.949  54.468  0.00  0.00     0.100 A 
ATOM     13  C   UNL d   1      54.735  32.693  54.853  0.00  0.00     0.021 A 
ATOM     14  C   UNL d   1      55.214  33.228  55.255  0.00  0.00     0.002 A 
ATOM     15  C   UNL d   1      55.009  34.032  55.271  0.00  0.00     0.002 A 
ATOM     16  C   UNL d   1      54.328  34.287  54.884  0.00  0.00     0.019 A 
ATOM     17  O   UNL d   1      53.049  35.258  54.245  0.00  0.00    -0.267 OA
BRANCH   9  18
ATOM     18  S   UNL d   1      52.258  32.950  53.322  0.00  0.00    -0.049 SA
BRANCH  18  19
ATOM     19  C   UNL d   1      52.123  32.061  52.867  0.00  0.00     0.038 C 
ATOM     20  C   UNL d   1      51.636  31.331  53.214  0.00  0.00     0.008 C 
ENDBRANCH  18  19
ENDBRANCH   9  18
ENDBRANCH   2   7
BRANCH   1  21
ATOM     21  S   UNL d   1      49.970  34.614  52.160  0.00  0.00     0.271 S 
ATOM     22  O   UNL d   1      50.394  34.458  51.464  0.00  0.00    -0.200 OA
ATOM     23  O   UNL d   1      49.536  34.769  52.847  0.00  0.00    -0.200 OA
BRANCH  21  24
ATOM     24  N   UNL d   1      49.266  34.629  51.722  0.00  0.00    -0.229 N 
ATOM     25  C   UNL d   1      48.676  35.187  51.897  0.00  0.00     0.092 A 
ATOM     26  C   UNL d   1      47.984  35.203  51.466  0.00  0.00     0.020 A 
ATOM     27  C   UNL d   1      47.870  34.666  50.858  0.00  0.00     0.003 A 
ATOM     28  C   UNL d   1      48.449  34.105  50.672  0.00  0.00     0.020 A 
ATOM     29  C   UNL d   1      49.148  34.094  51.113  0.00  0.00     0.092 A 
ENDBRANCH  21  24
ENDBRANCH   1  21
TORSDOF 5
ENDMDL
