MODEL 1
REMARK VINA RESULT:      97.9      0.000      0.000
REMARK  6 active torsions:
REMARK  status: ('A' for Active; 'I' for Inactive)
REMARK    1  A    between atoms: C_9  and  S_1 
REMARK    2  A    between atoms: N_10  and  S_1 
REMARK    3  A    between atoms: C_2  and  N_6 
REMARK       I    between atoms: N_6  and  C_8 
REMARK    4  A    between atoms: C_8  and  C_15 
REMARK    5  A    between atoms: O_24  and  C_13 
REMARK    6  A    between atoms: O_23  and  C_14 
ROOT
ATOM      1  N   UNL d   1      60.984  49.694  49.870  0.00  0.00    -0.183 NA
ATOM      2  C   UNL d   1      61.376  48.992  49.663  0.00  0.00     0.281 C 
ATOM      3  O   UNL d   1      61.956  49.013  49.080  0.00  0.00    -0.265 OA
ENDROOT
BRANCH   1   4
ATOM      4  C   UNL d   1      60.393  49.684  50.461  0.00  0.00     0.197 A 
ATOM      5  N   UNL d   1      60.521  49.672  51.274  0.00  0.00    -0.218 NA
ATOM      6  C   UNL d   1      59.786  49.666  51.644  0.00  0.00     0.114 A 
ATOM      7  C   UNL d   1      59.563  49.654  52.434  0.00  0.00     0.112 A 
ATOM      8  C   UNL d   1      59.209  49.675  51.056  0.00  0.00     0.074 A 
ATOM      9  C   UNL d   1      58.766  49.651  52.645  0.00  0.00     0.028 A 
ATOM     10  C   UNL d   1      58.187  49.660  52.047  0.00  0.00     0.027 A 
ATOM     11  C   UNL d   1      58.408  49.672  51.259  0.00  0.00     0.102 A 
ATOM     12  S   UNL d   1      59.595  49.686  50.323  0.00  0.00    -0.045 SA
BRANCH   7  13
ATOM     13  O   UNL d   1      60.143  49.645  53.036  0.00  0.00    -0.327 OA
ATOM     14  C   UNL d   1      59.917  49.698  53.827  0.00  0.00     0.181 C 
ENDBRANCH   7  13
BRANCH  11  15
ATOM     15  O   UNL d   1      57.827  49.681  50.658  0.00  0.00    -0.328 OA
ATOM     16  C   UNL d   1      57.030  49.693  50.859  0.00  0.00     0.181 C 
ENDBRANCH  11  15
ENDBRANCH   1   4
BRANCH   2  17
ATOM     17  C   UNL d   1      61.179  48.303  50.038  0.00  0.00     0.058 A 
ATOM     18  C   UNL d   1      60.750  47.720  49.653  0.00  0.00     0.005 A 
ATOM     19  C   UNL d   1      60.551  47.020  50.035  0.00  0.00     0.013 A 
ATOM     20  C   UNL d   1      60.785  46.900  50.821  0.00  0.00     0.104 A 
ATOM     21  C   UNL d   1      61.217  47.485  51.215  0.00  0.00     0.013 A 
ATOM     22  C   UNL d   1      61.413  48.183  50.824  0.00  0.00     0.005 A 
BRANCH  20  23
ATOM     23  S   UNL d   1      60.586  46.199  51.207  0.00  0.00     0.271 S 
ATOM     24  O   UNL d   1      60.278  46.637  51.838  0.00  0.00    -0.200 OA
ATOM     25  O   UNL d   1      60.894  45.768  50.577  0.00  0.00    -0.200 OA
BRANCH  23  26
ATOM     26  N   UNL d   1      60.389  45.498  51.590  0.00  0.00    -0.226 N 
ATOM     27  C   UNL d   1      60.913  44.869  51.593  0.00  0.00     0.111 C 
ATOM     28  C   UNL d   1      59.661  45.432  51.970  0.00  0.00     0.111 C 
ENDBRANCH  23  26
ENDBRANCH  20  23
ENDBRANCH   2  17
TORSDOF 6
ENDMDL
