MODEL 1
REMARK VINA RESULT:      57.7      0.000      0.000
REMARK  4 active torsions:
REMARK  status: ('A' for Active; 'I' for Inactive)
REMARK    1  A    between atoms: N_8  and  C_1 
REMARK    2  A    between atoms: C_12  and  C_2 
REMARK    3  A    between atoms: C_4  and  C_10 
REMARK       I    between atoms: C_10  and  N_8 
REMARK       I    between atoms: C_14  and  N_11 
REMARK    4  A    between atoms: O_22  and  C_12 
ROOT
ATOM      1  C   UNL d   1      46.082 -18.190  41.040  0.00  0.00     0.119 A 
ATOM      2  C   UNL d   1      46.299 -18.975  41.151  0.00  0.00     0.088 A 
ATOM      3  C   UNL d   1      46.194 -18.405  42.351  0.00  0.00     0.049 A 
ATOM      4  C   UNL d   1      46.368 -19.108  41.966  0.00  0.00     0.016 A 
ATOM      5  S   UNL d   1      46.017 -17.836  41.790  0.00  0.00    -0.066 SA
ATOM      6  N   UNL d   1      46.419 -19.042  43.614  0.00  0.00    -0.272 N 
ATOM      7  C   UNL d   1      46.222 -18.378  43.185  0.00  0.00     0.089 A 
ATOM      8  C   UNL d   1      46.449 -19.026  44.442  0.00  0.00     0.265 C 
ATOM      9  C   UNL d   1      46.570 -19.787  42.396  0.00  0.00     0.020 A 
ATOM     10  C   UNL d   1      46.594 -19.752  43.216  0.00  0.00     0.083 A 
ATOM     11  O   UNL d   1      46.275 -18.323  44.836  0.00  0.00    -0.267 OA
ATOM     12  C   UNL d   1      46.647 -19.691  44.873  0.00  0.00     0.066 C 
ENDROOT
BRANCH   1  13
ATOM     13  N   UNL d   1      45.950 -17.814  40.310  0.00  0.00    -0.200 NA
ATOM     14  C   UNL d   1      45.195 -17.530  40.133  0.00  0.00     0.303 C 
ATOM     15  O   UNL d   1      44.578 -17.614  40.662  0.00  0.00    -0.263 OA
BRANCH  14  16
ATOM     16  C   UNL d   1      45.065 -17.157  39.410  0.00  0.00     0.169 A 
ATOM     17  N   UNL d   1      44.337 -17.096  39.009  0.00  0.00    -0.234 NA
ATOM     18  C   UNL d   1      44.486 -16.669  38.301  0.00  0.00     0.088 A 
ATOM     19  C   UNL d   1      43.988 -16.437  37.685  0.00  0.00     0.020 A 
ATOM     20  C   UNL d   1      45.295 -16.487  38.296  0.00  0.00     0.049 A 
ATOM     21  C   UNL d   1      44.308 -16.013  37.049  0.00  0.00     0.002 A 
ATOM     22  C   UNL d   1      45.117 -15.829  37.040  0.00  0.00     0.001 A 
ATOM     23  C   UNL d   1      45.602 -16.064  37.657  0.00  0.00     0.008 A 
ATOM     24  S   UNL d   1      45.632 -16.790  38.975  0.00  0.00    -0.062 SA
ENDBRANCH  14  16
ENDBRANCH   1  13
BRANCH   2  25
ATOM     25  C   UNL d   1      46.423 -19.526  40.560  0.00  0.00     0.298 C 
ATOM     26  O   UNL d   1      46.413 -20.328  40.739  0.00  0.00    -0.259 OA
BRANCH  25  27
ATOM     27  O   UNL d   1      46.561 -19.270  39.774  0.00  0.00    -0.296 OA
ATOM     28  C   UNL d   1      46.645 -19.823  39.168  0.00  0.00     0.185 C 
ENDBRANCH  25  27
ENDBRANCH   2  25
TORSDOF 4
ENDMDL
