MODEL 1
REMARK VINA RESULT:      31.7      0.000      0.000
REMARK  4 active torsions:
REMARK  status: ('A' for Active; 'I' for Inactive)
REMARK    1  A    between atoms: N_7  and  C_2 
REMARK    2  A    between atoms: C_5  and  C_10 
REMARK    3  A    between atoms: N_6  and  N_7 
REMARK    4  A    between atoms: C_10  and  N_6 
ROOT
ATOM      1  C   UNL d   1     -51.391  26.386  33.542  0.00  0.00     0.125 C 
ENDROOT
BRANCH   1   2
ATOM      2  C   UNL d   1     -50.575  26.570  33.520  0.00  0.00     0.060 A 
ATOM      3  C   UNL d   1     -50.328  27.361  33.565  0.00  0.00     0.197 A 
ATOM      4  C   UNL d   1     -49.514  27.541  33.543  0.00  0.00     0.043 A 
ATOM      5  O   UNL d   1     -50.868  27.978  33.630  0.00  0.00    -0.286 OA
ATOM      6  C   UNL d   1     -48.965  26.939  33.479  0.00  0.00     0.010 A 
ATOM      7  C   UNL d   1     -49.218  26.156  33.435  0.00  0.00     0.035 A 
ATOM      8  C   UNL d   1     -50.014  25.957  33.454  0.00  0.00     0.011 A 
ATOM      9 BR   UNL d   1     -48.656  25.527  33.368  0.00  0.00    -0.049 Br
ENDBRANCH   1   2
BRANCH   1  10
ATOM     10  N   UNL d   1     -51.676  25.618  33.340  0.00  0.00    -0.144 NA
BRANCH  10  11
ATOM     11  N   UNL d   1     -52.466  25.468  33.309  0.00  0.00    -0.121 NA
BRANCH  11  12
ATOM     12  C   UNL d   1     -52.754  24.718  33.513  0.00  0.00     0.217 A 
ATOM     13  N   UNL d   1     -53.466  24.469  33.789  0.00  0.00    -0.181 NA
ATOM     14  C   UNL d   1     -53.423  23.678  33.887  0.00  0.00     0.288 A 
ATOM     15  O   UNL d   1     -54.032  23.195  34.162  0.00  0.00    -0.265 OA
ATOM     16  C   UNL d   1     -52.707  23.406  33.684  0.00  0.00     0.101 A 
ATOM     17  S   UNL d   1     -52.257  24.054  33.440  0.00  0.00    -0.041 SA
ENDBRANCH  11  12
ENDBRANCH  10  11
ENDBRANCH   1  10
TORSDOF 4
ENDMDL
