MODEL 1
REMARK VINA RESULT:      -4.8      0.000      0.000
REMARK  4 active torsions:
REMARK  status: ('A' for Active; 'I' for Inactive)
REMARK    1  A    between atoms: N_6  and  S_1 
REMARK    2  A    between atoms: C_7  and  S_1 
REMARK    3  A    between atoms: C_13  and  N_6 
REMARK    4  A    between atoms: O_18  and  C_15 
ROOT
ATOM      1  S   UNL d   1      57.241   0.071  32.362  0.00  0.00     0.285 S 
ATOM      2  O   UNL d   1      57.549   0.260  33.095  0.00  0.00    -0.198 OA
ATOM      3  O   UNL d   1      57.943   0.314  32.004  0.00  0.00    -0.198 OA
ENDROOT
BRANCH   1   4
ATOM      4  N   UNL d   1      56.934  -0.120  31.620  0.00  0.00    -0.158 NA
BRANCH   4   5
ATOM      5  C   UNL d   1      57.417  -0.075  30.946  0.00  0.00     0.095 A 
ATOM      6  C   UNL d   1      57.827  -0.745  30.693  0.00  0.00     0.040 A 
ATOM      7  C   UNL d   1      58.303  -0.693  30.025  0.00  0.00     0.089 A 
ATOM      8  N   UNL d   1      58.774  -1.262  29.646  0.00  0.00    -0.238 NA
ATOM      9  C   UNL d   1      58.377   0.008  29.609  0.00  0.00     0.049 A 
ATOM     10  C   UNL d   1      59.132  -0.905  29.000  0.00  0.00     0.111 A 
ATOM     11  C   UNL d   1      59.653  -1.269  28.458  0.00  0.00     0.028 C 
ATOM     12  S   UNL d   1      58.887  -0.116  28.975  0.00  0.00    -0.066 SA
ATOM     13  C   UNL d   1      57.961   0.682  29.869  0.00  0.00     0.010 A 
ATOM     14  C   UNL d   1      57.481   0.632  30.540  0.00  0.00     0.021 A 
ENDBRANCH   4   5
ENDBRANCH   1   4
BRANCH   1  15
ATOM     15  C   UNL d   1      56.536  -0.175  32.713  0.00  0.00     0.107 A 
ATOM     16  C   UNL d   1      56.002   0.381  33.012  0.00  0.00     0.037 A 
ATOM     17  C   UNL d   1      55.298   0.128  33.362  0.00  0.00     0.095 A 
ATOM     18  C   UNL d   1      55.129  -0.680  33.412  0.00  0.00     0.024 A 
ATOM     19  C   UNL d   1      55.663  -1.232  33.112  0.00  0.00     0.003 A 
ATOM     20  C   UNL d   1      56.367  -0.979  32.763  0.00  0.00     0.013 A 
BRANCH  17  21
ATOM     21  O   UNL d   1      54.765   0.679  33.661  0.00  0.00    -0.328 OA
ATOM     22  C   UNL d   1      54.091   0.426  34.064  0.00  0.00     0.181 C 
ENDBRANCH  17  21
ENDBRANCH   1  15
TORSDOF 4
ENDMDL
MODEL 2
REMARK VINA RESULT:      -4.4      1.269      1.566
REMARK  4 active torsions:
REMARK  status: ('A' for Active; 'I' for Inactive)
REMARK    1  A    between atoms: N_6  and  S_1 
REMARK    2  A    between atoms: C_7  and  S_1 
REMARK    3  A    between atoms: C_13  and  N_6 
REMARK    4  A    between atoms: O_18  and  C_15 
ROOT
ATOM      1  S   UNL d   1      56.524  -0.449  32.721  0.00  0.00     0.285 S 
ATOM      2  O   UNL d   1      56.438  -1.172  33.092  0.00  0.00    -0.198 OA
ATOM      3  O   UNL d   1      57.041  -0.790  32.176  0.00  0.00    -0.198 OA
ENDROOT
BRANCH   1   4
ATOM      4  N   UNL d   1      56.614   0.279  32.345  0.00  0.00    -0.158 NA
BRANCH   4   5
ATOM      5  C   UNL d   1      57.215   0.384  31.781  0.00  0.00     0.095 A 
ATOM      6  C   UNL d   1      57.033   0.344  30.977  0.00  0.00     0.040 A 
ATOM      7  C   UNL d   1      57.633   0.449  30.426  0.00  0.00     0.089 A 
ATOM      8  N   UNL d   1      57.617   0.439  29.595  0.00  0.00    -0.238 NA
ATOM      9  C   UNL d   1      58.404   0.591  30.659  0.00  0.00     0.049 A 
ATOM     10  C   UNL d   1      58.381   0.576  29.327  0.00  0.00     0.111 A 
ATOM     11  C   UNL d   1      58.626   0.613  28.529  0.00  0.00     0.028 C 
ATOM     12  S   UNL d   1      58.871   0.671  29.985  0.00  0.00    -0.066 SA
ATOM     13  C   UNL d   1      58.584   0.631  31.471  0.00  0.00     0.010 A 
ATOM     14  C   UNL d   1      57.982   0.526  32.028  0.00  0.00     0.021 A 
ENDBRANCH   4   5
ENDBRANCH   1   4
BRANCH   1  15
ATOM     15  C   UNL d   1      56.008  -0.101  33.263  0.00  0.00     0.107 A 
ATOM     16  C   UNL d   1      56.274   0.115  34.016  0.00  0.00     0.037 A 
ATOM     17  C   UNL d   1      55.752   0.463  34.552  0.00  0.00     0.095 A 
ATOM     18  C   UNL d   1      54.965   0.595  34.335  0.00  0.00     0.024 A 
ATOM     19  C   UNL d   1      54.702   0.378  33.584  0.00  0.00     0.003 A 
ATOM     20  C   UNL d   1      55.224   0.031  33.048  0.00  0.00     0.013 A 
BRANCH  17  21
ATOM     21  O   UNL d   1      56.014   0.679  35.301  0.00  0.00    -0.328 OA
ATOM     22  C   UNL d   1      55.490   0.678  35.939  0.00  0.00     0.181 C 
ENDBRANCH  17  21
ENDBRANCH   1  15
TORSDOF 4
ENDMDL
MODEL 3
REMARK VINA RESULT:      -3.8      1.561      4.661
REMARK  4 active torsions:
REMARK  status: ('A' for Active; 'I' for Inactive)
REMARK    1  A    between atoms: N_6  and  S_1 
REMARK    2  A    between atoms: C_7  and  S_1 
REMARK    3  A    between atoms: C_13  and  N_6 
REMARK    4  A    between atoms: O_18  and  C_15 
ROOT
ATOM      1  S   UNL d   1      57.656  -0.354  30.869  0.00  0.00     0.285 S 
ATOM      2  O   UNL d   1      57.785  -1.094  30.550  0.00  0.00    -0.198 OA
ATOM      3  O   UNL d   1      57.196  -0.691  31.466  0.00  0.00    -0.198 OA
ENDROOT
BRANCH   1   4
ATOM      4  N   UNL d   1      57.523   0.393  31.195  0.00  0.00    -0.158 NA
BRANCH   4   5
ATOM      5  C   UNL d   1      57.162   0.463  31.939  0.00  0.00     0.095 A 
ATOM      6  C   UNL d   1      56.339   0.469  31.997  0.00  0.00     0.040 A 
ATOM      7  C   UNL d   1      55.990   0.539  32.737  0.00  0.00     0.089 A 
ATOM      8  N   UNL d   1      55.191   0.560  32.964  0.00  0.00    -0.238 NA
ATOM      9  C   UNL d   1      56.443   0.603  33.416  0.00  0.00     0.049 A 
ATOM     10  C   UNL d   1      55.162   0.638  33.780  0.00  0.00     0.111 A 
ATOM     11  C   UNL d   1      54.472   0.682  34.248  0.00  0.00     0.028 C 
ATOM     12  S   UNL d   1      55.938   0.664  34.063  0.00  0.00    -0.066 SA
ATOM     13  C   UNL d   1      57.274   0.597  33.354  0.00  0.00     0.010 A 
ATOM     14  C   UNL d   1      57.627   0.527  32.610  0.00  0.00     0.021 A 
ENDBRANCH   4   5
ENDBRANCH   1   4
BRANCH   1  15
ATOM     15  C   UNL d   1      58.114  -0.009  30.276  0.00  0.00     0.107 A 
ATOM     16  C   UNL d   1      58.928   0.089  30.379  0.00  0.00     0.037 A 
ATOM     17  C   UNL d   1      59.380   0.434  29.781  0.00  0.00     0.095 A 
ATOM     18  C   UNL d   1      59.016   0.682  29.080  0.00  0.00     0.024 A 
ATOM     19  C   UNL d   1      58.204   0.583  28.980  0.00  0.00     0.003 A 
ATOM     20  C   UNL d   1      57.753   0.238  29.578  0.00  0.00     0.013 A 
BRANCH  17  21
ATOM     21  O   UNL d   1      60.191   0.533  29.881  0.00  0.00    -0.328 OA
ATOM     22  C   UNL d   1      60.705   0.396  29.250  0.00  0.00     0.181 C 
ENDBRANCH  17  21
ENDBRANCH   1  15
TORSDOF 4
ENDMDL
