MODEL 1
REMARK VINA RESULT:      23.2      0.000      0.000
REMARK  8 active torsions:
REMARK  status: ('A' for Active; 'I' for Inactive)
REMARK    1  A    between atoms: N_3  and  C_1 
REMARK    2  A    between atoms: C_20  and  N_2 
REMARK       I    between atoms: C_7  and  N_3 
REMARK    3  A    between atoms: C_10  and  C_7 
REMARK    4  A    between atoms: C_9  and  C_10 
REMARK    5  A    between atoms: C_15  and  C_9 
REMARK       I    between atoms: C_12  and  N_13 
REMARK    6  A    between atoms: N_13  and  C_14 
REMARK    7  A    between atoms: C_26  and  C_20 
REMARK    8  A    between atoms: O_22  and  C_26 
ROOT
ATOM      1  C   UNL d   1      46.276 -17.622  43.984  0.00  0.00     0.182 A 
ATOM      2  N   UNL d   1      46.381 -18.425  44.120  0.00  0.00    -0.283 N 
ATOM      3  S   UNL d   1      46.284 -17.500  43.168  0.00  0.00    -0.048 SA
ATOM      4  C   UNL d   1      46.394 -18.233  42.800  0.00  0.00     0.050 A 
ATOM      5  C   UNL d   1      46.454 -18.808  43.391  0.00  0.00     0.072 A 
ATOM      6  C   UNL d   1      46.448 -18.450  42.006  0.00  0.00     0.027 A 
ATOM      7  C   UNL d   1      46.567 -19.599  43.187  0.00  0.00     0.020 A 
ATOM      8  C   UNL d   1      46.561 -19.241  41.803  0.00  0.00     0.085 A 
ATOM      9  C   UNL d   1      46.620 -19.815  42.394  0.00  0.00     0.021 A 
ENDROOT
BRANCH   1  10
ATOM     10  N   UNL d   1      46.181 -17.045  44.566  0.00  0.00    -0.184 NA
ATOM     11  C   UNL d   1      46.017 -16.268  44.345  0.00  0.00     0.281 C 
ATOM     12  O   UNL d   1      45.950 -16.074  43.546  0.00  0.00    -0.265 OA
BRANCH  11  13
ATOM     13  C   UNL d   1      45.920 -15.685  44.922  0.00  0.00     0.063 C 
BRANCH  13  14
ATOM     14  C   UNL d   1      46.146 -14.910  44.768  0.00  0.00     0.006 C 
BRANCH  14  15
ATOM     15  C   UNL d   1      45.588 -14.325  44.644  0.00  0.00     0.011 A 
ATOM     16  C   UNL d   1      45.831 -13.546  44.491  0.00  0.00     0.058 A 
ATOM     17 CL   UNL d   1      46.647 -13.367  44.466  0.00  0.00    -0.082 Cl
ATOM     18  C   UNL d   1      45.259 -12.946  44.363  0.00  0.00     0.011 A 
ATOM     19  C   UNL d   1      44.462 -13.115  44.386  0.00  0.00     0.001 A 
ATOM     20  C   UNL d   1      44.216 -13.891  44.538  0.00  0.00     0.000 A 
ATOM     21  C   UNL d   1      44.780 -14.488  44.665  0.00  0.00     0.001 A 
ENDBRANCH  14  15
ENDBRANCH  13  14
ENDBRANCH  11  13
ENDBRANCH   1  10
BRANCH   2  22
ATOM     22  C   UNL d   1      46.409 -18.797  44.858  0.00  0.00     0.108 C 
BRANCH  22  23
ATOM     23  C   UNL d   1      46.119 -19.562  44.953  0.00  0.00     0.135 C 
BRANCH  23  24
ATOM     24  O   UNL d   1      45.312 -19.708  44.893  0.00  0.00    -0.325 OA
ATOM     25  C   UNL d   1      45.027 -20.310  44.397  0.00  0.00     0.182 C 
ENDBRANCH  23  24
ENDBRANCH  22  23
ENDBRANCH   2  22
BRANCH   8  26
ATOM     26  N   UNL d   1      46.615 -19.463  40.997  0.00  0.00    -0.208 NA
ATOM     27  C   UNL d   1      46.069 -19.176  40.461  0.00  0.00     0.279 C 
ATOM     28  O   UNL d   1      46.124 -19.395  39.667  0.00  0.00    -0.265 OA
ATOM     29  C   UNL d   1      45.463 -18.668  40.700  0.00  0.00     0.068 C 
ENDBRANCH   8  26
TORSDOF 8
ENDMDL
