MODEL 1
REMARK VINA RESULT:      12.2      0.000      0.000
REMARK  3 active torsions:
REMARK  status: ('A' for Active; 'I' for Inactive)
REMARK    1  A    between atoms: N_2  and  C_1 
REMARK    2  A    between atoms: C_3  and  C_1 
REMARK    3  A    between atoms: N_6  and  C_5 
ROOT
ATOM      1  C   UNL d   1      45.547 -13.796  44.464  0.00  0.00     0.027 A 
ATOM      2  C   UNL d   1      45.517 -15.427  44.741  0.00  0.00     0.064 A 
ATOM      3  C   UNL d   1      46.220 -14.259  44.314  0.00  0.00     0.004 A 
ATOM      4  C   UNL d   1      44.854 -14.156  44.755  0.00  0.00     0.004 A 
ATOM      5  C   UNL d   1      46.203 -15.071  44.453  0.00  0.00     0.018 A 
ATOM      6  C   UNL d   1      44.841 -14.975  44.894  0.00  0.00     0.018 A 
ENDROOT
BRANCH   1   7
ATOM      7  C   UNL d   1      45.562 -12.982  44.325  0.00  0.00     0.120 C 
ATOM      8  S   UNL d   1      45.839 -12.473  44.917  0.00  0.00    -0.059 SA
BRANCH   7   9
ATOM      9  N   UNL d   1      45.303 -12.682  43.603  0.00  0.00    -0.292 N 
ATOM     10  C   UNL d   1      44.515 -12.465  43.513  0.00  0.00     0.108 A 
ATOM     11  C   UNL d   1      44.256 -12.165  42.790  0.00  0.00     0.142 A 
ATOM     12  O   UNL d   1      44.784 -12.084  42.164  0.00  0.00    -0.300 OA
ATOM     13  C   UNL d   1      45.576 -12.303  42.260  0.00  0.00     0.142 A 
ATOM     14  C   UNL d   1      45.835 -12.603  42.983  0.00  0.00     0.108 A 
ENDBRANCH   7   9
ENDBRANCH   1   7
BRANCH   2  15
ATOM     15  N   UNL d   1      45.501 -16.238  44.879  0.00  0.00    -0.301 N 
ATOM     16  C   UNL d   1      46.207 -16.661  44.947  0.00  0.00     0.100 C 
ATOM     17  C   UNL d   1      44.779 -16.628  44.950  0.00  0.00     0.100 C 
ENDBRANCH   2  15
TORSDOF 3
ENDMDL
