MODEL 1
REMARK VINA RESULT:      -6.0      0.000      0.000
REMARK  6 active torsions:
REMARK  status: ('A' for Active; 'I' for Inactive)
REMARK    1  A    between atoms: S_4  and  C_1 
REMARK    2  A    between atoms: C_9  and  N_2 
REMARK    3  A    between atoms: C_11  and  S_4 
REMARK    4  A    between atoms: C_6  and  C_11 
REMARK       I    between atoms: N_8  and  C_6 
REMARK    5  A    between atoms: C_12  and  N_8 
REMARK    6  A    between atoms: O_18  and  C_13 
ROOT
ATOM      1  S   UNL d   1     -49.001  12.646  23.224  0.00  0.00    -0.044 SA
ENDROOT
BRANCH   1   2
ATOM      2  C   UNL d   1     -49.750  12.321  23.357  0.00  0.00     0.180 A 
ATOM      3  N   UNL d   1     -50.465  12.694  23.220  0.00  0.00    -0.284 N 
ATOM      4  C   UNL d   1     -51.064  12.165  23.429  0.00  0.00     0.103 A 
ATOM      5  C   UNL d   1     -50.707  11.458  23.698  0.00  0.00     0.120 A 
ATOM      6  N   UNL d   1     -49.904  11.568  23.648  0.00  0.00    -0.219 NA
BRANCH   3   7
ATOM      7  C   UNL d   1     -50.605  13.453  22.928  0.00  0.00     0.066 A 
ATOM      8  C   UNL d   1     -50.694  14.082  23.443  0.00  0.00     0.018 A 
ATOM      9  C   UNL d   1     -50.834  14.841  23.152  0.00  0.00     0.002 A 
ATOM     10  C   UNL d   1     -50.885  14.972  22.346  0.00  0.00     0.000 A 
ATOM     11  C   UNL d   1     -50.795  14.339  21.823  0.00  0.00     0.002 A 
ATOM     12  C   UNL d   1     -50.656  13.580  22.115  0.00  0.00     0.018 A 
ENDBRANCH   3   7
ENDBRANCH   1   2
BRANCH   1  13
ATOM     13  C   UNL d   1     -48.331  12.301  23.561  0.00  0.00     0.101 C 
BRANCH  13  14
ATOM     14  C   UNL d   1     -47.606  12.370  23.203  0.00  0.00     0.286 C 
ATOM     15  N   UNL d   1     -47.143  13.028  23.343  0.00  0.00    -0.208 NA
ATOM     16  O   UNL d   1     -47.343  11.773  22.700  0.00  0.00    -0.265 OA
BRANCH  15  17
ATOM     17  C   UNL d   1     -46.411  13.103  22.983  0.00  0.00     0.085 A 
ATOM     18  C   UNL d   1     -46.204  13.810  22.606  0.00  0.00     0.021 A 
ATOM     19  C   UNL d   1     -45.467  13.891  22.243  0.00  0.00     0.026 A 
ATOM     20  C   UNL d   1     -44.936  13.263  22.258  0.00  0.00     0.094 A 
ATOM     21  C   UNL d   1     -45.155  12.558  22.640  0.00  0.00     0.026 A 
ATOM     22  C   UNL d   1     -45.879  12.482  22.995  0.00  0.00     0.021 A 
BRANCH  20  23
ATOM     23  O   UNL d   1     -44.195  13.349  21.890  0.00  0.00    -0.328 OA
ATOM     24  C   UNL d   1     -43.866  12.702  21.495  0.00  0.00     0.181 C 
ENDBRANCH  20  23
ENDBRANCH  15  17
ENDBRANCH  13  14
ENDBRANCH   1  13
TORSDOF 6
ENDMDL
MODEL 2
REMARK VINA RESULT:      -4.6      8.121     10.346
REMARK  6 active torsions:
REMARK  status: ('A' for Active; 'I' for Inactive)
REMARK    1  A    between atoms: S_4  and  C_1 
REMARK    2  A    between atoms: C_9  and  N_2 
REMARK    3  A    between atoms: C_11  and  S_4 
REMARK    4  A    between atoms: C_6  and  C_11 
REMARK       I    between atoms: N_8  and  C_6 
REMARK    5  A    between atoms: C_12  and  N_8 
REMARK    6  A    between atoms: O_18  and  C_13 
ROOT
ATOM      1  S   UNL d   1     -39.042  14.300  19.968  0.00  0.00    -0.044 SA
ENDROOT
BRANCH   1   2
ATOM      2  C   UNL d   1     -39.043  14.114  20.774  0.00  0.00     0.180 A 
ATOM      3  N   UNL d   1     -39.633  14.301  21.308  0.00  0.00    -0.284 N 
ATOM      4  C   UNL d   1     -39.401  14.009  22.045  0.00  0.00     0.103 A 
ATOM      5  C   UNL d   1     -38.656  13.638  21.957  0.00  0.00     0.120 A 
ATOM      6  N   UNL d   1     -38.449  13.710  21.175  0.00  0.00    -0.219 NA
BRANCH   3   7
ATOM      7  C   UNL d   1     -40.342  14.703  21.177  0.00  0.00     0.066 A 
ATOM      8  C   UNL d   1     -40.361  15.520  21.192  0.00  0.00     0.018 A 
ATOM      9  C   UNL d   1     -41.069  15.921  21.060  0.00  0.00     0.002 A 
ATOM     10  C   UNL d   1     -41.759  15.506  20.914  0.00  0.00     0.000 A 
ATOM     11  C   UNL d   1     -41.743  14.681  20.898  0.00  0.00     0.002 A 
ATOM     12  C   UNL d   1     -41.034  14.279  21.029  0.00  0.00     0.018 A 
ENDBRANCH   3   7
ENDBRANCH   1   2
BRANCH   1  13
ATOM     13  C   UNL d   1     -38.359  14.196  19.516  0.00  0.00     0.101 C 
BRANCH  13  14
ATOM     14  C   UNL d   1     -38.384  14.262  18.707  0.00  0.00     0.286 C 
ATOM     15  N   UNL d   1     -37.979  13.725  18.243  0.00  0.00    -0.208 NA
ATOM     16  O   UNL d   1     -38.819  14.869  18.362  0.00  0.00    -0.265 OA
BRANCH  15  17
ATOM     17  C   UNL d   1     -38.001  13.786  17.426  0.00  0.00     0.085 A 
ATOM     18  C   UNL d   1     -37.940  14.527  17.064  0.00  0.00     0.021 A 
ATOM     19  C   UNL d   1     -37.961  14.595  16.240  0.00  0.00     0.026 A 
ATOM     20  C   UNL d   1     -38.044  13.918  15.780  0.00  0.00     0.094 A 
ATOM     21  C   UNL d   1     -38.105  13.178  16.155  0.00  0.00     0.026 A 
ATOM     22  C   UNL d   1     -38.084  13.117  16.963  0.00  0.00     0.021 A 
BRANCH  20  23
ATOM     23  O   UNL d   1     -38.065  13.990  14.952  0.00  0.00    -0.328 OA
ATOM     24  C   UNL d   1     -37.942  13.317  14.488  0.00  0.00     0.181 C 
ENDBRANCH  20  23
ENDBRANCH  15  17
ENDBRANCH  13  14
ENDBRANCH   1  13
TORSDOF 6
ENDMDL
MODEL 3
REMARK VINA RESULT:      -4.1     10.037     10.830
REMARK  6 active torsions:
REMARK  status: ('A' for Active; 'I' for Inactive)
REMARK    1  A    between atoms: S_4  and  C_1 
REMARK    2  A    between atoms: C_9  and  N_2 
REMARK    3  A    between atoms: C_11  and  S_4 
REMARK    4  A    between atoms: C_6  and  C_11 
REMARK       I    between atoms: N_8  and  C_6 
REMARK    5  A    between atoms: C_12  and  N_8 
REMARK    6  A    between atoms: O_18  and  C_13 
ROOT
ATOM      1  S   UNL d   1     -38.528  13.936  18.672  0.00  0.00    -0.044 SA
ENDROOT
BRANCH   1   2
ATOM      2  C   UNL d   1     -38.472  13.529  17.954  0.00  0.00     0.180 A 
ATOM      3  N   UNL d   1     -38.794  13.769  17.242  0.00  0.00    -0.284 N 
ATOM      4  C   UNL d   1     -38.602  13.196  16.678  0.00  0.00     0.103 A 
ATOM      5  C   UNL d   1     -38.156  12.597  17.055  0.00  0.00     0.120 A 
ATOM      6  N   UNL d   1     -38.084  12.814  17.835  0.00  0.00    -0.219 NA
BRANCH   3   7
ATOM      7  C   UNL d   1     -39.233  14.447  17.075  0.00  0.00     0.066 A 
ATOM      8  C   UNL d   1     -40.044  14.448  17.175  0.00  0.00     0.018 A 
ATOM      9  C   UNL d   1     -40.483  15.126  17.008  0.00  0.00     0.002 A 
ATOM     10  C   UNL d   1     -40.111  15.804  16.740  0.00  0.00     0.000 A 
ATOM     11  C   UNL d   1     -39.292  15.806  16.638  0.00  0.00     0.002 A 
ATOM     12  C   UNL d   1     -38.853  15.128  16.805  0.00  0.00     0.018 A 
ENDBRANCH   3   7
ENDBRANCH   1   2
BRANCH   1  13
ATOM     13  C   UNL d   1     -38.083  13.694  19.325  0.00  0.00     0.101 C 
BRANCH  13  14
ATOM     14  C   UNL d   1     -38.177  14.054  20.046  0.00  0.00     0.286 C 
ATOM     15  N   UNL d   1     -38.171  13.606  20.729  0.00  0.00    -0.208 NA
ATOM     16  O   UNL d   1     -38.279  14.870  20.082  0.00  0.00    -0.265 OA
BRANCH  15  17
ATOM     17  C   UNL d   1     -38.265  13.965  21.460  0.00  0.00     0.085 A 
ATOM     18  C   UNL d   1     -37.995  14.736  21.581  0.00  0.00     0.021 A 
ATOM     19  C   UNL d   1     -38.087  15.103  22.316  0.00  0.00     0.026 A 
ATOM     20  C   UNL d   1     -38.451  14.694  22.929  0.00  0.00     0.094 A 
ATOM     21  C   UNL d   1     -38.719  13.919  22.796  0.00  0.00     0.026 A 
ATOM     22  C   UNL d   1     -38.626  13.563  22.074  0.00  0.00     0.021 A 
BRANCH  20  23
ATOM     23  O   UNL d   1     -38.543  15.066  23.667  0.00  0.00    -0.328 OA
ATOM     24  C   UNL d   1     -38.645  15.886  23.693  0.00  0.00     0.181 C 
ENDBRANCH  20  23
ENDBRANCH  15  17
ENDBRANCH  13  14
ENDBRANCH   1  13
TORSDOF 6
ENDMDL
MODEL 4
REMARK VINA RESULT:      -3.3      4.292      8.240
REMARK  6 active torsions:
REMARK  status: ('A' for Active; 'I' for Inactive)
REMARK    1  A    between atoms: S_4  and  C_1 
REMARK    2  A    between atoms: C_9  and  N_2 
REMARK    3  A    between atoms: C_11  and  S_4 
REMARK    4  A    between atoms: C_6  and  C_11 
REMARK       I    between atoms: N_8  and  C_6 
REMARK    5  A    between atoms: C_12  and  N_8 
REMARK    6  A    between atoms: O_18  and  C_13 
ROOT
ATOM      1  S   UNL d   1     -41.353  13.986  20.689  0.00  0.00    -0.044 SA
ENDROOT
BRANCH   1   2
ATOM      2  C   UNL d   1     -40.838  14.201  20.078  0.00  0.00     0.180 A 
ATOM      3  N   UNL d   1     -40.135  14.610  20.166  0.00  0.00    -0.284 N 
ATOM      4  C   UNL d   1     -39.807  14.702  19.413  0.00  0.00     0.103 A 
ATOM      5  C   UNL d   1     -40.320  14.343  18.859  0.00  0.00     0.120 A 
ATOM      6  N   UNL d   1     -40.946  14.041  19.279  0.00  0.00    -0.219 NA
BRANCH   3   7
ATOM      7  C   UNL d   1     -39.785  14.894  20.857  0.00  0.00     0.066 A 
ATOM      8  C   UNL d   1     -39.973  15.638  21.139  0.00  0.00     0.018 A 
ATOM      9  C   UNL d   1     -39.623  15.922  21.829  0.00  0.00     0.002 A 
ATOM     10  C   UNL d   1     -39.084  15.462  22.238  0.00  0.00     0.000 A 
ATOM     11  C   UNL d   1     -38.891  14.711  21.956  0.00  0.00     0.002 A 
ATOM     12  C   UNL d   1     -39.241  14.427  21.265  0.00  0.00     0.018 A 
ENDBRANCH   3   7
ENDBRANCH   1   2
BRANCH   1  13
ATOM     13  C   UNL d   1     -41.967  13.452  20.549  0.00  0.00     0.101 C 
BRANCH  13  14
ATOM     14  C   UNL d   1     -42.541  13.325  21.109  0.00  0.00     0.286 C 
ATOM     15  N   UNL d   1     -43.176  12.841  20.938  0.00  0.00    -0.208 NA
ATOM     16  O   UNL d   1     -42.476  13.687  21.846  0.00  0.00    -0.265 OA
BRANCH  15  17
ATOM     17  C   UNL d   1     -43.759  12.710  21.500  0.00  0.00     0.085 A 
ATOM     18  C   UNL d   1     -44.443  13.174  21.503  0.00  0.00     0.021 A 
ATOM     19  C   UNL d   1     -45.034  13.046  22.067  0.00  0.00     0.026 A 
ATOM     20  C   UNL d   1     -44.937  12.452  22.627  0.00  0.00     0.094 A 
ATOM     21  C   UNL d   1     -44.245  11.991  22.613  0.00  0.00     0.026 A 
ATOM     22  C   UNL d   1     -43.668  12.120  22.058  0.00  0.00     0.021 A 
BRANCH  20  23
ATOM     23  O   UNL d   1     -45.534  12.326  23.192  0.00  0.00    -0.328 OA
ATOM     24  C   UNL d   1     -46.246  12.739  23.123  0.00  0.00     0.181 C 
ENDBRANCH  20  23
ENDBRANCH  15  17
ENDBRANCH  13  14
ENDBRANCH   1  13
TORSDOF 6
ENDMDL
