MODEL 1
REMARK VINA RESULT:       5.4      0.000      0.000
REMARK  1 active torsions:
REMARK  status: ('A' for Active; 'I' for Inactive)
REMARK    1  A    between atoms: C_6  and  C_3 
ROOT
ATOM      1  C   UNL d   1     -54.736-102.160 -38.134  0.00  0.00     0.018 A 
ATOM      2  C   UNL d   1     -54.712-101.457 -38.528  0.00  0.00     0.005 A 
ATOM      3  C   UNL d   1     -54.768-102.880 -38.545  0.00  0.00     0.005 A 
ATOM      4  C   UNL d   1     -54.750-102.159 -39.768  0.00  0.00     0.196 A 
ATOM      5  C   UNL d   1     -54.718-101.438 -39.356  0.00  0.00     0.042 A 
ATOM      6  C   UNL d   1     -54.774-102.859 -39.370  0.00  0.00     0.042 A 
ATOM      7  O   UNL d   1     -54.756-102.136 -40.589  0.00  0.00    -0.287 OA
ENDROOT
BRANCH   1   8
ATOM      8  C   UNL d   1     -54.730-102.183 -37.312  0.00  0.00     0.090 A 
ATOM      9  N   UNL d   1     -54.733-101.501 -36.865  0.00  0.00    -0.219 NA
ATOM     10  C   UNL d   1     -54.726-101.701 -36.071  0.00  0.00     0.215 A 
ATOM     11  S   UNL d   1     -54.717-102.489 -36.011  0.00  0.00    -0.045 SA
ATOM     12  N   UNL d   1     -54.726-101.196 -35.408  0.00  0.00    -0.120 N 
ATOM     13  C   UNL d   1     -54.720-102.812 -36.779  0.00  0.00     0.058 A 
ENDBRANCH   1   8
TORSDOF 1
ENDMDL
