MODEL 1
REMARK VINA RESULT:      59.3      0.000      0.000
REMARK  5 active torsions:
REMARK  status: ('A' for Active; 'I' for Inactive)
REMARK    1  A    between atoms: N_2  and  C_1 
REMARK    2  A    between atoms: N_11  and  C_6 
REMARK    3  A    between atoms: C_13  and  N_11 
REMARK    4  A    between atoms: O_20  and  C_14 
REMARK    5  A    between atoms: C_23  and  O_20 
ROOT
ATOM      1  C   UNL d   1      60.934  48.109  50.636  0.00  0.00     0.752 A 
ATOM      2  N   UNL d   1      60.389  48.532  50.178  0.00  0.00    -0.040 NA
ATOM      3  C   UNL d   1      60.152  49.285  50.409  0.00  0.00     0.182 A 
ATOM      4  N   UNL d   1      61.239  48.447  51.327  0.00  0.00    -0.059 NA
ATOM      5  C   UNL d   1      60.457  49.624  51.100  0.00  0.00     0.059 A 
ATOM      6  C   UNL d   1      61.003  49.204  51.560  0.00  0.00     0.103 A 
ATOM      7  C   UNL d   1      61.308  49.543  52.251  0.00  0.00     0.021 C 
ENDROOT
BRANCH   3   8
ATOM      8  N   UNL d   1      59.610  49.707  49.954  0.00  0.00    -0.226 NA
BRANCH   8   9
ATOM      9  C   UNL d   1      58.793  49.594  50.058  0.00  0.00     0.083 A 
ATOM     10  C   UNL d   1      58.331  49.373  49.405  0.00  0.00     0.021 A 
ATOM     11  C   UNL d   1      57.513  49.261  49.514  0.00  0.00     0.026 A 
ATOM     12  C   UNL d   1      57.171  49.369  50.256  0.00  0.00     0.100 A 
ATOM     13  C   UNL d   1      57.644  49.590  50.900  0.00  0.00     0.026 A 
ATOM     14  C   UNL d   1      58.456  49.703  50.802  0.00  0.00     0.021 A 
BRANCH  12  15
ATOM     15  O   UNL d   1      56.358  49.256  50.358  0.00  0.00    -0.305 OA
BRANCH  15  16
ATOM     16  C   UNL d   1      56.076  48.969  51.076  0.00  0.00     0.123 C 
ATOM     17  C   UNL d   1      56.225  48.186  51.284  0.00  0.00     0.029 C 
ENDBRANCH  15  16
ENDBRANCH  12  15
ENDBRANCH   8   9
ENDBRANCH   3   8
BRANCH   1  18
ATOM     18  N   UNL d   1      61.154  47.428  50.437  0.00  0.00    -0.058 N 
ATOM     19  N   UNL d   1      61.965  46.659  49.768  0.00  0.00    -0.151 NA
ATOM     20  C   UNL d   1      61.598  46.049  50.035  0.00  0.00     0.103 A 
ATOM     21  C   UNL d   1      61.819  45.361  49.835  0.00  0.00     0.022 C 
ATOM     22  C   UNL d   1      61.019  46.147  50.496  0.00  0.00     0.041 A 
ATOM     23  C   UNL d   1      60.792  46.824  50.701  0.00  0.00     0.102 A 
ATOM     24  C   UNL d   1      60.204  46.915  51.168  0.00  0.00     0.021 C 
ENDBRANCH   1  18
TORSDOF 5
ENDMDL
MODEL 2
REMARK VINA RESULT:      59.4      1.710      4.250
REMARK  5 active torsions:
REMARK  status: ('A' for Active; 'I' for Inactive)
REMARK    1  A    between atoms: N_2  and  C_1 
REMARK    2  A    between atoms: N_11  and  C_6 
REMARK    3  A    between atoms: C_13  and  N_11 
REMARK    4  A    between atoms: O_20  and  C_14 
REMARK    5  A    between atoms: C_23  and  O_20 
ROOT
ATOM      1  C   UNL d   1      59.287  49.472  51.068  0.00  0.00     0.752 A 
ATOM      2  N   UNL d   1      59.897  49.263  50.548  0.00  0.00    -0.040 NA
ATOM      3  C   UNL d   1      60.670  49.202  50.821  0.00  0.00     0.182 A 
ATOM      4  N   UNL d   1      59.460  49.620  51.864  0.00  0.00    -0.059 NA
ATOM      5  C   UNL d   1      60.843  49.349  51.617  0.00  0.00     0.059 A 
ATOM      6  C   UNL d   1      60.237  49.559  52.141  0.00  0.00     0.103 A 
ATOM      7  C   UNL d   1      60.410  49.706  52.937  0.00  0.00     0.021 C 
ENDROOT
BRANCH   3   8
ATOM      8  N   UNL d   1      61.277  48.994  50.304  0.00  0.00    -0.226 NA
BRANCH   8   9
ATOM      9  C   UNL d   1      61.449  48.195  50.156  0.00  0.00     0.083 A 
ATOM     10  C   UNL d   1      61.967  48.004  49.534  0.00  0.00     0.021 A 
ATOM     11  C   UNL d   1      62.137  47.202  49.389  0.00  0.00     0.026 A 
ATOM     12  C   UNL d   1      61.798  46.611  49.853  0.00  0.00     0.100 A 
ATOM     13  C   UNL d   1      61.283  46.815  50.470  0.00  0.00     0.026 A 
ATOM     14  C   UNL d   1      61.108  47.607  50.622  0.00  0.00     0.021 A 
BRANCH  12  15
ATOM     15  O   UNL d   1      61.972  45.816  49.703  0.00  0.00    -0.305 OA
BRANCH  15  16
ATOM     16  C   UNL d   1      61.363  45.301  49.498  0.00  0.00     0.123 C 
ATOM     17  C   UNL d   1      61.444  44.828  48.829  0.00  0.00     0.029 C 
ENDBRANCH  15  16
ENDBRANCH  12  15
ENDBRANCH   8   9
ENDBRANCH   3   8
BRANCH   1  18
ATOM     18  N   UNL d   1      58.585  49.530  50.832  0.00  0.00    -0.058 N 
ATOM     19  N   UNL d   1      57.309  49.531  51.089  0.00  0.00    -0.151 NA
ATOM     20  C   UNL d   1      57.166  49.647  50.351  0.00  0.00     0.103 A 
ATOM     21  C   UNL d   1      56.458  49.706  50.111  0.00  0.00     0.022 C 
ATOM     22  C   UNL d   1      57.738  49.702  49.875  0.00  0.00     0.041 A 
ATOM     23  C   UNL d   1      58.444  49.645  50.103  0.00  0.00     0.102 A 
ATOM     24  C   UNL d   1      59.018  49.702  49.614  0.00  0.00     0.021 C 
ENDBRANCH   1  18
TORSDOF 5
ENDMDL
