MODEL 1
REMARK VINA RESULT:     -10.2      0.000      0.000
REMARK  4 active torsions:
REMARK  status: ('A' for Active; 'I' for Inactive)
REMARK    1  A    between atoms: C_6  and  C_1 
REMARK    2  A    between atoms: N_4  and  C_2 
REMARK       I    between atoms: C_3  and  N_4 
REMARK       I    between atoms: N_9  and  C_3 
REMARK    3  A    between atoms: C_15  and  N_9 
REMARK    4  A    between atoms: C_23  and  C_15 
ROOT
ATOM      1  C   UNL d   1     -49.906  12.405  23.227  0.00  0.00     0.040 A 
ATOM      2  C   UNL d   1     -48.720  12.489  23.506  0.00  0.00     0.109 A 
ATOM      3  C   UNL d   1     -49.578  12.986  23.222  0.00  0.00     0.035 A 
ATOM      4  C   UNL d   1     -50.615  12.174  23.088  0.00  0.00    -0.023 A 
ATOM      5  C   UNL d   1     -49.411  11.501  23.482  0.00  0.00     0.013 A 
ATOM      6  C   UNL d   1     -49.889  11.797  23.321  0.00  0.00    -0.011 A 
ATOM      7  C   UNL d   1     -48.753  11.127  23.698  0.00  0.00     0.025 A 
ATOM      8  C   UNL d   1     -49.494  12.479  23.318  0.00  0.00    -0.005 A 
ATOM      9  C   UNL d   1     -48.350  11.813  23.696  0.00  0.00     0.031 A 
ATOM     10  C   UNL d   1     -49.519  11.121  23.511  0.00  0.00    -0.027 A 
ENDROOT
BRANCH   2  11
ATOM     11  N   UNL d   1     -47.923  12.609  23.683  0.00  0.00    -0.217 NA
ATOM     12  C   UNL d   1     -47.410  12.898  23.109  0.00  0.00     0.360 C 
ATOM     13  N   UNL d   1     -46.614  13.019  23.279  0.00  0.00    -0.214 NA
ATOM     14  O   UNL d   1     -47.698  13.071  22.348  0.00  0.00    -0.243 OA
BRANCH  13  15
ATOM     15  C   UNL d   1     -46.094  13.312  22.700  0.00  0.00     0.147 C 
ATOM     16  C   UNL d   1     -46.357  14.043  22.994  0.00  0.00     0.033 C 
ATOM     17  C   UNL d   1     -45.838  12.580  22.412  0.00  0.00     0.033 C 
BRANCH  15  18
ATOM     18  C   UNL d   1     -45.579  13.611  22.125  0.00  0.00     0.229 C 
ATOM     19  O   UNL d   1     -44.767  13.465  22.187  0.00  0.00    -0.286 OA
ENDBRANCH  15  18
ENDBRANCH  13  15
ENDBRANCH   2  11
BRANCH   1  20
ATOM     20  C   UNL d   1     -50.067  13.191  23.072  0.00  0.00    -0.019 A 
ATOM     21  C   UNL d   1     -50.193  13.725  23.697  0.00  0.00    -0.004 A 
ATOM     22  C   UNL d   1     -50.356  14.518  23.543  0.00  0.00    -0.000 A 
ATOM     23  C   UNL d   1     -50.395  14.787  22.756  0.00  0.00    -0.000 A 
ATOM     24  C   UNL d   1     -50.269  14.253  22.139  0.00  0.00    -0.000 A 
ATOM     25  C   UNL d   1     -50.558  15.582  22.598  0.00  0.00    -0.000 C 
ATOM     26  C   UNL d   1     -50.106  13.459  22.295  0.00  0.00    -0.004 A 
ENDBRANCH   1  20
TORSDOF 4
ENDMDL
MODEL 2
REMARK VINA RESULT:     -10.0      1.173      2.443
REMARK  4 active torsions:
REMARK  status: ('A' for Active; 'I' for Inactive)
REMARK    1  A    between atoms: C_6  and  C_1 
REMARK    2  A    between atoms: N_4  and  C_2 
REMARK       I    between atoms: C_3  and  N_4 
REMARK       I    between atoms: N_9  and  C_3 
REMARK    3  A    between atoms: C_15  and  N_9 
REMARK    4  A    between atoms: C_23  and  C_15 
ROOT
ATOM      1  C   UNL d   1     -49.529  14.437  22.402  0.00  0.00     0.040 A 
ATOM      2  C   UNL d   1     -48.421  14.254  22.881  0.00  0.00     0.109 A 
ATOM      3  C   UNL d   1     -49.381  13.896  22.763  0.00  0.00     0.035 A 
ATOM      4  C   UNL d   1     -50.140  14.705  22.041  0.00  0.00    -0.023 A 
ATOM      5  C   UNL d   1     -48.800  15.187  22.217  0.00  0.00     0.013 A 
ATOM      6  C   UNL d   1     -49.341  14.970  22.159  0.00  0.00    -0.011 A 
ATOM      7  C   UNL d   1     -48.067  15.455  22.310  0.00  0.00     0.025 A 
ATOM      8  C   UNL d   1     -49.157  14.334  22.587  0.00  0.00    -0.005 A 
ATOM      9  C   UNL d   1     -47.876  14.815  22.742  0.00  0.00     0.031 A 
ATOM     10  C   UNL d   1     -48.796  15.531  22.021  0.00  0.00    -0.027 A 
ENDROOT
BRANCH   2  11
ATOM     11  N   UNL d   1     -47.694  14.076  23.228  0.00  0.00    -0.217 NA
ATOM     12  C   UNL d   1     -47.300  13.382  23.030  0.00  0.00     0.360 C 
ATOM     13  N   UNL d   1     -46.574  13.198  23.373  0.00  0.00    -0.214 NA
ATOM     14  O   UNL d   1     -47.637  12.860  22.478  0.00  0.00    -0.243 OA
BRANCH  13  15
ATOM     15  C   UNL d   1     -46.175  12.496  23.173  0.00  0.00     0.147 C 
ATOM     16  C   UNL d   1     -45.778  13.003  22.649  0.00  0.00     0.033 C 
ATOM     17  C   UNL d   1     -46.575  11.997  23.698  0.00  0.00     0.033 C 
BRANCH  15  18
ATOM     18  C   UNL d   1     -45.773  11.802  22.969  0.00  0.00     0.229 C 
ATOM     19  O   UNL d   1     -45.058  11.617  23.344  0.00  0.00    -0.286 OA
ENDBRANCH  15  18
ENDBRANCH  13  15
ENDBRANCH   2  11
BRANCH   1  20
ATOM     20  C   UNL d   1     -49.906  13.761  22.663  0.00  0.00    -0.019 A 
ATOM     21  C   UNL d   1     -50.006  13.112  22.153  0.00  0.00    -0.004 A 
ATOM     22  C   UNL d   1     -50.385  12.429  22.414  0.00  0.00    -0.000 A 
ATOM     23  C   UNL d   1     -50.671  12.387  23.195  0.00  0.00    -0.000 A 
ATOM     24  C   UNL d   1     -50.569  13.034  23.698  0.00  0.00    -0.000 A 
ATOM     25  C   UNL d   1     -51.052  11.704  23.461  0.00  0.00    -0.000 C 
ATOM     26  C   UNL d   1     -50.189  13.718  23.435  0.00  0.00    -0.004 A 
ENDBRANCH   1  20
TORSDOF 4
ENDMDL
MODEL 3
REMARK VINA RESULT:      -9.8      1.347      3.523
REMARK  4 active torsions:
REMARK  status: ('A' for Active; 'I' for Inactive)
REMARK    1  A    between atoms: C_6  and  C_1 
REMARK    2  A    between atoms: N_4  and  C_2 
REMARK       I    between atoms: C_3  and  N_4 
REMARK       I    between atoms: N_9  and  C_3 
REMARK    3  A    between atoms: C_15  and  N_9 
REMARK    4  A    between atoms: C_23  and  C_15 
ROOT
ATOM      1  C   UNL d   1     -47.626  11.961  23.339  0.00  0.00     0.040 A 
ATOM      2  C   UNL d   1     -48.710  12.412  23.006  0.00  0.00     0.109 A 
ATOM      3  C   UNL d   1     -47.690  12.559  23.052  0.00  0.00     0.035 A 
ATOM      4  C   UNL d   1     -47.054  11.537  23.602  0.00  0.00    -0.023 A 
ATOM      5  C   UNL d   1     -48.475  11.352  23.530  0.00  0.00     0.013 A 
ATOM      6  C   UNL d   1     -47.898  11.450  23.549  0.00  0.00    -0.011 A 
ATOM      7  C   UNL d   1     -49.253  11.245  23.493  0.00  0.00     0.025 A 
ATOM      8  C   UNL d   1     -47.984  12.156  23.208  0.00  0.00    -0.005 A 
ATOM      9  C   UNL d   1     -49.345  11.957  23.149  0.00  0.00     0.031 A 
ATOM     10  C   UNL d   1     -48.533  10.995  23.691  0.00  0.00    -0.027 A 
ENDROOT
BRANCH   2  11
ATOM     11  N   UNL d   1     -49.413  12.769  22.760  0.00  0.00    -0.217 NA
ATOM     12  C   UNL d   1     -49.640  13.495  23.073  0.00  0.00     0.360 C 
ATOM     13  N   UNL d   1     -50.339  13.857  22.833  0.00  0.00    -0.214 NA
ATOM     14  O   UNL d   1     -49.158  13.868  23.640  0.00  0.00    -0.243 OA
BRANCH  13  15
ATOM     15  C   UNL d   1     -50.570  14.590  23.149  0.00  0.00     0.147 C 
ATOM     16  C   UNL d   1     -51.050  14.108  23.624  0.00  0.00     0.033 C 
ATOM     17  C   UNL d   1     -50.088  15.064  22.672  0.00  0.00     0.033 C 
BRANCH  15  18
ATOM     18  C   UNL d   1     -50.804  15.317  23.469  0.00  0.00     0.229 C 
ATOM     19  O   UNL d   1     -51.063  15.921  22.966  0.00  0.00    -0.286 OA
ENDBRANCH  15  18
ENDBRANCH  13  15
ENDBRANCH   2  11
BRANCH   1  20
ATOM     20  C   UNL d   1     -47.142  12.576  23.105  0.00  0.00    -0.019 A 
ATOM     21  C   UNL d   1     -46.945  12.673  22.303  0.00  0.00    -0.004 A 
ATOM     22  C   UNL d   1     -46.457  13.293  22.064  0.00  0.00    -0.000 A 
ATOM     23  C   UNL d   1     -46.159  13.826  22.629  0.00  0.00    -0.000 A 
ATOM     24  C   UNL d   1     -46.358  13.726  23.424  0.00  0.00    -0.000 A 
ATOM     25  C   UNL d   1     -45.670  14.449  22.393  0.00  0.00    -0.000 C 
ATOM     26  C   UNL d   1     -46.846  13.105  23.663  0.00  0.00    -0.004 A 
ENDBRANCH   1  20
TORSDOF 4
ENDMDL
MODEL 4
REMARK VINA RESULT:      -8.1      1.579      4.196
REMARK  4 active torsions:
REMARK  status: ('A' for Active; 'I' for Inactive)
REMARK    1  A    between atoms: C_6  and  C_1 
REMARK    2  A    between atoms: N_4  and  C_2 
REMARK       I    between atoms: C_3  and  N_4 
REMARK       I    between atoms: N_9  and  C_3 
REMARK    3  A    between atoms: C_15  and  N_9 
REMARK    4  A    between atoms: C_23  and  C_15 
ROOT
ATOM      1  C   UNL d   1     -46.870  14.113  22.713  0.00  0.00     0.040 A 
ATOM      2  C   UNL d   1     -48.025  13.876  22.397  0.00  0.00     0.109 A 
ATOM      3  C   UNL d   1     -47.111  13.492  22.681  0.00  0.00     0.035 A 
ATOM      4  C   UNL d   1     -46.204  14.435  22.884  0.00  0.00    -0.023 A 
ATOM      5  C   UNL d   1     -47.483  14.950  22.488  0.00  0.00     0.013 A 
ATOM      6  C   UNL d   1     -46.971  14.717  22.648  0.00  0.00    -0.011 A 
ATOM      7  C   UNL d   1     -48.183  15.238  22.270  0.00  0.00     0.025 A 
ATOM      8  C   UNL d   1     -47.265  13.986  22.607  0.00  0.00    -0.005 A 
ATOM      9  C   UNL d   1     -48.484  14.502  22.228  0.00  0.00     0.031 A 
ATOM     10  C   UNL d   1     -47.430  15.342  22.479  0.00  0.00    -0.027 A 
ENDROOT
BRANCH   2  11
ATOM     11  N   UNL d   1     -48.793  13.655  22.190  0.00  0.00    -0.217 NA
ATOM     12  C   UNL d   1     -49.234  13.176  22.693  0.00  0.00     0.360 C 
ATOM     13  N   UNL d   1     -50.001  12.951  22.493  0.00  0.00    -0.214 NA
ATOM     14  O   UNL d   1     -48.904  12.917  23.410  0.00  0.00    -0.243 OA
BRANCH  13  15
ATOM     15  C   UNL d   1     -50.448  12.468  23.001  0.00  0.00     0.147 C 
ATOM     16  C   UNL d   1     -50.086  11.863  22.562  0.00  0.00     0.033 C 
ATOM     17  C   UNL d   1     -50.805  13.075  23.435  0.00  0.00     0.033 C 
BRANCH  15  18
ATOM     18  C   UNL d   1     -50.890  11.980  23.503  0.00  0.00     0.229 C 
ATOM     19  O   UNL d   1     -50.608  11.225  23.692  0.00  0.00    -0.286 OA
ENDBRANCH  15  18
ENDBRANCH  13  15
ENDBRANCH   2  11
BRANCH   1  20
ATOM     20  C   UNL d   1     -46.601  13.352  22.835  0.00  0.00    -0.019 A 
ATOM     21  C   UNL d   1     -46.746  12.966  23.557  0.00  0.00    -0.004 A 
ATOM     22  C   UNL d   1     -46.476  12.198  23.682  0.00  0.00    -0.000 A 
ATOM     23  C   UNL d   1     -46.055  11.804  23.082  0.00  0.00    -0.000 A 
ATOM     24  C   UNL d   1     -45.914  12.191  22.367  0.00  0.00    -0.000 A 
ATOM     25  C   UNL d   1     -45.783  11.033  23.205  0.00  0.00    -0.000 C 
ATOM     26  C   UNL d   1     -46.184  12.960  22.242  0.00  0.00    -0.004 A 
ENDBRANCH   1  20
TORSDOF 4
ENDMDL
MODEL 5
REMARK VINA RESULT:      -7.4      9.245     10.352
REMARK  4 active torsions:
REMARK  status: ('A' for Active; 'I' for Inactive)
REMARK    1  A    between atoms: C_6  and  C_1 
REMARK    2  A    between atoms: N_4  and  C_2 
REMARK       I    between atoms: C_3  and  N_4 
REMARK       I    between atoms: N_9  and  C_3 
REMARK    3  A    between atoms: C_15  and  N_9 
REMARK    4  A    between atoms: C_23  and  C_15 
ROOT
ATOM      1  C   UNL d   1     -40.226  15.270  20.199  0.00  0.00     0.040 A 
ATOM      2  C   UNL d   1     -40.226  14.591  19.184  0.00  0.00     0.109 A 
ATOM      3  C   UNL d   1     -39.867  14.711  20.143  0.00  0.00     0.035 A 
ATOM      4  C   UNL d   1     -40.343  15.797  20.732  0.00  0.00    -0.023 A 
ATOM      5  C   UNL d   1     -40.832  15.612  19.396  0.00  0.00     0.013 A 
ATOM      6  C   UNL d   1     -40.619  15.666  19.939  0.00  0.00    -0.011 A 
ATOM      7  C   UNL d   1     -41.103  15.516  18.664  0.00  0.00     0.025 A 
ATOM      8  C   UNL d   1     -40.198  15.004  19.864  0.00  0.00    -0.005 A 
ATOM      9  C   UNL d   1     -40.679  14.847  18.584  0.00  0.00     0.031 A 
ATOM     10  C   UNL d   1     -41.072  15.922  19.339  0.00  0.00    -0.027 A 
ENDROOT
BRANCH   2  11
ATOM     11  N   UNL d   1     -40.186  14.093  18.527  0.00  0.00    -0.217 NA
ATOM     12  C   UNL d   1     -39.475  13.992  18.128  0.00  0.00     0.360 C 
ATOM     13  N   UNL d   1     -39.427  13.496  17.472  0.00  0.00    -0.214 NA
ATOM     14  O   UNL d   1     -38.795  14.394  18.388  0.00  0.00    -0.243 OA
BRANCH  13  15
ATOM     15  C   UNL d   1     -38.707  13.394  17.067  0.00  0.00     0.147 C 
ATOM     16  C   UNL d   1     -38.674  12.705  17.530  0.00  0.00     0.033 C 
ATOM     17  C   UNL d   1     -38.748  14.082  16.610  0.00  0.00     0.033 C 
BRANCH  15  18
ATOM     18  C   UNL d   1     -37.990  13.285  16.669  0.00  0.00     0.229 C 
ATOM     19  O   UNL d   1     -37.940  12.722  16.063  0.00  0.00    -0.286 OA
ENDBRANCH  15  18
ENDBRANCH  13  15
ENDBRANCH   2  11
BRANCH   1  20
ATOM     20  C   UNL d   1     -39.713  14.832  20.658  0.00  0.00    -0.019 A 
ATOM     21  C   UNL d   1     -39.985  14.165  21.072  0.00  0.00    -0.004 A 
ATOM     22  C   UNL d   1     -39.468  13.721  21.536  0.00  0.00    -0.000 A 
ATOM     23  C   UNL d   1     -38.668  13.942  21.592  0.00  0.00    -0.000 A 
ATOM     24  C   UNL d   1     -38.402  14.605  21.179  0.00  0.00    -0.000 A 
ATOM     25  C   UNL d   1     -38.147  13.499  22.056  0.00  0.00    -0.000 C 
ATOM     26  C   UNL d   1     -38.920  15.049  20.714  0.00  0.00    -0.004 A 
ENDBRANCH   1  20
TORSDOF 4
ENDMDL
