MODEL 1
REMARK VINA RESULT:      49.8      0.000      0.000
REMARK  7 active torsions:
REMARK  status: ('A' for Active; 'I' for Inactive)
REMARK    1  A    between atoms: C_7  and  N_1 
REMARK    2  A    between atoms: S_15  and  C_3 
REMARK    3  A    between atoms: O_8  and  C_7 
REMARK    4  A    between atoms: C_10  and  O_8 
REMARK    5  A    between atoms: C_19  and  C_10 
REMARK    6  A    between atoms: C_13  and  O_14 
REMARK    7  A    between atoms: O_14  and  C_19 
ROOT
ATOM      1  O   UNL d   1     -49.566  27.424  34.195  0.00  0.00    -0.251 OA
ENDROOT
BRANCH   1   2
ATOM      2  C   UNL d   1     -49.786  27.098  33.469  0.00  0.00     0.215 C 
BRANCH   2   3
ATOM      3  N   UNL d   1     -50.443  26.597  33.419  0.00  0.00    -0.229 N 
ATOM      4  C   UNL d   1     -51.204  26.918  33.422  0.00  0.00     0.287 A 
ATOM      5  C   UNL d   1     -51.861  26.420  33.372  0.00  0.00     0.159 A 
ATOM      6  O   UNL d   1     -51.307  27.734  33.476  0.00  0.00    -0.265 OA
ATOM      7  C   UNL d   1     -52.624  26.754  33.377  0.00  0.00     0.028 C 
ATOM      8  N   UNL d   1     -51.757  25.604  33.318  0.00  0.00    -0.141 NA
ATOM      9  N   UNL d   1     -50.996  25.284  33.315  0.00  0.00    -0.123 NA
ATOM     10  C   UNL d   1     -50.339  25.780  33.365  0.00  0.00     0.200 A 
BRANCH  10  11
ATOM     11  S   UNL d   1     -49.578  25.461  33.362  0.00  0.00    -0.074 SA
ATOM     12  C   UNL d   1     -49.467  24.661  33.529  0.00  0.00     0.077 C 
ENDBRANCH  10  11
ENDBRANCH   2   3
ENDBRANCH   1   2
BRANCH   1  13
ATOM     13  C   UNL d   1     -48.809  27.738  34.294  0.00  0.00     0.327 C 
ATOM     14  O   UNL d   1     -48.157  27.234  34.344  0.00  0.00    -0.256 OA
BRANCH  13  15
ATOM     15  C   UNL d   1     -48.704  28.555  34.343  0.00  0.00     0.191 C 
BRANCH  15  16
ATOM     16  O   UNL d   1     -48.219  28.874  34.924  0.00  0.00    -0.299 OA
BRANCH  16  17
ATOM     17  C   UNL d   1     -48.054  29.682  34.927  0.00  0.00     0.111 A 
ATOM     18  C   UNL d   1     -47.495  29.987  35.441  0.00  0.00     0.081 A 
ATOM     19  C   UNL d   1     -47.330  30.795  35.444  0.00  0.00     0.025 A 
ATOM     20 CL   UNL d   1     -47.091  29.472  35.965  0.00  0.00    -0.080 Cl
ATOM     21  C   UNL d   1     -47.723  31.298  34.934  0.00  0.00     0.059 A 
ATOM     22  C   UNL d   1     -48.288  30.996  34.414  0.00  0.00     0.013 A 
ATOM     23 CL   UNL d   1     -47.555  32.106  34.941  0.00  0.00    -0.082 Cl
ATOM     24  C   UNL d   1     -48.453  30.187  34.410  0.00  0.00     0.026 A 
ENDBRANCH  16  17
ENDBRANCH  15  16
ENDBRANCH  13  15
ENDBRANCH   1  13
TORSDOF 7
ENDMDL
