MODEL 1
REMARK VINA RESULT:      -5.3      0.000      0.000
REMARK  5 active torsions:
REMARK  status: ('A' for Active; 'I' for Inactive)
REMARK    1  A    between atoms: C_12  and  N_3 
REMARK    2  A    between atoms: C_10  and  N_7 
REMARK    3  A    between atoms: C_11  and  C_10 
REMARK    4  A    between atoms: C_14  and  C_11 
REMARK    5  A    between atoms: C_19  and  C_12 
ROOT
ATOM      1  C   UNL d   1      58.513  -0.979  29.863  0.00  0.00     0.191 A 
ATOM      2  C   UNL d   1      58.757  -0.296  30.276  0.00  0.00     0.196 A 
ATOM      3  N   UNL d   1      59.092  -1.142  29.290  0.00  0.00    -0.191 N 
ATOM      4  N   UNL d   1      57.811  -1.346  30.066  0.00  0.00    -0.204 NA
ATOM      5  N   UNL d   1      59.481  -0.054  29.949  0.00  0.00    -0.122 NA
ATOM      6  N   UNL d   1      59.674  -0.571  29.354  0.00  0.00    -0.058 NA
ATOM      7  N   UNL d   1      57.582  -0.368  31.087  0.00  0.00    -0.251 N 
ATOM      8  C   UNL d   1      58.291  -0.001  30.880  0.00  0.00     0.289 A 
ATOM      9  C   UNL d   1      57.339  -1.051  30.674  0.00  0.00     0.187 A 
ATOM     10  O   UNL d   1      58.535   0.682  31.292  0.00  0.00    -0.265 OA
ENDROOT
BRANCH   7  11
ATOM     11  C   UNL d   1      57.104  -0.073  31.700  0.00  0.00     0.127 C 
BRANCH  11  12
ATOM     12  C   UNL d   1      56.661  -0.592  32.178  0.00  0.00     0.213 C 
ATOM     13  O   UNL d   1      56.647  -1.400  32.004  0.00  0.00    -0.285 OA
BRANCH  12  14
ATOM     14  C   UNL d   1      56.243  -0.295  32.819  0.00  0.00     0.041 A 
ATOM     15  C   UNL d   1      55.488  -0.587  32.992  0.00  0.00     0.004 A 
ATOM     16  C   UNL d   1      55.076  -0.290  33.628  0.00  0.00     0.011 A 
ATOM     17  C   UNL d   1      55.407   0.301  34.101  0.00  0.00     0.058 A 
ATOM     18  C   UNL d   1      56.162   0.594  33.928  0.00  0.00     0.011 A 
ATOM     19 CL   UNL d   1      54.984   0.605  34.751  0.00  0.00    -0.082 Cl
ATOM     20  C   UNL d   1      56.573   0.296  33.291  0.00  0.00     0.004 A 
ENDBRANCH  12  14
ENDBRANCH  11  12
ENDBRANCH   7  11
BRANCH   3  21
ATOM     21  C   UNL d   1      59.084  -1.776  28.743  0.00  0.00     0.104 C 
BRANCH  21  22
ATOM     22  C   UNL d   1      59.697  -2.340  28.754  0.00  0.00     0.019 A 
ATOM     23  C   UNL d   1      60.443  -2.154  28.455  0.00  0.00     0.002 A 
ATOM     24  C   UNL d   1      61.027  -2.716  28.475  0.00  0.00     0.000 A 
ATOM     25  C   UNL d   1      60.898  -3.460  28.782  0.00  0.00     0.000 A 
ATOM     26  C   UNL d   1      60.131  -3.651  29.089  0.00  0.00     0.000 A 
ATOM     27  C   UNL d   1      59.539  -3.084  29.070  0.00  0.00     0.002 A 
ENDBRANCH  21  22
ENDBRANCH   3  21
TORSDOF 5
ENDMDL
MODEL 2
REMARK VINA RESULT:      -4.8      2.167      5.592
REMARK  5 active torsions:
REMARK  status: ('A' for Active; 'I' for Inactive)
REMARK    1  A    between atoms: C_12  and  N_3 
REMARK    2  A    between atoms: C_10  and  N_7 
REMARK    3  A    between atoms: C_11  and  C_10 
REMARK    4  A    between atoms: C_14  and  C_11 
REMARK    5  A    between atoms: C_19  and  C_12 
ROOT
ATOM      1  C   UNL d   1      57.198  -0.647  31.226  0.00  0.00     0.191 A 
ATOM      2  C   UNL d   1      57.601  -0.047  30.810  0.00  0.00     0.196 A 
ATOM      3  N   UNL d   1      56.671  -0.276  31.750  0.00  0.00    -0.191 N 
ATOM      4  N   UNL d   1      57.367  -1.432  31.069  0.00  0.00    -0.204 NA
ATOM      5  N   UNL d   1      57.313   0.682  31.086  0.00  0.00    -0.122 NA
ATOM      6  N   UNL d   1      56.753   0.532  31.653  0.00  0.00    -0.058 NA
ATOM      7  N   UNL d   1      58.335  -1.038  30.089  0.00  0.00    -0.251 N 
ATOM      8  C   UNL d   1      58.161  -0.248  30.250  0.00  0.00     0.289 A 
ATOM      9  C   UNL d   1      57.932  -1.639  30.504  0.00  0.00     0.187 A 
ATOM     10  O   UNL d   1      58.563   0.353  29.834  0.00  0.00    -0.265 OA
ENDROOT
BRANCH   7  11
ATOM     11  C   UNL d   1      58.903  -1.250  29.520  0.00  0.00     0.127 C 
BRANCH  11  12
ATOM     12  C   UNL d   1      58.760  -1.880  28.994  0.00  0.00     0.213 C 
ATOM     13  O   UNL d   1      58.029  -1.939  28.613  0.00  0.00    -0.285 OA
BRANCH  12  14
ATOM     14  C   UNL d   1      59.348  -2.437  28.859  0.00  0.00     0.041 A 
ATOM     15  C   UNL d   1      60.105  -2.192  28.631  0.00  0.00     0.004 A 
ATOM     16  C   UNL d   1      60.686  -2.747  28.498  0.00  0.00     0.011 A 
ATOM     17  C   UNL d   1      60.524  -3.552  28.591  0.00  0.00     0.058 A 
ATOM     18  C   UNL d   1      59.767  -3.797  28.820  0.00  0.00     0.011 A 
ATOM     19 CL   UNL d   1      61.119  -4.119  28.455  0.00  0.00    -0.082 Cl
ATOM     20  C   UNL d   1      59.186  -3.241  28.952  0.00  0.00     0.004 A 
ENDBRANCH  12  14
ENDBRANCH  11  12
ENDBRANCH   7  11
BRANCH   3  21
ATOM     21  C   UNL d   1      56.149  -0.657  32.282  0.00  0.00     0.104 C 
BRANCH  21  22
ATOM     22  C   UNL d   1      55.943  -0.285  32.998  0.00  0.00     0.019 A 
ATOM     23  C   UNL d   1      56.506  -0.180  33.592  0.00  0.00     0.002 A 
ATOM     24  C   UNL d   1      56.286   0.184  34.283  0.00  0.00     0.000 A 
ATOM     25  C   UNL d   1      55.525   0.449  34.406  0.00  0.00     0.000 A 
ATOM     26  C   UNL d   1      54.947   0.341  33.795  0.00  0.00     0.000 A 
ATOM     27  C   UNL d   1      55.168  -0.027  33.096  0.00  0.00     0.002 A 
ENDBRANCH  21  22
ENDBRANCH   3  21
TORSDOF 5
ENDMDL
MODEL 3
REMARK VINA RESULT:      -2.3      2.255      5.312
REMARK  5 active torsions:
REMARK  status: ('A' for Active; 'I' for Inactive)
REMARK    1  A    between atoms: C_12  and  N_3 
REMARK    2  A    between atoms: C_10  and  N_7 
REMARK    3  A    between atoms: C_11  and  C_10 
REMARK    4  A    between atoms: C_14  and  C_11 
REMARK    5  A    between atoms: C_19  and  C_12 
ROOT
ATOM      1  C   UNL d   1      57.568   0.638  31.762  0.00  0.00     0.191 A 
ATOM      2  C   UNL d   1      58.373   0.661  31.979  0.00  0.00     0.196 A 
ATOM      3  N   UNL d   1      57.122   0.646  32.463  0.00  0.00    -0.191 N 
ATOM      4  N   UNL d   1      57.361   0.615  30.972  0.00  0.00    -0.204 NA
ATOM      5  N   UNL d   1      58.406   0.682  32.809  0.00  0.00    -0.122 NA
ATOM      6  N   UNL d   1      57.646   0.673  33.091  0.00  0.00    -0.058 NA
ATOM      7  N   UNL d   1      58.744   0.634  30.599  0.00  0.00    -0.251 N 
ATOM      8  C   UNL d   1      58.948   0.658  31.398  0.00  0.00     0.289 A 
ATOM      9  C   UNL d   1      57.939   0.612  30.383  0.00  0.00     0.187 A 
ATOM     10  O   UNL d   1      59.754   0.681  31.615  0.00  0.00    -0.265 OA
ENDROOT
BRANCH   7  11
ATOM     11  C   UNL d   1      59.324   0.632  30.003  0.00  0.00     0.127 C 
BRANCH  11  12
ATOM     12  C   UNL d   1      59.190   0.232  29.284  0.00  0.00     0.213 C 
ATOM     13  O   UNL d   1      58.603   0.501  28.769  0.00  0.00    -0.285 OA
BRANCH  12  14
ATOM     14  C   UNL d   1      59.643  -0.425  29.096  0.00  0.00     0.041 A 
ATOM     15  C   UNL d   1      59.296  -1.177  29.079  0.00  0.00     0.004 A 
ATOM     16  C   UNL d   1      59.749  -1.827  28.892  0.00  0.00     0.011 A 
ATOM     17  C   UNL d   1      60.553  -1.741  28.720  0.00  0.00     0.058 A 
ATOM     18  C   UNL d   1      60.901  -0.989  28.737  0.00  0.00     0.011 A 
ATOM     19 CL   UNL d   1      61.016  -2.407  28.529  0.00  0.00    -0.082 Cl
ATOM     20  C   UNL d   1      60.447  -0.340  28.924  0.00  0.00     0.004 A 
ENDBRANCH  12  14
ENDBRANCH  11  12
ENDBRANCH   7  11
BRANCH   3  21
ATOM     21  C   UNL d   1      56.287   0.630  32.521  0.00  0.00     0.104 C 
BRANCH  21  22
ATOM     22  C   UNL d   1      55.907  -0.034  32.849  0.00  0.00     0.019 A 
ATOM     23  C   UNL d   1      55.858  -0.740  32.425  0.00  0.00     0.002 A 
ATOM     24  C   UNL d   1      55.483  -1.377  32.761  0.00  0.00     0.000 A 
ATOM     25  C   UNL d   1      55.155  -1.338  33.506  0.00  0.00     0.000 A 
ATOM     26  C   UNL d   1      55.206  -0.612  33.941  0.00  0.00     0.000 A 
ATOM     27  C   UNL d   1      55.584   0.032  33.603  0.00  0.00     0.002 A 
ENDBRANCH  21  22
ENDBRANCH   3  21
TORSDOF 5
ENDMDL
