MODEL 1
REMARK VINA RESULT:      -7.4      0.000      0.000
REMARK  6 active torsions:
REMARK  status: ('A' for Active; 'I' for Inactive)
REMARK    1  A    between atoms: C_13  and  C_3 
REMARK    2  A    between atoms: N_16  and  C_4 
REMARK    3  A    between atoms: N_11  and  C_17 
REMARK    4  A    between atoms: C_20  and  N_16 
REMARK    5  A    between atoms: C_17  and  C_18 
REMARK    6  A    between atoms: C_18  and  C_20 
ROOT
ATOM      1  C   UNL d   1     -48.648  13.681  23.050  0.00  0.00     0.167 A 
ATOM      2  N   UNL d   1     -47.854  13.471  22.974  0.00  0.00    -0.195 N 
ATOM      3  C   UNL d   1     -48.718  14.472  22.855  0.00  0.00     0.057 A 
ATOM      4  C   UNL d   1     -47.614  12.701  23.136  0.00  0.00     0.167 A 
ATOM      5  N   UNL d   1     -47.442  14.135  22.731  0.00  0.00    -0.161 NA
ATOM      6  N   UNL d   1     -49.200  13.119  23.289  0.00  0.00    -0.227 NA
ATOM      7  C   UNL d   1     -48.172  12.138  23.376  0.00  0.00     0.058 A 
ATOM      8  C   UNL d   1     -47.967  14.749  22.657  0.00  0.00     0.124 A 
ATOM      9  C   UNL d   1     -48.957  12.345  23.452  0.00  0.00     0.086 A 
ATOM     10  C   UNL d   1     -49.495  11.766  23.693  0.00  0.00     0.021 C 
ENDROOT
BRANCH   4  11
ATOM     11  N   UNL d   1     -46.821  12.491  23.059  0.00  0.00    -0.225 NA
BRANCH  11  12
ATOM     12  C   UNL d   1     -46.484  11.954  23.584  0.00  0.00     0.102 C 
BRANCH  12  13
ATOM     13  C   UNL d   1     -45.694  11.711  23.482  0.00  0.00     0.040 C 
BRANCH  13  14
ATOM     14  C   UNL d   1     -45.501  10.915  23.538  0.00  0.00     0.083 C 
BRANCH  14  15
ATOM     15  N   UNL d   1     -44.715  10.672  23.432  0.00  0.00    -0.285 N 
ATOM     16  C   UNL d   1     -44.047  11.052  23.109  0.00  0.00     0.183 A 
ATOM     17  N   UNL d   1     -43.420  10.538  23.152  0.00  0.00    -0.222 NA
ATOM     18  C   UNL d   1     -43.674   9.838  23.494  0.00  0.00     0.120 A 
ATOM     19  C   UNL d   1     -44.477   9.919  23.668  0.00  0.00     0.102 A 
ENDBRANCH  14  15
ENDBRANCH  13  14
ENDBRANCH  12  13
ENDBRANCH  11  12
ENDBRANCH   4  11
BRANCH   3  20
ATOM     20  C   UNL d   1     -49.455  14.849  22.878  0.00  0.00     0.004 A 
ATOM     21  C   UNL d   1     -49.992  14.727  22.260  0.00  0.00     0.000 A 
ATOM     22  C   UNL d   1     -50.724  15.097  22.277  0.00  0.00     0.000 A 
ATOM     23  C   UNL d   1     -50.927  15.595  22.913  0.00  0.00     0.000 A 
ATOM     24  C   UNL d   1     -50.386  15.710  23.524  0.00  0.00     0.000 A 
ATOM     25  C   UNL d   1     -49.650  15.336  23.504  0.00  0.00     0.000 A 
ENDBRANCH   3  20
TORSDOF 6
ENDMDL
MODEL 2
REMARK VINA RESULT:      -6.5      1.479      1.862
REMARK  6 active torsions:
REMARK  status: ('A' for Active; 'I' for Inactive)
REMARK    1  A    between atoms: C_13  and  C_3 
REMARK    2  A    between atoms: N_16  and  C_4 
REMARK    3  A    between atoms: N_11  and  C_17 
REMARK    4  A    between atoms: C_20  and  N_16 
REMARK    5  A    between atoms: C_17  and  C_18 
REMARK    6  A    between atoms: C_18  and  C_20 
ROOT
ATOM      1  C   UNL d   1     -48.251  13.948  23.018  0.00  0.00     0.167 A 
ATOM      2  N   UNL d   1     -47.439  14.019  22.897  0.00  0.00    -0.195 N 
ATOM      3  C   UNL d   1     -48.596  14.666  22.829  0.00  0.00     0.057 A 
ATOM      4  C   UNL d   1     -46.944  13.377  23.042  0.00  0.00     0.167 A 
ATOM      5  N   UNL d   1     -47.290  14.779  22.635  0.00  0.00    -0.161 NA
ATOM      6  N   UNL d   1     -48.568  13.236  23.284  0.00  0.00    -0.227 NA
ATOM      7  C   UNL d   1     -47.265  12.662  23.310  0.00  0.00     0.058 A 
ATOM      8  C   UNL d   1     -47.994  15.178  22.592  0.00  0.00     0.124 A 
ATOM      9  C   UNL d   1     -48.068  12.592  23.430  0.00  0.00     0.086 A 
ATOM     10  C   UNL d   1     -48.365  11.869  23.698  0.00  0.00     0.021 C 
ENDROOT
BRANCH   4  11
ATOM     11  N   UNL d   1     -46.132  13.448  22.921  0.00  0.00    -0.225 NA
BRANCH  11  12
ATOM     12  C   UNL d   1     -45.764  13.009  22.329  0.00  0.00     0.102 C 
BRANCH  12  13
ATOM     13  C   UNL d   1     -44.932  12.964  22.300  0.00  0.00     0.040 C 
BRANCH  13  14
ATOM     14  C   UNL d   1     -44.556  12.827  21.583  0.00  0.00     0.083 C 
BRANCH  14  15
ATOM     15  N   UNL d   1     -43.732  12.746  21.559  0.00  0.00    -0.285 N 
ATOM     16  C   UNL d   1     -43.214  12.155  21.838  0.00  0.00     0.183 A 
ATOM     17  N   UNL d   1     -42.455  12.377  21.655  0.00  0.00    -0.222 NA
ATOM     18  C   UNL d   1     -42.477  13.098  21.265  0.00  0.00     0.120 A 
ATOM     19  C   UNL d   1     -43.267  13.328  21.205  0.00  0.00     0.102 A 
ENDBRANCH  14  15
ENDBRANCH  13  14
ENDBRANCH  12  13
ENDBRANCH  11  12
ENDBRANCH   4  11
BRANCH   3  20
ATOM     20  C   UNL d   1     -49.415  14.771  22.895  0.00  0.00     0.004 A 
ATOM     21  C   UNL d   1     -49.725  15.113  23.582  0.00  0.00     0.000 A 
ATOM     22  C   UNL d   1     -50.536  15.221  23.653  0.00  0.00     0.000 A 
ATOM     23  C   UNL d   1     -51.045  14.987  23.037  0.00  0.00     0.000 A 
ATOM     24  C   UNL d   1     -50.726  14.647  22.357  0.00  0.00     0.000 A 
ATOM     25  C   UNL d   1     -49.911  14.540  22.288  0.00  0.00     0.000 A 
ENDBRANCH   3  20
TORSDOF 6
ENDMDL
