MODEL 1
REMARK VINA RESULT:      -7.1      0.000      0.000
REMARK  4 active torsions:
REMARK  status: ('A' for Active; 'I' for Inactive)
REMARK    1  A    between atoms: C_2  and  C_1 
REMARK       I    between atoms: N_9  and  C_2 
REMARK    2  A    between atoms: N_4  and  C_14 
REMARK    3  A    between atoms: C_13  and  N_9 
REMARK    4  A    between atoms: C_14  and  C_13 
ROOT
ATOM      1  C   UNL d   1     -49.336  11.646  23.410  0.00  0.00     0.281 C 
ATOM      2  O   UNL d   1     -49.799  11.028  23.696  0.00  0.00    -0.265 OA
ATOM      3  N   UNL d   1     -48.538  11.701  23.613  0.00  0.00    -0.205 NA
ENDROOT
BRANCH   1   4
ATOM      4  C   UNL d   1     -49.676  12.220  22.912  0.00  0.00     0.077 A 
ATOM      5  C   UNL d   1     -50.026  12.892  23.239  0.00  0.00     0.105 A 
ATOM      6  N   UNL d   1     -50.362  13.460  22.750  0.00  0.00    -0.233 NA
ATOM      7  C   UNL d   1     -50.351  13.359  21.929  0.00  0.00     0.139 A 
ATOM      8  C   UNL d   1     -50.003  12.691  21.601  0.00  0.00     0.031 A 
ATOM      9 CL   UNL d   1     -50.690  13.933  21.427  0.00  0.00    -0.061 Cl
ATOM     10  C   UNL d   1     -49.665  12.119  22.091  0.00  0.00     0.009 A 
ENDBRANCH   1   4
BRANCH   3  11
ATOM     11  C   UNL d   1     -48.075  12.318  23.327  0.00  0.00     0.121 C 
BRANCH  11  12
ATOM     12  C   UNL d   1     -47.323  12.452  23.629  0.00  0.00     0.101 C 
BRANCH  12  13
ATOM     13  N   UNL d   1     -46.792  12.928  23.218  0.00  0.00    -0.298 N 
ATOM     14  C   UNL d   1     -46.829  13.744  23.291  0.00  0.00     0.107 A 
ATOM     15  C   UNL d   1     -46.293  14.225  22.876  0.00  0.00     0.142 A 
ATOM     16  O   UNL d   1     -45.725  13.884  22.390  0.00  0.00    -0.300 OA
ATOM     17  C   UNL d   1     -45.685  13.059  22.313  0.00  0.00     0.142 A 
ATOM     18  C   UNL d   1     -46.221  12.579  22.728  0.00  0.00     0.107 A 
ENDBRANCH  12  13
ENDBRANCH  11  12
ENDBRANCH   3  11
TORSDOF 4
ENDMDL
MODEL 2
REMARK VINA RESULT:      -6.9      2.002      3.441
REMARK  4 active torsions:
REMARK  status: ('A' for Active; 'I' for Inactive)
REMARK    1  A    between atoms: C_2  and  C_1 
REMARK       I    between atoms: N_9  and  C_2 
REMARK    2  A    between atoms: N_4  and  C_14 
REMARK    3  A    between atoms: C_13  and  N_9 
REMARK    4  A    between atoms: C_14  and  C_13 
ROOT
ATOM      1  C   UNL d   1     -48.334  11.854  23.261  0.00  0.00     0.281 C 
ATOM      2  O   UNL d   1     -48.243  11.038  23.307  0.00  0.00    -0.265 OA
ATOM      3  N   UNL d   1     -49.073  12.201  23.383  0.00  0.00    -0.205 NA
ENDROOT
BRANCH   1   4
ATOM      4  C   UNL d   1     -47.675  12.334  23.090  0.00  0.00     0.077 A 
ATOM      5  C   UNL d   1     -47.167  12.564  23.698  0.00  0.00     0.105 A 
ATOM      6  N   UNL d   1     -46.517  13.038  23.532  0.00  0.00    -0.233 NA
ATOM      7  C   UNL d   1     -46.370  13.285  22.756  0.00  0.00     0.139 A 
ATOM      8  C   UNL d   1     -46.875  13.057  22.149  0.00  0.00     0.031 A 
ATOM      9 CL   UNL d   1     -45.711  13.766  22.581  0.00  0.00    -0.061 Cl
ATOM     10  C   UNL d   1     -47.529  12.581  22.314  0.00  0.00     0.009 A 
ENDBRANCH   1   4
BRANCH   3  11
ATOM     11  C   UNL d   1     -49.165  13.018  23.337  0.00  0.00     0.121 C 
BRANCH  11  12
ATOM     12  C   UNL d   1     -49.863  13.374  23.580  0.00  0.00     0.101 C 
BRANCH  12  13
ATOM     13  N   UNL d   1     -50.068  14.117  23.291  0.00  0.00    -0.298 N 
ATOM     14  C   UNL d   1     -49.834  14.794  23.693  0.00  0.00     0.107 A 
ATOM     15  C   UNL d   1     -50.040  15.544  23.401  0.00  0.00     0.142 A 
ATOM     16  O   UNL d   1     -50.480  15.612  22.711  0.00  0.00    -0.300 OA
ATOM     17  C   UNL d   1     -50.720  14.931  22.303  0.00  0.00     0.142 A 
ATOM     18  C   UNL d   1     -50.513  14.181  22.594  0.00  0.00     0.107 A 
ENDBRANCH  12  13
ENDBRANCH  11  12
ENDBRANCH   3  11
TORSDOF 4
ENDMDL
MODEL 3
REMARK VINA RESULT:      -6.7      1.606      2.101
REMARK  4 active torsions:
REMARK  status: ('A' for Active; 'I' for Inactive)
REMARK    1  A    between atoms: C_2  and  C_1 
REMARK       I    between atoms: N_9  and  C_2 
REMARK    2  A    between atoms: N_4  and  C_14 
REMARK    3  A    between atoms: C_13  and  N_9 
REMARK    4  A    between atoms: C_14  and  C_13 
ROOT
ATOM      1  C   UNL d   1     -49.246  14.933  22.467  0.00  0.00     0.281 C 
ATOM      2  O   UNL d   1     -49.690  15.593  22.254  0.00  0.00    -0.265 OA
ATOM      3  N   UNL d   1     -48.426  14.988  22.548  0.00  0.00    -0.205 NA
ENDROOT
BRANCH   1   4
ATOM      4  C   UNL d   1     -49.626  14.205  22.601  0.00  0.00     0.077 A 
ATOM      5  C   UNL d   1     -49.887  14.013  23.360  0.00  0.00     0.105 A 
ATOM      6  N   UNL d   1     -50.263  13.295  23.496  0.00  0.00    -0.233 NA
ATOM      7  C   UNL d   1     -50.380  12.764  22.873  0.00  0.00     0.139 A 
ATOM      8  C   UNL d   1     -50.121  12.953  22.116  0.00  0.00     0.031 A 
ATOM      9 CL   UNL d   1     -50.761  12.033  23.004  0.00  0.00    -0.061 Cl
ATOM     10  C   UNL d   1     -49.743  13.674  21.978  0.00  0.00     0.009 A 
ENDBRANCH   1   4
BRANCH   3  11
ATOM     11  C   UNL d   1     -47.981  14.329  22.761  0.00  0.00     0.121 C 
BRANCH  11  12
ATOM     12  C   UNL d   1     -47.196  14.410  22.987  0.00  0.00     0.101 C 
BRANCH  12  13
ATOM     13  N   UNL d   1     -46.682  13.770  22.926  0.00  0.00    -0.298 N 
ATOM     14  C   UNL d   1     -46.728  13.152  23.464  0.00  0.00     0.107 A 
ATOM     15  C   UNL d   1     -46.209  12.506  23.403  0.00  0.00     0.142 A 
ATOM     16  O   UNL d   1     -45.649  12.483  22.803  0.00  0.00    -0.300 OA
ATOM     17  C   UNL d   1     -45.599  13.105  22.257  0.00  0.00     0.142 A 
ATOM     18  C   UNL d   1     -46.118  13.751  22.318  0.00  0.00     0.107 A 
ENDBRANCH  12  13
ENDBRANCH  11  12
ENDBRANCH   3  11
TORSDOF 4
ENDMDL
MODEL 4
REMARK VINA RESULT:      -6.6      1.642      3.620
REMARK  4 active torsions:
REMARK  status: ('A' for Active; 'I' for Inactive)
REMARK    1  A    between atoms: C_2  and  C_1 
REMARK       I    between atoms: N_9  and  C_2 
REMARK    2  A    between atoms: N_4  and  C_14 
REMARK    3  A    between atoms: C_13  and  N_9 
REMARK    4  A    between atoms: C_14  and  C_13 
ROOT
ATOM      1  C   UNL d   1     -46.752  11.601  23.382  0.00  0.00     0.281 C 
ATOM      2  O   UNL d   1     -46.154  11.132  23.698  0.00  0.00    -0.265 OA
ATOM      3  N   UNL d   1     -47.509  11.293  23.266  0.00  0.00    -0.205 NA
ENDROOT
BRANCH   1   4
ATOM      4  C   UNL d   1     -46.592  12.392  23.178  0.00  0.00     0.077 A 
ATOM      5  C   UNL d   1     -46.808  13.000  23.694  0.00  0.00     0.105 A 
ATOM      6  N   UNL d   1     -46.651  13.782  23.495  0.00  0.00    -0.233 NA
ATOM      7  C   UNL d   1     -46.277  13.961  22.779  0.00  0.00     0.139 A 
ATOM      8  C   UNL d   1     -46.061  13.357  22.265  0.00  0.00     0.031 A 
ATOM      9 CL   UNL d   1     -46.116  14.753  22.572  0.00  0.00    -0.061 Cl
ATOM     10  C   UNL d   1     -46.218  12.572  22.463  0.00  0.00     0.009 A 
ENDBRANCH   1   4
BRANCH   3  11
ATOM     11  C   UNL d   1     -48.107  11.761  22.950  0.00  0.00     0.121 C 
BRANCH  11  12
ATOM     12  C   UNL d   1     -48.836  11.436  22.758  0.00  0.00     0.101 C 
BRANCH  12  13
ATOM     13  N   UNL d   1     -49.472  11.927  22.578  0.00  0.00    -0.298 N 
ATOM     14  C   UNL d   1     -49.567  12.215  21.815  0.00  0.00     0.107 A 
ATOM     15  C   UNL d   1     -50.208  12.711  21.633  0.00  0.00     0.142 A 
ATOM     16  O   UNL d   1     -50.750  12.914  22.215  0.00  0.00    -0.300 OA
ATOM     17  C   UNL d   1     -50.658  12.625  22.988  0.00  0.00     0.142 A 
ATOM     18  C   UNL d   1     -50.017  12.130  23.170  0.00  0.00     0.107 A 
ENDBRANCH  12  13
ENDBRANCH  11  12
ENDBRANCH   3  11
TORSDOF 4
ENDMDL
MODEL 5
REMARK VINA RESULT:      -6.5      1.768      4.058
REMARK  4 active torsions:
REMARK  status: ('A' for Active; 'I' for Inactive)
REMARK    1  A    between atoms: C_2  and  C_1 
REMARK       I    between atoms: N_9  and  C_2 
REMARK    2  A    between atoms: N_4  and  C_14 
REMARK    3  A    between atoms: C_13  and  N_9 
REMARK    4  A    between atoms: C_14  and  C_13 
ROOT
ATOM      1  C   UNL d   1     -47.029  14.698  22.656  0.00  0.00     0.281 C 
ATOM      2  O   UNL d   1     -46.548  15.361  22.575  0.00  0.00    -0.265 OA
ATOM      3  N   UNL d   1     -47.850  14.767  22.605  0.00  0.00    -0.205 NA
ENDROOT
BRANCH   1   4
ATOM      4  C   UNL d   1     -46.685  13.952  22.790  0.00  0.00     0.077 A 
ATOM      5  C   UNL d   1     -46.584  13.680  23.563  0.00  0.00     0.105 A 
ATOM      6  N   UNL d   1     -46.245  12.944  23.698  0.00  0.00    -0.233 NA
ATOM      7  C   UNL d   1     -46.005  12.475  23.061  0.00  0.00     0.139 A 
ATOM      8  C   UNL d   1     -46.105  12.743  22.291  0.00  0.00     0.031 A 
ATOM      9 CL   UNL d   1     -45.660  11.726  23.192  0.00  0.00    -0.061 Cl
ATOM     10  C   UNL d   1     -46.445  13.482  22.153  0.00  0.00     0.009 A 
ENDBRANCH   1   4
BRANCH   3  11
ATOM     11  C   UNL d   1     -48.332  14.105  22.686  0.00  0.00     0.121 C 
BRANCH  11  12
ATOM     12  C   UNL d   1     -49.149  14.182  22.700  0.00  0.00     0.101 C 
BRANCH  12  13
ATOM     13  N   UNL d   1     -49.627  13.515  22.634  0.00  0.00    -0.298 N 
ATOM     14  C   UNL d   1     -49.834  13.228  21.894  0.00  0.00     0.107 A 
ATOM     15  C   UNL d   1     -50.316  12.554  21.827  0.00  0.00     0.142 A 
ATOM     16  O   UNL d   1     -50.587  12.173  22.502  0.00  0.00    -0.300 OA
ATOM     17  C   UNL d   1     -50.381  12.460  23.252  0.00  0.00     0.142 A 
ATOM     18  C   UNL d   1     -49.899  13.133  23.319  0.00  0.00     0.107 A 
ENDBRANCH  12  13
ENDBRANCH  11  12
ENDBRANCH   3  11
TORSDOF 4
ENDMDL
MODEL 6
REMARK VINA RESULT:      -6.3      1.586      2.032
REMARK  4 active torsions:
REMARK  status: ('A' for Active; 'I' for Inactive)
REMARK    1  A    between atoms: C_2  and  C_1 
REMARK       I    between atoms: N_9  and  C_2 
REMARK    2  A    between atoms: N_4  and  C_14 
REMARK    3  A    between atoms: C_13  and  N_9 
REMARK    4  A    between atoms: C_14  and  C_13 
ROOT
ATOM      1  C   UNL d   1     -50.166  13.194  21.815  0.00  0.00     0.281 C 
ATOM      2  O   UNL d   1     -50.849  12.945  21.428  0.00  0.00    -0.265 OA
ATOM      3  N   UNL d   1     -49.462  12.771  21.737  0.00  0.00    -0.205 NA
ENDROOT
BRANCH   1   4
ATOM      4  C   UNL d   1     -50.187  13.879  22.288  0.00  0.00     0.077 A 
ATOM      5  C   UNL d   1     -49.968  14.606  21.966  0.00  0.00     0.105 A 
ATOM      6  N   UNL d   1     -49.987  15.284  22.430  0.00  0.00    -0.233 NA
ATOM      7  C   UNL d   1     -50.225  15.237  23.221  0.00  0.00     0.139 A 
ATOM      8  C   UNL d   1     -50.444  14.514  23.544  0.00  0.00     0.031 A 
ATOM      9 CL   UNL d   1     -50.247  15.922  23.698  0.00  0.00    -0.061 Cl
ATOM     10  C   UNL d   1     -50.425  13.833  23.079  0.00  0.00     0.009 A 
ENDBRANCH   1   4
BRANCH   3  11
ATOM     11  C   UNL d   1     -48.779  13.019  22.124  0.00  0.00     0.121 C 
BRANCH  11  12
ATOM     12  C   UNL d   1     -48.067  12.627  22.009  0.00  0.00     0.101 C 
BRANCH  12  13
ATOM     13  N   UNL d   1     -47.443  12.746  22.532  0.00  0.00    -0.298 N 
ATOM     14  C   UNL d   1     -46.934  13.382  22.429  0.00  0.00     0.107 A 
ATOM     15  C   UNL d   1     -46.304  13.502  22.957  0.00  0.00     0.142 A 
ATOM     16  O   UNL d   1     -46.187  12.985  23.584  0.00  0.00    -0.300 OA
ATOM     17  C   UNL d   1     -46.698  12.340  23.692  0.00  0.00     0.142 A 
ATOM     18  C   UNL d   1     -47.329  12.220  23.164  0.00  0.00     0.107 A 
ENDBRANCH  12  13
ENDBRANCH  11  12
ENDBRANCH   3  11
TORSDOF 4
ENDMDL
MODEL 7
REMARK VINA RESULT:      -5.2      9.256     10.141
REMARK  4 active torsions:
REMARK  status: ('A' for Active; 'I' for Inactive)
REMARK    1  A    between atoms: C_2  and  C_1 
REMARK       I    between atoms: N_9  and  C_2 
REMARK    2  A    between atoms: N_4  and  C_14 
REMARK    3  A    between atoms: C_13  and  N_9 
REMARK    4  A    between atoms: C_14  and  C_13 
ROOT
ATOM      1  C   UNL d   1     -40.787  15.107  17.552  0.00  0.00     0.281 C 
ATOM      2  O   UNL d   1     -41.317  15.200  16.929  0.00  0.00    -0.265 OA
ATOM      3  N   UNL d   1     -40.889  15.526  18.256  0.00  0.00    -0.205 NA
ENDROOT
BRANCH   1   4
ATOM      4  C   UNL d   1     -40.143  14.585  17.472  0.00  0.00     0.077 A 
ATOM      5  C   UNL d   1     -40.195  13.820  17.776  0.00  0.00     0.105 A 
ATOM      6  N   UNL d   1     -39.561  13.303  17.698  0.00  0.00    -0.233 NA
ATOM      7  C   UNL d   1     -38.871  13.549  17.315  0.00  0.00     0.139 A 
ATOM      8  C   UNL d   1     -38.816  14.311  17.012  0.00  0.00     0.031 A 
ATOM      9 CL   UNL d   1     -38.223  13.029  17.233  0.00  0.00    -0.061 Cl
ATOM     10  C   UNL d   1     -39.452  14.831  17.089  0.00  0.00     0.009 A 
ENDBRANCH   1   4
BRANCH   3  11
ATOM     11  C   UNL d   1     -40.360  15.434  18.879  0.00  0.00     0.121 C 
BRANCH  11  12
ATOM     12  C   UNL d   1     -40.402  15.919  19.540  0.00  0.00     0.101 C 
BRANCH  12  13
ATOM     13  N   UNL d   1     -40.010  15.707  20.232  0.00  0.00    -0.298 N 
ATOM     14  C   UNL d   1     -40.404  15.285  20.816  0.00  0.00     0.107 A 
ATOM     15  C   UNL d   1     -40.008  15.071  21.515  0.00  0.00     0.142 A 
ATOM     16  O   UNL d   1     -39.222  15.281  21.624  0.00  0.00    -0.300 OA
ATOM     17  C   UNL d   1     -38.820  15.708  21.037  0.00  0.00     0.142 A 
ATOM     18  C   UNL d   1     -39.216  15.922  20.338  0.00  0.00     0.107 A 
ENDBRANCH  12  13
ENDBRANCH  11  12
ENDBRANCH   3  11
TORSDOF 4
ENDMDL
