MODEL 1
REMARK VINA RESULT:       8.2      0.000      0.000
REMARK  2 active torsions:
REMARK  status: ('A' for Active; 'I' for Inactive)
REMARK    1  A    between atoms: C_6  and  N_2 
REMARK    2  A    between atoms: C_4  and  C_6 
ROOT
ATOM      1  C   UNL d   1     -51.428  23.665  33.524  0.00  0.00     0.206 A 
ATOM      2  N   UNL d   1     -51.501  24.470  33.377  0.00  0.00    -0.277 N 
ATOM      3  N   UNL d   1     -52.192  23.344  33.551  0.00  0.00    -0.215 NA
ATOM      4  C   UNL d   1     -52.732  23.960  33.420  0.00  0.00     0.120 A 
ATOM      5  C   UNL d   1     -52.304  24.657  33.312  0.00  0.00     0.103 A 
ATOM      6  S   UNL d   1     -50.724  23.248  33.626  0.00  0.00    -0.038 SA
ENDROOT
BRANCH   2   7
ATOM      7  C   UNL d   1     -50.875  25.008  33.306  0.00  0.00     0.107 C 
BRANCH   7   8
ATOM      8  C   UNL d   1     -51.023  25.820  33.337  0.00  0.00     0.118 A 
ATOM      9  O   UNL d   1     -51.769  26.180  33.378  0.00  0.00    -0.304 OA
ATOM     10  C   UNL d   1     -51.657  26.992  33.399  0.00  0.00     0.123 A 
ATOM     11  C   UNL d   1     -50.845  27.141  33.371  0.00  0.00     0.029 A 
ATOM     12  C   UNL d   1     -50.457  26.416  33.333  0.00  0.00     0.028 A 
ENDBRANCH   7   8
ENDBRANCH   2   7
TORSDOF 2
ENDMDL
MODEL 2
REMARK VINA RESULT:       8.9      1.492      2.746
REMARK  2 active torsions:
REMARK  status: ('A' for Active; 'I' for Inactive)
REMARK    1  A    between atoms: C_6  and  N_2 
REMARK    2  A    between atoms: C_4  and  C_6 
ROOT
ATOM      1  C   UNL d   1     -50.802  25.383  33.370  0.00  0.00     0.206 A 
ATOM      2  N   UNL d   1     -51.412  24.833  33.330  0.00  0.00    -0.277 N 
ATOM      3  N   UNL d   1     -50.086  24.966  33.371  0.00  0.00    -0.215 NA
ATOM      4  C   UNL d   1     -50.263  24.157  33.331  0.00  0.00     0.120 A 
ATOM      5  C   UNL d   1     -51.084  24.075  33.306  0.00  0.00     0.103 A 
ATOM      6  S   UNL d   1     -50.885  26.203  33.403  0.00  0.00    -0.038 SA
ENDROOT
BRANCH   2   7
ATOM      7  C   UNL d   1     -52.221  25.007  33.316  0.00  0.00     0.107 C 
BRANCH   7   8
ATOM      8  C   UNL d   1     -52.775  24.403  33.411  0.00  0.00     0.118 A 
ATOM      9  O   UNL d   1     -53.595  24.470  33.307  0.00  0.00    -0.304 OA
ATOM     10  C   UNL d   1     -53.930  23.736  33.458  0.00  0.00     0.123 A 
ATOM     11  C   UNL d   1     -53.323  23.212  33.655  0.00  0.00     0.029 A 
ATOM     12  C   UNL d   1     -52.612  23.626  33.625  0.00  0.00     0.028 A 
ENDBRANCH   7   8
ENDBRANCH   2   7
TORSDOF 2
ENDMDL
