MODEL 1
REMARK VINA RESULT:      -4.8      0.000      0.000
REMARK  4 active torsions:
REMARK  status: ('A' for Active; 'I' for Inactive)
REMARK    1  A    between atoms: C_3  and  C_1 
REMARK    2  A    between atoms: C_4  and  C_3 
REMARK    3  A    between atoms: C_7  and  C_4 
REMARK    4  A    between atoms: C_14  and  C_7 
ROOT
ATOM      1  C   UNL d   1      58.258  -0.551  30.257  0.00  0.00     0.042 C 
ENDROOT
BRANCH   1   2
ATOM      2  C   UNL d   1      58.499  -0.654  29.468  0.00  0.00     0.199 C 
ATOM      3  O   UNL d   1      58.281  -0.071  28.876  0.00  0.00    -0.286 OA
BRANCH   2   4
ATOM      4  C   UNL d   1      58.932  -1.299  29.272  0.00  0.00     0.078 A 
ATOM      5  C   UNL d   1      59.739  -1.237  29.110  0.00  0.00     0.199 A 
ATOM      6  C   UNL d   1      60.172  -1.905  28.910  0.00  0.00     0.042 A 
ATOM      7  O   UNL d   1      60.133  -0.493  29.146  0.00  0.00    -0.286 OA
ATOM      8  C   UNL d   1      59.800  -2.641  28.871  0.00  0.00     0.003 A 
ATOM      9  C   UNL d   1      58.993  -2.704  29.033  0.00  0.00     0.000 A 
ATOM     10  C   UNL d   1      60.233  -3.310  28.671  0.00  0.00     0.000 C 
ATOM     11  C   UNL d   1      58.559  -2.030  29.234  0.00  0.00     0.006 A 
ENDBRANCH   2   4
ENDBRANCH   1   2
BRANCH   1  12
ATOM     12  C   UNL d   1      57.748   0.068  30.460  0.00  0.00     0.003 C 
BRANCH  12  13
ATOM     13  C   UNL d   1      57.487   0.145  31.235  0.00  0.00     0.002 A 
ATOM     14  C   UNL d   1      56.798  -0.242  31.477  0.00  0.00     0.027 A 
ATOM     15  C   UNL d   1      56.537  -0.166  32.252  0.00  0.00     0.123 A 
ATOM     16  O   UNL d   1      55.844  -0.554  32.498  0.00  0.00    -0.301 OA
ATOM     17  C   UNL d   1      56.960   0.297  32.789  0.00  0.00     0.123 A 
ATOM     18  C   UNL d   1      55.578  -0.479  33.278  0.00  0.00     0.149 A 
ATOM     19  C   UNL d   1      56.001  -0.016  33.814  0.00  0.00     0.149 A 
ATOM     20  O   UNL d   1      56.690   0.370  33.572  0.00  0.00    -0.301 OA
ATOM     21  C   UNL d   1      57.644   0.682  32.550  0.00  0.00     0.027 A 
ATOM     22  C   UNL d   1      57.910   0.607  31.772  0.00  0.00     0.002 A 
ENDBRANCH  12  13
ENDBRANCH   1  12
TORSDOF 4
ENDMDL
MODEL 2
REMARK VINA RESULT:      -4.7      1.505      4.911
REMARK  4 active torsions:
REMARK  status: ('A' for Active; 'I' for Inactive)
REMARK    1  A    between atoms: C_3  and  C_1 
REMARK    2  A    between atoms: C_4  and  C_3 
REMARK    3  A    between atoms: C_7  and  C_4 
REMARK    4  A    between atoms: C_14  and  C_7 
ROOT
ATOM      1  C   UNL d   1      57.267  -0.168  31.475  0.00  0.00     0.042 C 
ENDROOT
BRANCH   1   2
ATOM      2  C   UNL d   1      56.682  -0.666  31.795  0.00  0.00     0.199 C 
ATOM      3  O   UNL d   1      56.566  -1.452  31.469  0.00  0.00    -0.286 OA
BRANCH   2   4
ATOM      4  C   UNL d   1      56.235  -0.402  32.405  0.00  0.00     0.078 A 
ATOM      5  C   UNL d   1      55.988  -0.913  33.003  0.00  0.00     0.199 A 
ATOM      6  C   UNL d   1      55.530  -0.631  33.624  0.00  0.00     0.042 A 
ATOM      7  O   UNL d   1      56.197  -1.730  32.992  0.00  0.00    -0.286 OA
ATOM      8  C   UNL d   1      55.317   0.167  33.649  0.00  0.00     0.003 A 
ATOM      9  C   UNL d   1      55.565   0.678  33.051  0.00  0.00     0.000 A 
ATOM     10  C   UNL d   1      54.859   0.450  34.270  0.00  0.00     0.000 C 
ATOM     11  C   UNL d   1      56.025   0.392  32.428  0.00  0.00     0.006 A 
ENDBRANCH   2   4
ENDBRANCH   1   2
BRANCH   1  12
ATOM     12  C   UNL d   1      57.512  -0.263  30.690  0.00  0.00     0.003 C 
BRANCH  12  13
ATOM     13  C   UNL d   1      58.266  -0.029  30.466  0.00  0.00     0.002 A 
ATOM     14  C   UNL d   1      58.573  -0.272  29.738  0.00  0.00     0.027 A 
ATOM     15  C   UNL d   1      59.328  -0.038  29.513  0.00  0.00     0.123 A 
ATOM     16  O   UNL d   1      59.639  -0.281  28.781  0.00  0.00    -0.301 OA
ATOM     17  C   UNL d   1      59.780   0.439  30.012  0.00  0.00     0.123 A 
ATOM     18  C   UNL d   1      60.398  -0.047  28.553  0.00  0.00     0.149 A 
ATOM     19  C   UNL d   1      60.850   0.430  29.052  0.00  0.00     0.149 A 
ATOM     20  O   UNL d   1      60.543   0.673  29.779  0.00  0.00    -0.301 OA
ATOM     21  C   UNL d   1      59.477   0.682  30.736  0.00  0.00     0.027 A 
ATOM     22  C   UNL d   1      58.718   0.448  30.965  0.00  0.00     0.002 A 
ENDBRANCH  12  13
ENDBRANCH   1  12
TORSDOF 4
ENDMDL
MODEL 3
REMARK VINA RESULT:      -3.7      1.017      4.757
REMARK  4 active torsions:
REMARK  status: ('A' for Active; 'I' for Inactive)
REMARK    1  A    between atoms: C_3  and  C_1 
REMARK    2  A    between atoms: C_4  and  C_3 
REMARK    3  A    between atoms: C_7  and  C_4 
REMARK    4  A    between atoms: C_14  and  C_7 
ROOT
ATOM      1  C   UNL d   1      58.011  -0.156  30.752  0.00  0.00     0.042 C 
ENDROOT
BRANCH   1   2
ATOM      2  C   UNL d   1      57.373   0.267  31.078  0.00  0.00     0.199 C 
ATOM      3  O   UNL d   1      56.827   0.682  30.561  0.00  0.00    -0.286 OA
BRANCH   2   4
ATOM      4  C   UNL d   1      57.279   0.281  31.874  0.00  0.00     0.078 A 
ATOM      5  C   UNL d   1      56.628  -0.079  32.231  0.00  0.00     0.199 A 
ATOM      6  C   UNL d   1      56.542  -0.059  33.047  0.00  0.00     0.042 A 
ATOM      7  O   UNL d   1      56.041  -0.472  31.771  0.00  0.00    -0.286 OA
ATOM      8  C   UNL d   1      57.109   0.322  33.512  0.00  0.00     0.003 A 
ATOM      9  C   UNL d   1      57.760   0.682  33.155  0.00  0.00     0.000 A 
ATOM     10  C   UNL d   1      57.024   0.343  34.329  0.00  0.00     0.000 C 
ATOM     11  C   UNL d   1      57.844   0.660  32.333  0.00  0.00     0.006 A 
ENDBRANCH   2   4
ENDBRANCH   1   2
BRANCH   1  12
ATOM     12  C   UNL d   1      58.124  -0.173  29.932  0.00  0.00     0.003 C 
BRANCH  12  13
ATOM     13  C   UNL d   1      58.678  -0.685  29.607  0.00  0.00     0.002 A 
ATOM     14  C   UNL d   1      58.493  -1.486  29.515  0.00  0.00     0.027 A 
ATOM     15  C   UNL d   1      59.047  -1.998  29.190  0.00  0.00     0.123 A 
ATOM     16  O   UNL d   1      58.864  -2.804  29.096  0.00  0.00    -0.301 OA
ATOM     17  C   UNL d   1      59.785  -1.716  28.954  0.00  0.00     0.123 A 
ATOM     18  C   UNL d   1      59.419  -3.322  28.769  0.00  0.00     0.149 A 
ATOM     19  C   UNL d   1      60.157  -3.040  28.534  0.00  0.00     0.149 A 
ATOM     20  O   UNL d   1      60.341  -2.239  28.625  0.00  0.00    -0.301 OA
ATOM     21  C   UNL d   1      59.970  -0.921  29.044  0.00  0.00     0.027 A 
ATOM     22  C   UNL d   1      59.416  -0.403  29.371  0.00  0.00     0.002 A 
ENDBRANCH  12  13
ENDBRANCH   1  12
TORSDOF 4
ENDMDL
MODEL 4
REMARK VINA RESULT:      -3.0      1.106      4.982
REMARK  4 active torsions:
REMARK  status: ('A' for Active; 'I' for Inactive)
REMARK    1  A    between atoms: C_3  and  C_1 
REMARK    2  A    between atoms: C_4  and  C_3 
REMARK    3  A    between atoms: C_7  and  C_4 
REMARK    4  A    between atoms: C_14  and  C_7 
ROOT
ATOM      1  C   UNL d   1      57.355   0.324  31.905  0.00  0.00     0.042 C 
ENDROOT
BRANCH   1   2
ATOM      2  C   UNL d   1      57.313   0.505  32.716  0.00  0.00     0.199 C 
ATOM      3  O   UNL d   1      58.032   0.682  33.151  0.00  0.00    -0.286 OA
BRANCH   2   4
ATOM      4  C   UNL d   1      56.598   0.512  33.078  0.00  0.00     0.078 A 
ATOM      5  C   UNL d   1      56.539   0.556  33.900  0.00  0.00     0.199 A 
ATOM      6  C   UNL d   1      55.801   0.562  34.260  0.00  0.00     0.042 A 
ATOM      7  O   UNL d   1      57.228   0.596  34.384  0.00  0.00    -0.286 OA
ATOM      8  C   UNL d   1      55.117   0.524  33.800  0.00  0.00     0.003 A 
ATOM      9  C   UNL d   1      55.176   0.479  32.978  0.00  0.00     0.000 A 
ATOM     10  C   UNL d   1      54.378   0.530  34.160  0.00  0.00     0.000 C 
ATOM     11  C   UNL d   1      55.920   0.473  32.617  0.00  0.00     0.006 A 
ENDBRANCH   2   4
ENDBRANCH   1   2
BRANCH   1  12
ATOM     12  C   UNL d   1      58.011   0.558  31.459  0.00  0.00     0.003 C 
BRANCH  12  13
ATOM     13  C   UNL d   1      58.149   0.217  30.724  0.00  0.00     0.002 A 
ATOM     14  C   UNL d   1      58.298  -0.594  30.668  0.00  0.00     0.027 A 
ATOM     15  C   UNL d   1      58.436  -0.935  29.934  0.00  0.00     0.123 A 
ATOM     16  O   UNL d   1      58.586  -1.751  29.874  0.00  0.00    -0.301 OA
ATOM     17  C   UNL d   1      58.425  -0.470  29.252  0.00  0.00     0.123 A 
ATOM     18  C   UNL d   1      58.725  -2.096  29.136  0.00  0.00     0.149 A 
ATOM     19  C   UNL d   1      58.714  -1.631  28.455  0.00  0.00     0.149 A 
ATOM     20  O   UNL d   1      58.565  -0.821  28.512  0.00  0.00    -0.301 OA
ATOM     21  C   UNL d   1      58.276   0.336  29.305  0.00  0.00     0.027 A 
ATOM     22  C   UNL d   1      58.138   0.682  30.042  0.00  0.00     0.002 A 
ENDBRANCH  12  13
ENDBRANCH   1  12
TORSDOF 4
ENDMDL
