MODEL 1
REMARK VINA RESULT:     133.8      0.000      0.000
REMARK  4 active torsions:
REMARK  status: ('A' for Active; 'I' for Inactive)
REMARK    1  A    between atoms: S_5  and  C_2 
REMARK    2  A    between atoms: C_16  and  S_5 
REMARK    3  A    between atoms: N_11  and  C_8 
REMARK    4  A    between atoms: C_12  and  N_11 
ROOT
ATOM      1  C   UNL d   1      59.899  48.544  50.760  0.00  0.00     0.197 A 
ATOM      2  C   UNL d   1      59.311  49.108  50.910  0.00  0.00     0.227 A 
ATOM      3  N   UNL d   1      60.592  48.794  51.137  0.00  0.00    -0.192 N 
ATOM      4  N   UNL d   1      59.896  47.839  50.332  0.00  0.00    -0.206 NA
ATOM      5  N   UNL d   1      59.639  49.704  51.378  0.00  0.00    -0.115 NA
ATOM      6  N   UNL d   1      60.433  49.513  51.521  0.00  0.00    -0.058 NA
ATOM      7  C   UNL d   1      60.586  47.381  50.278  0.00  0.00     0.166 A 
ATOM      8  C   UNL d   1      61.273  47.636  50.656  0.00  0.00     0.054 A 
ATOM      9  C   UNL d   1      61.284  48.340  51.086  0.00  0.00     0.089 A 
ATOM     10  C   UNL d   1      61.967  47.181  50.605  0.00  0.00     0.005 A 
ATOM     11  C   UNL d   1      61.972  48.591  51.462  0.00  0.00     0.019 A 
ATOM     12  C   UNL d   1      62.654  47.433  50.981  0.00  0.00     0.000 A 
ATOM     13  C   UNL d   1      62.657  48.138  51.410  0.00  0.00     0.002 A 
ENDROOT
BRANCH   2  14
ATOM     14  S   UNL d   1      58.531  49.076  50.638  0.00  0.00     0.231 S 
ATOM     15  O   UNL d   1      58.358  48.447  51.139  0.00  0.00    -0.215 OA
ATOM     16  O   UNL d   1      58.709  49.706  50.138  0.00  0.00    -0.215 OA
BRANCH  14  17
ATOM     17  C   UNL d   1      57.767  49.078  50.341  0.00  0.00     0.090 A 
ATOM     18  C   UNL d   1      57.638  49.271  49.548  0.00  0.00     0.011 A 
ATOM     19  C   UNL d   1      56.878  49.274  49.247  0.00  0.00     0.001 A 
ATOM     20  C   UNL d   1      56.237  49.085  49.734  0.00  0.00     0.000 A 
ATOM     21  C   UNL d   1      56.370  48.893  50.528  0.00  0.00     0.001 A 
ATOM     22  C   UNL d   1      57.130  48.890  50.825  0.00  0.00     0.011 A 
ENDBRANCH  14  17
ENDBRANCH   2  14
BRANCH   7  23
ATOM     23  N   UNL d   1      60.583  46.676  49.850  0.00  0.00    -0.227 NA
BRANCH  23  24
ATOM     24  C   UNL d   1      60.679  45.957  50.238  0.00  0.00     0.083 A 
ATOM     25  C   UNL d   1      61.064  45.331  49.861  0.00  0.00     0.018 A 
ATOM     26  C   UNL d   1      61.160  44.612  50.251  0.00  0.00     0.002 A 
ATOM     27  C   UNL d   1      61.352  45.428  49.092  0.00  0.00     0.002 C 
ATOM     28  C   UNL d   1      61.544  43.986  49.874  0.00  0.00     0.000 C 
ATOM     29  C   UNL d   1      60.872  44.513  51.022  0.00  0.00     0.000 A 
ATOM     30  C   UNL d   1      60.486  45.147  51.395  0.00  0.00     0.002 A 
ATOM     31  C   UNL d   1      60.392  45.863  51.004  0.00  0.00     0.019 A 
ENDBRANCH  23  24
ENDBRANCH   7  23
TORSDOF 4
ENDMDL
MODEL 2
REMARK VINA RESULT:     134.8      1.698      4.135
REMARK  4 active torsions:
REMARK  status: ('A' for Active; 'I' for Inactive)
REMARK    1  A    between atoms: S_5  and  C_2 
REMARK    2  A    between atoms: C_16  and  S_5 
REMARK    3  A    between atoms: N_11  and  C_8 
REMARK    4  A    between atoms: C_12  and  N_11 
ROOT
ATOM      1  C   UNL d   1      60.873  46.930  50.894  0.00  0.00     0.197 A 
ATOM      2  C   UNL d   1      61.045  46.119  50.897  0.00  0.00     0.227 A 
ATOM      3  N   UNL d   1      61.270  47.275  51.532  0.00  0.00    -0.192 N 
ATOM      4  N   UNL d   1      60.410  47.398  50.396  0.00  0.00    -0.206 NA
ATOM      5  N   UNL d   1      61.546  45.965  51.536  0.00  0.00    -0.115 NA
ATOM      6  N   UNL d   1      61.687  46.680  51.932  0.00  0.00    -0.058 NA
ATOM      7  C   UNL d   1      60.341  48.213  50.534  0.00  0.00     0.166 A 
ATOM      8  C   UNL d   1      60.740  48.551  51.173  0.00  0.00     0.054 A 
ATOM      9  C   UNL d   1      61.204  48.090  51.675  0.00  0.00     0.089 A 
ATOM     10  C   UNL d   1      60.674  49.367  51.316  0.00  0.00     0.005 A 
ATOM     11  C   UNL d   1      61.600  48.432  52.311  0.00  0.00     0.019 A 
ATOM     12  C   UNL d   1      61.070  49.708  51.952  0.00  0.00     0.000 A 
ATOM     13  C   UNL d   1      61.533  49.240  52.449  0.00  0.00     0.002 A 
ENDROOT
BRANCH   2  14
ATOM     14  S   UNL d   1      60.762  45.564  50.355  0.00  0.00     0.231 S 
ATOM     15  O   UNL d   1      61.095  45.977  49.726  0.00  0.00    -0.215 OA
ATOM     16  O   UNL d   1      60.431  45.154  50.987  0.00  0.00    -0.215 OA
BRANCH  14  17
ATOM     17  C   UNL d   1      60.464  44.991  49.850  0.00  0.00     0.090 A 
ATOM     18  C   UNL d   1      60.985  44.539  49.394  0.00  0.00     0.011 A 
ATOM     19  C   UNL d   1      60.693  43.966  48.889  0.00  0.00     0.001 A 
ATOM     20  C   UNL d   1      59.878  43.838  48.832  0.00  0.00     0.000 A 
ATOM     21  C   UNL d   1      59.360  44.293  49.289  0.00  0.00     0.001 A 
ATOM     22  C   UNL d   1      59.655  44.864  49.793  0.00  0.00     0.011 A 
ENDBRANCH  14  17
ENDBRANCH   2  14
BRANCH   7  23
ATOM     23  N   UNL d   1      59.878  48.680  50.037  0.00  0.00    -0.227 NA
BRANCH  23  24
ATOM     24  C   UNL d   1      59.098  48.848  50.237  0.00  0.00     0.083 A 
ATOM     25  C   UNL d   1      58.594  49.194  49.682  0.00  0.00     0.018 A 
ATOM     26  C   UNL d   1      57.813  49.361  49.883  0.00  0.00     0.002 A 
ATOM     27  C   UNL d   1      58.874  49.371  48.924  0.00  0.00     0.002 C 
ATOM     28  C   UNL d   1      57.309  49.707  49.328  0.00  0.00     0.000 C 
ATOM     29  C   UNL d   1      57.530  49.184  50.642  0.00  0.00     0.000 A 
ATOM     30  C   UNL d   1      58.043  48.836  51.194  0.00  0.00     0.002 A 
ATOM     31  C   UNL d   1      58.821  48.670  50.992  0.00  0.00     0.019 A 
ENDBRANCH  23  24
ENDBRANCH   7  23
TORSDOF 4
ENDMDL
