MODEL 1
REMARK VINA RESULT:      59.7      0.000      0.000
REMARK  6 active torsions:
REMARK  status: ('A' for Active; 'I' for Inactive)
REMARK    1  A    between atoms: C_12  and  N_4 
REMARK    2  A    between atoms: C_10  and  N_6 
REMARK    3  A    between atoms: C_11  and  C_10 
REMARK    4  A    between atoms: O_15  and  C_11 
REMARK    5  A    between atoms: C_16  and  O_15 
REMARK    6  A    between atoms: C_17  and  C_16 
ROOT
ATOM      1  C   UNL d   1     -47.873  30.822  34.811  0.00  0.00     0.172 A 
ATOM      2  C   UNL d   1     -47.524  30.382  35.415  0.00  0.00     0.113 A 
ATOM      3  N   UNL d   1     -48.453  30.487  34.337  0.00  0.00    -0.206 NA
ATOM      4  N   UNL d   1     -47.525  31.576  34.820  0.00  0.00    -0.212 N 
ATOM      5  C   UNL d   1     -47.755  29.606  35.546  0.00  0.00     0.271 A 
ATOM      6  N   UNL d   1     -48.340  29.263  35.071  0.00  0.00    -0.250 N 
ATOM      7  N   UNL d   1     -46.973  31.588  35.424  0.00  0.00    -0.162 NA
ATOM      8  C   UNL d   1     -48.688  29.703  34.466  0.00  0.00     0.187 A 
ATOM      9  C   UNL d   1     -46.967  30.872  35.787  0.00  0.00     0.129 A 
ATOM     10  O   UNL d   1     -47.406  29.166  36.150  0.00  0.00    -0.266 OA
ENDROOT
BRANCH   6  11
ATOM     11  C   UNL d   1     -48.580  28.474  35.197  0.00  0.00     0.153 C 
BRANCH  11  12
ATOM     12  C   UNL d   1     -48.519  27.917  34.584  0.00  0.00     0.318 C 
ATOM     13  O   UNL d   1     -47.845  27.892  34.123  0.00  0.00    -0.257 OA
BRANCH  12  14
ATOM     14  O   UNL d   1     -49.146  27.396  34.453  0.00  0.00    -0.270 OA
BRANCH  14  15
ATOM     15  C   UNL d   1     -49.395  27.254  33.673  0.00  0.00     0.126 C 
BRANCH  15  16
ATOM     16  C   UNL d   1     -50.064  26.799  33.550  0.00  0.00     0.025 A 
ATOM     17  C   UNL d   1     -50.805  27.176  33.525  0.00  0.00     0.002 A 
ATOM     18  C   UNL d   1     -51.489  26.720  33.401  0.00  0.00     0.000 A 
ATOM     19  C   UNL d   1     -51.426  25.911  33.306  0.00  0.00     0.000 A 
ATOM     20  C   UNL d   1     -50.684  25.533  33.331  0.00  0.00     0.000 A 
ATOM     21  C   UNL d   1     -50.009  25.990  33.454  0.00  0.00     0.002 A 
ENDBRANCH  15  16
ENDBRANCH  14  15
ENDBRANCH  12  14
ENDBRANCH  11  12
ENDBRANCH   6  11
BRANCH   4  22
ATOM     22  C   UNL d   1     -47.676  32.213  34.336  0.00  0.00     0.085 A 
ATOM     23  C   UNL d   1     -47.071  32.524  33.855  0.00  0.00     0.019 A 
ATOM     24  C   UNL d   1     -47.229  33.165  33.371  0.00  0.00     0.002 A 
ATOM     25  C   UNL d   1     -47.997  33.509  33.359  0.00  0.00     0.000 A 
ATOM     26  C   UNL d   1     -48.578  33.197  33.833  0.00  0.00     0.002 A 
ATOM     27  C   UNL d   1     -48.429  32.553  34.323  0.00  0.00     0.019 A 
ENDBRANCH   4  22
TORSDOF 6
ENDMDL
