MODEL 1
REMARK VINA RESULT:      -2.6      0.000      0.000
REMARK  3 active torsions:
REMARK  status: ('A' for Active; 'I' for Inactive)
REMARK    1  A    between atoms: S_3  and  N_1 
REMARK    2  A    between atoms: C_7  and  C_4 
REMARK    3  A    between atoms: C_12  and  C_5 
ROOT
ATOM      1  N   UNL d   1      32.650  17.131 -23.521  0.00  0.00    -0.155 N 
ATOM      2  N   UNL d   1      33.048  17.773 -23.213  0.00  0.00    -0.156 NA
ATOM      3  C   UNL d   1      31.905  17.371 -23.737  0.00  0.00     0.096 A 
ATOM      4  C   UNL d   1      32.541  18.413 -23.240  0.00  0.00     0.103 A 
ATOM      5  C   UNL d   1      31.834  18.174 -23.562  0.00  0.00     0.041 A 
ENDROOT
BRANCH   3   6
ATOM      6  C   UNL d   1      31.316  16.897 -24.074  0.00  0.00     0.020 A 
ATOM      7  C   UNL d   1      30.565  16.862 -23.729  0.00  0.00     0.022 A 
ATOM      8  C   UNL d   1      29.978  16.389 -24.066  0.00  0.00     0.099 A 
ATOM      9  N   UNL d   1      29.228  16.354 -23.722  0.00  0.00    -0.241 NA
ATOM     10  C   UNL d   1      30.139  15.954 -24.743  0.00  0.00     0.099 A 
ATOM     11  C   UNL d   1      28.668  15.892 -24.059  0.00  0.00     0.120 A 
ATOM     12  C   UNL d   1      28.830  15.456 -24.736  0.00  0.00     0.120 A 
ATOM     13  N   UNL d   1      29.552  15.481 -25.080  0.00  0.00    -0.241 NA
ATOM     14  C   UNL d   1      30.889  15.988 -25.087  0.00  0.00     0.021 A 
ATOM     15  C   UNL d   1      31.477  16.462 -24.751  0.00  0.00     0.003 A 
ENDBRANCH   3   6
BRANCH   1  16
ATOM     16  S   UNL d   1      32.948  16.348 -23.607  0.00  0.00     0.266 S 
ATOM     17  O   UNL d   1      32.637  16.175 -22.837  0.00  0.00    -0.203 OA
ATOM     18  O   UNL d   1      33.229  15.575 -23.661  0.00  0.00    -0.203 OA
ATOM     19  C   UNL d   1      33.241  16.531 -24.345  0.00  0.00     0.165 C 
ENDBRANCH   1  16
BRANCH   4  20
ATOM     20  C   UNL d   1      32.715  19.168 -22.987  0.00  0.00     0.019 A 
ATOM     21  C   UNL d   1      33.030  19.716 -23.496  0.00  0.00     0.002 A 
ATOM     22  C   UNL d   1      33.214  20.496 -23.250  0.00  0.00     0.000 A 
ATOM     23  C   UNL d   1      33.068  20.708 -22.461  0.00  0.00     0.000 A 
ATOM     24  C   UNL d   1      32.744  20.134 -21.952  0.00  0.00     0.000 A 
ATOM     25  C   UNL d   1      33.240  21.458 -22.207  0.00  0.00     0.000 C 
ATOM     26  C   UNL d   1      32.570  19.385 -22.198  0.00  0.00     0.002 A 
ENDBRANCH   4  20
TORSDOF 3
ENDMDL
MODEL 2
REMARK VINA RESULT:      -0.8      4.028      6.019
REMARK  3 active torsions:
REMARK  status: ('A' for Active; 'I' for Inactive)
REMARK    1  A    between atoms: S_3  and  N_1 
REMARK    2  A    between atoms: C_7  and  C_4 
REMARK    3  A    between atoms: C_12  and  C_5 
ROOT
ATOM      1  N   UNL d   1      32.304  23.000 -21.145  0.00  0.00    -0.155 N 
ATOM      2  N   UNL d   1      32.293  23.318 -20.394  0.00  0.00    -0.156 NA
ATOM      3  C   UNL d   1      32.692  22.288 -21.117  0.00  0.00     0.096 A 
ATOM      4  C   UNL d   1      32.680  22.794 -19.900  0.00  0.00     0.103 A 
ATOM      5  C   UNL d   1      32.928  22.157 -20.337  0.00  0.00     0.041 A 
ENDROOT
BRANCH   3   6
ATOM      6  C   UNL d   1      32.829  21.779 -21.754  0.00  0.00     0.020 A 
ATOM      7  C   UNL d   1      32.771  20.960 -21.651  0.00  0.00     0.022 A 
ATOM      8  C   UNL d   1      32.908  20.453 -22.288  0.00  0.00     0.099 A 
ATOM      9  N   UNL d   1      32.850  19.636 -22.184  0.00  0.00    -0.241 NA
ATOM     10  C   UNL d   1      33.101  20.761 -23.024  0.00  0.00     0.099 A 
ATOM     11  C   UNL d   1      32.986  19.156 -22.811  0.00  0.00     0.120 A 
ATOM     12  C   UNL d   1      33.179  19.463 -23.547  0.00  0.00     0.120 A 
ATOM     13  N   UNL d   1      33.238  20.254 -23.661  0.00  0.00    -0.241 NA
ATOM     14  C   UNL d   1      33.159  21.578 -23.128  0.00  0.00     0.021 A 
ATOM     15  C   UNL d   1      33.022  22.086 -22.491  0.00  0.00     0.003 A 
ENDBRANCH   3   6
BRANCH   1  16
ATOM     16  S   UNL d   1      31.972  23.342 -21.840  0.00  0.00     0.266 S 
ATOM     17  O   UNL d   1      31.229  22.997 -21.621  0.00  0.00    -0.203 OA
ATOM     18  O   UNL d   1      31.619  23.663 -22.511  0.00  0.00    -0.203 OA
ATOM     19  C   UNL d   1      32.694  23.666 -22.035  0.00  0.00     0.165 C 
ENDBRANCH   1  16
BRANCH   4  20
ATOM     20  C   UNL d   1      32.797  22.895 -19.099  0.00  0.00     0.019 A 
ATOM     21  C   UNL d   1      33.110  23.584 -18.807  0.00  0.00     0.002 A 
ATOM     22  C   UNL d   1      33.236  23.701 -17.987  0.00  0.00     0.000 A 
ATOM     23  C   UNL d   1      33.033  23.091 -17.463  0.00  0.00     0.000 A 
ATOM     24  C   UNL d   1      32.712  22.391 -17.779  0.00  0.00     0.000 A 
ATOM     25  C   UNL d   1      33.149  23.189 -16.667  0.00  0.00     0.000 C 
ATOM     26  C   UNL d   1      32.594  22.286 -18.571  0.00  0.00     0.002 A 
ENDBRANCH   4  20
TORSDOF 3
ENDMDL
MODEL 3
REMARK VINA RESULT:      -0.1      1.779      4.682
REMARK  3 active torsions:
REMARK  status: ('A' for Active; 'I' for Inactive)
REMARK    1  A    between atoms: S_3  and  N_1 
REMARK    2  A    between atoms: C_7  and  C_4 
REMARK    3  A    between atoms: C_12  and  C_5 
ROOT
ATOM      1  N   UNL d   1      32.029  18.461 -24.433  0.00  0.00    -0.155 N 
ATOM      2  N   UNL d   1      31.537  17.955 -24.844  0.00  0.00    -0.156 NA
ATOM      3  C   UNL d   1      31.821  18.439 -23.649  0.00  0.00     0.096 A 
ATOM      4  C   UNL d   1      31.022  17.622 -24.304  0.00  0.00     0.103 A 
ATOM      5  C   UNL d   1      31.190  17.914 -23.566  0.00  0.00     0.041 A 
ENDROOT
BRANCH   3   6
ATOM      6  C   UNL d   1      32.176  18.867 -23.036  0.00  0.00     0.020 A 
ATOM      7  C   UNL d   1      31.857  19.591 -22.797  0.00  0.00     0.022 A 
ATOM      8  C   UNL d   1      32.212  20.017 -22.185  0.00  0.00     0.099 A 
ATOM      9  N   UNL d   1      31.892  20.740 -21.946  0.00  0.00    -0.241 NA
ATOM     10  C   UNL d   1      32.883  19.722 -21.815  0.00  0.00     0.099 A 
ATOM     11  C   UNL d   1      32.247  21.143 -21.352  0.00  0.00     0.120 A 
ATOM     12  C   UNL d   1      32.917  20.848 -20.981  0.00  0.00     0.120 A 
ATOM     13  N   UNL d   1      33.238  20.148 -21.203  0.00  0.00    -0.241 NA
ATOM     14  C   UNL d   1      33.202  18.999 -22.053  0.00  0.00     0.021 A 
ATOM     15  C   UNL d   1      32.847  18.572 -22.665  0.00  0.00     0.003 A 
ENDBRANCH   3   6
BRANCH   1  16
ATOM     16  S   UNL d   1      32.650  18.929 -24.755  0.00  0.00     0.266 S 
ATOM     17  O   UNL d   1      32.156  19.610 -24.645  0.00  0.00    -0.203 OA
ATOM     18  O   UNL d   1      33.239  19.414 -25.067  0.00  0.00    -0.203 OA
ATOM     19  C   UNL d   1      33.111  18.264 -24.855  0.00  0.00     0.165 C 
ENDBRANCH   1  16
BRANCH   4  20
ATOM     20  C   UNL d   1      30.435  17.083 -24.479  0.00  0.00     0.019 A 
ATOM     21  C   UNL d   1      30.617  16.313 -24.660  0.00  0.00     0.002 A 
ATOM     22  C   UNL d   1      30.024  15.748 -24.841  0.00  0.00     0.000 A 
ATOM     23  C   UNL d   1      29.230  15.989 -24.833  0.00  0.00     0.000 A 
ATOM     24  C   UNL d   1      29.061  16.782 -24.645  0.00  0.00     0.000 A 
ATOM     25  C   UNL d   1      28.646  15.454 -25.006  0.00  0.00     0.000 C 
ATOM     26  C   UNL d   1      29.639  17.320 -24.472  0.00  0.00     0.002 A 
ENDBRANCH   4  20
TORSDOF 3
ENDMDL
