MODEL 1
REMARK VINA RESULT:      -8.7      0.000      0.000
REMARK  1 active torsions:
REMARK  status: ('A' for Active; 'I' for Inactive)
REMARK    1  A    between atoms: C_12  and  C_8 
ROOT
ATOM      1  N   UNL d   1     -47.711  13.116  23.156  0.00  0.00    -0.123 N 
ATOM      2  N   UNL d   1     -46.302  13.254  23.025  0.00  0.00    -0.180 NA
ATOM      3  C   UNL d   1     -47.049  13.571  22.970  0.00  0.00     0.217 A 
ATOM      4  N   UNL d   1     -47.618  12.331  23.401  0.00  0.00    -0.141 NA
ATOM      5  N   UNL d   1     -48.469  13.424  23.104  0.00  0.00    -0.146 NA
ATOM      6  C   UNL d   1     -46.200  12.482  23.266  0.00  0.00     0.300 A 
ATOM      7  C   UNL d   1     -46.857  12.020  23.454  0.00  0.00     0.161 A 
ATOM      8  C   UNL d   1     -48.568  14.215  22.857  0.00  0.00     0.110 A 
ATOM      9  S   UNL d   1     -47.154  14.347  22.728  0.00  0.00    -0.045 SA
ATOM     10  C   UNL d   1     -47.910  14.676  22.669  0.00  0.00     0.059 A 
ATOM     11  O   UNL d   1     -45.440  12.160  23.322  0.00  0.00    -0.263 OA
ATOM     12  C   UNL d   1     -46.755  11.238  23.698  0.00  0.00     0.028 C 
ENDROOT
BRANCH   8  13
ATOM     13  C   UNL d   1     -49.324  14.534  22.801  0.00  0.00     0.020 A 
ATOM     14  C   UNL d   1     -49.554  15.133  23.322  0.00  0.00     0.002 A 
ATOM     15  C   UNL d   1     -50.315  15.454  23.267  0.00  0.00     0.000 A 
ATOM     16  C   UNL d   1     -50.839  15.176  22.694  0.00  0.00     0.000 A 
ATOM     17  C   UNL d   1     -50.603  14.576  22.176  0.00  0.00     0.000 A 
ATOM     18  C   UNL d   1     -49.846  14.257  22.231  0.00  0.00     0.002 A 
ENDBRANCH   8  13
TORSDOF 1
ENDMDL
MODEL 2
REMARK VINA RESULT:      -8.2      1.885      3.981
REMARK  1 active torsions:
REMARK  status: ('A' for Active; 'I' for Inactive)
REMARK    1  A    between atoms: C_12  and  C_8 
ROOT
ATOM      1  N   UNL d   1     -48.975  14.192  22.981  0.00  0.00    -0.123 N 
ATOM      2  N   UNL d   1     -50.067  14.388  22.091  0.00  0.00    -0.180 NA
ATOM      3  C   UNL d   1     -49.407  13.968  22.315  0.00  0.00     0.217 A 
ATOM      4  N   UNL d   1     -49.213  14.847  23.426  0.00  0.00    -0.141 NA
ATOM      5  N   UNL d   1     -48.309  13.777  23.217  0.00  0.00    -0.146 NA
ATOM      6  C   UNL d   1     -50.309  15.035  22.524  0.00  0.00     0.300 A 
ATOM      7  C   UNL d   1     -49.882  15.265  23.191  0.00  0.00     0.161 A 
ATOM      8  C   UNL d   1     -48.066  13.115  22.770  0.00  0.00     0.110 A 
ATOM      9  S   UNL d   1     -49.162  13.317  21.882  0.00  0.00    -0.045 SA
ATOM     10  C   UNL d   1     -48.493  12.885  22.103  0.00  0.00     0.059 A 
ATOM     11  O   UNL d   1     -50.979  15.461  22.295  0.00  0.00    -0.263 OA
ATOM     12  C   UNL d   1     -50.126  15.921  23.630  0.00  0.00     0.028 C 
ENDROOT
BRANCH   8  13
ATOM     13  C   UNL d   1     -47.398  12.692  22.998  0.00  0.00     0.020 A 
ATOM     14  C   UNL d   1     -46.649  12.963  22.781  0.00  0.00     0.002 A 
ATOM     15  C   UNL d   1     -45.977  12.538  23.010  0.00  0.00     0.000 A 
ATOM     16  C   UNL d   1     -46.057  11.847  23.453  0.00  0.00     0.000 A 
ATOM     17  C   UNL d   1     -46.810  11.580  23.667  0.00  0.00     0.000 A 
ATOM     18  C   UNL d   1     -47.478  12.004  23.439  0.00  0.00     0.002 A 
ENDBRANCH   8  13
TORSDOF 1
ENDMDL
MODEL 3
REMARK VINA RESULT:      -8.1      1.089      1.486
REMARK  1 active torsions:
REMARK  status: ('A' for Active; 'I' for Inactive)
REMARK    1  A    between atoms: C_12  and  C_8 
ROOT
ATOM      1  N   UNL d   1     -47.549  13.147  22.566  0.00  0.00    -0.123 N 
ATOM      2  N   UNL d   1     -46.880  12.207  23.397  0.00  0.00    -0.180 NA
ATOM      3  C   UNL d   1     -47.570  12.543  23.128  0.00  0.00     0.217 A 
ATOM      4  N   UNL d   1     -46.823  13.413  22.272  0.00  0.00    -0.141 NA
ATOM      5  N   UNL d   1     -48.237  13.494  22.287  0.00  0.00    -0.146 NA
ATOM      6  C   UNL d   1     -46.159  12.462  23.114  0.00  0.00     0.300 A 
ATOM      7  C   UNL d   1     -46.131  13.065  22.552  0.00  0.00     0.161 A 
ATOM      8  C   UNL d   1     -48.972  13.228  22.580  0.00  0.00     0.110 A 
ATOM      9  S   UNL d   1     -48.295  12.288  23.411  0.00  0.00    -0.045 SA
ATOM     10  C   UNL d   1     -49.001  12.625  23.142  0.00  0.00     0.059 A 
ATOM     11  O   UNL d   1     -45.459  12.119  23.388  0.00  0.00    -0.263 OA
ATOM     12  C   UNL d   1     -45.401  13.325  22.263  0.00  0.00     0.028 C 
ENDROOT
BRANCH   8  13
ATOM     13  C   UNL d   1     -49.668  13.570  22.306  0.00  0.00     0.020 A 
ATOM     14  C   UNL d   1     -49.931  14.280  22.636  0.00  0.00     0.002 A 
ATOM     15  C   UNL d   1     -50.632  14.625  22.362  0.00  0.00     0.000 A 
ATOM     16  C   UNL d   1     -51.063  14.259  21.762  0.00  0.00     0.000 A 
ATOM     17  C   UNL d   1     -50.795  13.549  21.435  0.00  0.00     0.000 A 
ATOM     18  C   UNL d   1     -50.098  13.206  21.709  0.00  0.00     0.002 A 
ENDBRANCH   8  13
TORSDOF 1
ENDMDL
MODEL 4
REMARK VINA RESULT:      -7.9      2.206      3.644
REMARK  1 active torsions:
REMARK  status: ('A' for Active; 'I' for Inactive)
REMARK    1  A    between atoms: C_12  and  C_8 
ROOT
ATOM      1  N   UNL d   1     -48.894  12.633  23.062  0.00  0.00    -0.123 N 
ATOM      2  N   UNL d   1     -49.506  11.512  23.688  0.00  0.00    -0.180 NA
ATOM      3  C   UNL d   1     -48.836  11.924  23.479  0.00  0.00     0.217 A 
ATOM      4  N   UNL d   1     -49.638  12.929  22.852  0.00  0.00    -0.141 NA
ATOM      5  N   UNL d   1     -48.227  13.057  22.846  0.00  0.00    -0.146 NA
ATOM      6  C   UNL d   1     -50.243  11.796  23.486  0.00  0.00     0.300 A 
ATOM      7  C   UNL d   1     -50.309  12.504  23.068  0.00  0.00     0.161 A 
ATOM      8  C   UNL d   1     -47.475  12.762  23.055  0.00  0.00     0.110 A 
ATOM      9  S   UNL d   1     -48.094  11.640  23.681  0.00  0.00    -0.045 SA
ATOM     10  C   UNL d   1     -47.409  12.053  23.473  0.00  0.00     0.059 A 
ATOM     11  O   UNL d   1     -50.923  11.376  23.698  0.00  0.00    -0.263 OA
ATOM     12  C   UNL d   1     -51.056  12.793  22.863  0.00  0.00     0.028 C 
ENDROOT
BRANCH   8  13
ATOM     13  C   UNL d   1     -46.799  13.180  22.843  0.00  0.00     0.020 A 
ATOM     14  C   UNL d   1     -46.723  13.972  23.065  0.00  0.00     0.002 A 
ATOM     15  C   UNL d   1     -46.044  14.394  22.853  0.00  0.00     0.000 A 
ATOM     16  C   UNL d   1     -45.446  14.023  22.421  0.00  0.00     0.000 A 
ATOM     17  C   UNL d   1     -45.528  13.230  22.202  0.00  0.00     0.000 A 
ATOM     18  C   UNL d   1     -46.205  12.811  22.414  0.00  0.00     0.002 A 
ENDBRANCH   8  13
TORSDOF 1
ENDMDL
MODEL 5
REMARK VINA RESULT:      -7.4      1.795      2.115
REMARK  1 active torsions:
REMARK  status: ('A' for Active; 'I' for Inactive)
REMARK    1  A    between atoms: C_12  and  C_8 
ROOT
ATOM      1  N   UNL d   1     -46.927  11.598  23.269  0.00  0.00    -0.123 N 
ATOM      2  N   UNL d   1     -45.711  12.310  23.081  0.00  0.00    -0.180 NA
ATOM      3  C   UNL d   1     -46.523  12.290  23.070  0.00  0.00     0.217 A 
ATOM      4  N   UNL d   1     -46.503  10.919  23.480  0.00  0.00    -0.141 NA
ATOM      5  N   UNL d   1     -47.746  11.564  23.262  0.00  0.00    -0.146 NA
ATOM      6  C   UNL d   1     -45.284  11.646  23.288  0.00  0.00     0.300 A 
ATOM      7  C   UNL d   1     -45.681  10.951  23.488  0.00  0.00     0.161 A 
ATOM      8  C   UNL d   1     -48.176  12.247  23.049  0.00  0.00     0.110 A 
ATOM      9  S   UNL d   1     -46.953  12.955  22.862  0.00  0.00    -0.045 SA
ATOM     10  C   UNL d   1     -47.780  12.942  22.849  0.00  0.00     0.059 A 
ATOM     11  O   UNL d   1     -44.458  11.669  23.298  0.00  0.00    -0.263 OA
ATOM     12  C   UNL d   1     -45.251  10.278  23.698  0.00  0.00     0.028 C 
ENDROOT
BRANCH   8  13
ATOM     13  C   UNL d   1     -48.998  12.223  23.039  0.00  0.00     0.020 A 
ATOM     14  C   UNL d   1     -49.405  12.467  22.363  0.00  0.00     0.002 A 
ATOM     15  C   UNL d   1     -50.233  12.444  22.351  0.00  0.00     0.000 A 
ATOM     16  C   UNL d   1     -50.647  12.179  23.013  0.00  0.00     0.000 A 
ATOM     17  C   UNL d   1     -50.233  11.936  23.687  0.00  0.00     0.000 A 
ATOM     18  C   UNL d   1     -49.410  11.959  23.698  0.00  0.00     0.002 A 
ENDBRANCH   8  13
TORSDOF 1
ENDMDL
MODEL 6
REMARK VINA RESULT:      -6.1      8.528      9.830
REMARK  1 active torsions:
REMARK  status: ('A' for Active; 'I' for Inactive)
REMARK    1  A    between atoms: C_12  and  C_8 
ROOT
ATOM      1  N   UNL d   1     -39.367  14.231  17.943  0.00  0.00    -0.123 N 
ATOM      2  N   UNL d   1     -39.325  14.583  16.566  0.00  0.00    -0.180 NA
ATOM      3  C   UNL d   1     -39.620  14.702  17.314  0.00  0.00     0.217 A 
ATOM      4  N   UNL d   1     -38.811  13.633  17.813  0.00  0.00    -0.141 NA
ATOM      5  N   UNL d   1     -39.657  14.341  18.702  0.00  0.00    -0.146 NA
ATOM      6  C   UNL d   1     -38.776  13.995  16.428  0.00  0.00     0.300 A 
ATOM      7  C   UNL d   1     -38.519  13.520  17.051  0.00  0.00     0.161 A 
ATOM      8  C   UNL d   1     -40.218  14.944  18.836  0.00  0.00     0.110 A 
ATOM      9  S   UNL d   1     -40.171  15.291  17.454  0.00  0.00    -0.045 SA
ATOM     10  C   UNL d   1     -40.475  15.419  18.213  0.00  0.00     0.059 A 
ATOM     11  O   UNL d   1     -38.477  13.875  15.667  0.00  0.00    -0.263 OA
ATOM     12  C   UNL d   1     -37.963  12.925  16.914  0.00  0.00     0.028 C 
ENDROOT
BRANCH   8  13
ATOM     13  C   UNL d   1     -40.515  15.062  19.594  0.00  0.00     0.020 A 
ATOM     14  C   UNL d   1     -40.864  14.433  19.999  0.00  0.00     0.002 A 
ATOM     15  C   UNL d   1     -41.163  14.551  20.762  0.00  0.00     0.000 A 
ATOM     16  C   UNL d   1     -41.112  15.295  21.114  0.00  0.00     0.000 A 
ATOM     17  C   UNL d   1     -40.762  15.922  20.703  0.00  0.00     0.000 A 
ATOM     18  C   UNL d   1     -40.464  15.803  19.944  0.00  0.00     0.002 A 
ENDBRANCH   8  13
TORSDOF 1
ENDMDL
MODEL 7
REMARK VINA RESULT:      -5.8      8.407     10.180
REMARK  1 active torsions:
REMARK  status: ('A' for Active; 'I' for Inactive)
REMARK    1  A    between atoms: C_12  and  C_8 
ROOT
ATOM      1  N   UNL d   1     -39.735  14.705  19.421  0.00  0.00    -0.123 N 
ATOM      2  N   UNL d   1     -40.973  15.361  19.664  0.00  0.00    -0.180 NA
ATOM      3  C   UNL d   1     -40.475  14.960  19.161  0.00  0.00     0.217 A 
ATOM      4  N   UNL d   1     -39.495  14.857  20.199  0.00  0.00    -0.141 NA
ATOM      5  N   UNL d   1     -39.224  14.301  18.924  0.00  0.00    -0.146 NA
ATOM      6  C   UNL d   1     -40.746  15.515  20.432  0.00  0.00     0.300 A 
ATOM      7  C   UNL d   1     -40.007  15.263  20.700  0.00  0.00     0.161 A 
ATOM      8  C   UNL d   1     -39.462  14.146  18.139  0.00  0.00     0.110 A 
ATOM      9  S   UNL d   1     -40.701  14.804  18.390  0.00  0.00    -0.045 SA
ATOM     10  C   UNL d   1     -40.200  14.398  17.872  0.00  0.00     0.059 A 
ATOM     11  O   UNL d   1     -41.253  15.922  20.943  0.00  0.00    -0.263 OA
ATOM     12  C   UNL d   1     -39.775  15.418  21.477  0.00  0.00     0.028 C 
ENDROOT
BRANCH   8  13
ATOM     13  C   UNL d   1     -38.956  13.741  17.632  0.00  0.00     0.020 A 
ATOM     14  C   UNL d   1     -38.721  14.093  16.923  0.00  0.00     0.002 A 
ATOM     15  C   UNL d   1     -38.212  13.687  16.412  0.00  0.00     0.000 A 
ATOM     16  C   UNL d   1     -37.944  12.933  16.612  0.00  0.00     0.000 A 
ATOM     17  C   UNL d   1     -38.183  12.585  17.323  0.00  0.00     0.000 A 
ATOM     18  C   UNL d   1     -38.689  12.990  17.831  0.00  0.00     0.002 A 
ENDBRANCH   8  13
TORSDOF 1
ENDMDL
MODEL 8
REMARK VINA RESULT:      -5.7      8.495      9.525
REMARK  1 active torsions:
REMARK  status: ('A' for Active; 'I' for Inactive)
REMARK    1  A    between atoms: C_12  and  C_8 
ROOT
ATOM      1  N   UNL d   1     -39.638  14.203  19.627  0.00  0.00    -0.123 N 
ATOM      2  N   UNL d   1     -40.780  14.573  18.866  0.00  0.00    -0.180 NA
ATOM      3  C   UNL d   1     -40.402  14.511  19.583  0.00  0.00     0.217 A 
ATOM      4  N   UNL d   1     -39.251  13.956  18.939  0.00  0.00    -0.141 NA
ATOM      5  N   UNL d   1     -39.246  14.136  20.344  0.00  0.00    -0.146 NA
ATOM      6  C   UNL d   1     -40.407  14.332  18.181  0.00  0.00     0.300 A 
ATOM      7  C   UNL d   1     -39.643  14.023  18.218  0.00  0.00     0.161 A 
ATOM      8  C   UNL d   1     -39.633  14.384  21.041  0.00  0.00     0.110 A 
ATOM      9  S   UNL d   1     -40.775  14.752  20.271  0.00  0.00    -0.045 SA
ATOM     10  C   UNL d   1     -40.397  14.692  21.004  0.00  0.00     0.059 A 
ATOM     11  O   UNL d   1     -40.793  14.395  17.453  0.00  0.00    -0.263 OA
ATOM     12  C   UNL d   1     -39.264  13.778  17.526  0.00  0.00     0.028 C 
ENDROOT
BRANCH   8  13
ATOM     13  C   UNL d   1     -39.248  14.320  21.765  0.00  0.00     0.020 A 
ATOM     14  C   UNL d   1     -38.914  14.992  22.111  0.00  0.00     0.002 A 
ATOM     15  C   UNL d   1     -38.527  14.929  22.839  0.00  0.00     0.000 A 
ATOM     16  C   UNL d   1     -38.477  14.198  23.217  0.00  0.00     0.000 A 
ATOM     17  C   UNL d   1     -38.813  13.529  22.867  0.00  0.00     0.000 A 
ATOM     18  C   UNL d   1     -39.198  13.592  22.141  0.00  0.00     0.002 A 
ENDBRANCH   8  13
TORSDOF 1
ENDMDL
