MODEL 1
REMARK VINA RESULT:     -11.8      0.000      0.000
REMARK  4 active torsions:
REMARK  status: ('A' for Active; 'I' for Inactive)
REMARK    1  A    between atoms: C_14  and  N_3 
REMARK    2  A    between atoms: C_9  and  C_5 
REMARK    3  A    between atoms: C_19  and  C_14 
REMARK    4  A    between atoms: C_23  and  C_19 
ROOT
ATOM      1  C   UNL d   1      52.934  32.579  53.431  0.00  0.00     0.083 A 
ATOM      2  C   UNL d   1      52.448  32.129  52.943  0.00  0.00     0.161 A 
ATOM      3  N   UNL d   1      53.352  31.302  53.481  0.00  0.00    -0.272 N 
ATOM      4  C   UNL d   1      52.701  31.339  52.970  0.00  0.00     0.288 A 
ATOM      5  C   UNL d   1      53.496  32.071  53.766  0.00  0.00     0.072 A 
ATOM      6  C   UNL d   1      52.810  33.390  53.513  0.00  0.00     0.201 A 
ATOM      7  O   UNL d   1      51.825  32.497  52.529  0.00  0.00    -0.302 OA
ATOM      8  C   UNL d   1      52.193  33.750  53.101  0.00  0.00     0.062 A 
ATOM      9  C   UNL d   1      51.704  33.304  52.612  0.00  0.00     0.103 A 
ATOM     10  O   UNL d   1      52.370  30.707  52.565  0.00  0.00    -0.264 OA
ATOM     11  O   UNL d   1      53.297  33.840  54.001  0.00  0.00    -0.286 OA
ATOM     12  C   UNL d   1      52.067  34.566  53.182  0.00  0.00     0.005 A 
ATOM     13  C   UNL d   1      51.082  33.679  52.199  0.00  0.00     0.025 A 
ATOM     14  C   UNL d   1      51.455  34.931  52.774  0.00  0.00     0.000 A 
ATOM     15  C   UNL d   1      50.961  34.486  52.282  0.00  0.00     0.002 A 
ENDROOT
BRANCH   5  16
ATOM     16  C   UNL d   1      53.985  32.517  54.255  0.00  0.00     0.019 A 
ATOM     17  C   UNL d   1      54.688  32.843  53.964  0.00  0.00     0.031 A 
ATOM     18  C   UNL d   1      55.174  33.289  54.457  0.00  0.00     0.140 A 
ATOM     19  F   UNL d   1      55.871  33.610  54.159  0.00  0.00    -0.204 F 
ATOM     20  C   UNL d   1      54.963  33.414  55.251  0.00  0.00     0.030 A 
ATOM     21  C   UNL d   1      54.260  33.088  55.543  0.00  0.00     0.002 A 
ATOM     22  C   UNL d   1      53.772  32.639  55.042  0.00  0.00     0.002 A 
ENDBRANCH   5  16
BRANCH   3  23
ATOM     23  C   UNL d   1      53.782  30.627  53.673  0.00  0.00     0.086 C 
BRANCH  23  24
ATOM     24  C   UNL d   1      53.386  29.932  53.864  0.00  0.00     0.065 C 
BRANCH  24  25
ATOM     25  C   UNL d   1      53.804  29.290  54.169  0.00  0.00     0.236 C 
ATOM     26  O   UNL d   1      53.429  28.752  54.652  0.00  0.00    -0.283 OA
ENDBRANCH  24  25
ENDBRANCH  23  24
ENDBRANCH   3  23
TORSDOF 4
ENDMDL
MODEL 2
REMARK VINA RESULT:     -11.1      1.707      4.144
REMARK  4 active torsions:
REMARK  status: ('A' for Active; 'I' for Inactive)
REMARK    1  A    between atoms: C_14  and  N_3 
REMARK    2  A    between atoms: C_9  and  C_5 
REMARK    3  A    between atoms: C_19  and  C_14 
REMARK    4  A    between atoms: C_23  and  C_19 
ROOT
ATOM      1  C   UNL d   1      52.851  32.957  53.430  0.00  0.00     0.083 A 
ATOM      2  C   UNL d   1      53.569  32.884  53.825  0.00  0.00     0.161 A 
ATOM      3  N   UNL d   1      53.251  34.183  53.809  0.00  0.00    -0.272 N 
ATOM      4  C   UNL d   1      53.821  33.639  54.061  0.00  0.00     0.288 A 
ATOM      5  C   UNL d   1      52.650  33.760  53.418  0.00  0.00     0.072 A 
ATOM      6  C   UNL d   1      52.468  32.291  53.130  0.00  0.00     0.201 A 
ATOM      7  O   UNL d   1      53.911  32.130  53.922  0.00  0.00    -0.302 OA
ATOM      8  C   UNL d   1      52.811  31.547  53.229  0.00  0.00     0.062 A 
ATOM      9  C   UNL d   1      53.529  31.469  53.623  0.00  0.00     0.103 A 
ATOM     10  O   UNL d   1      54.509  33.816  54.471  0.00  0.00    -0.264 OA
ATOM     11  O   UNL d   1      51.750  32.364  52.735  0.00  0.00    -0.286 OA
ATOM     12  C   UNL d   1      52.427  30.875  52.929  0.00  0.00     0.005 A 
ATOM     13  C   UNL d   1      53.866  30.711  53.718  0.00  0.00     0.025 A 
ATOM     14  C   UNL d   1      52.762  30.132  53.024  0.00  0.00     0.000 A 
ATOM     15  C   UNL d   1      53.484  30.050  53.419  0.00  0.00     0.002 A 
ENDROOT
BRANCH   5  16
ATOM     16  C   UNL d   1      51.932  33.838  53.023  0.00  0.00     0.019 A 
ATOM     17  C   UNL d   1      51.911  34.050  52.223  0.00  0.00     0.031 A 
ATOM     18  C   UNL d   1      51.191  34.127  51.833  0.00  0.00     0.140 A 
ATOM     19  F   UNL d   1      51.179  34.338  51.037  0.00  0.00    -0.204 F 
ATOM     20  C   UNL d   1      50.478  33.992  52.239  0.00  0.00     0.030 A 
ATOM     21  C   UNL d   1      50.497  33.780  53.039  0.00  0.00     0.002 A 
ATOM     22  C   UNL d   1      51.227  33.703  53.430  0.00  0.00     0.002 A 
ENDBRANCH   5  16
BRANCH   3  23
ATOM     23  C   UNL d   1      53.272  34.998  53.923  0.00  0.00     0.086 C 
BRANCH  23  24
ATOM     24  C   UNL d   1      53.211  35.305  54.684  0.00  0.00     0.065 C 
BRANCH  24  25
ATOM     25  C   UNL d   1      53.329  36.110  54.814  0.00  0.00     0.236 C 
ATOM     26  O   UNL d   1      52.710  36.579  55.059  0.00  0.00    -0.283 OA
ENDBRANCH  24  25
ENDBRANCH  23  24
ENDBRANCH   3  23
TORSDOF 4
ENDMDL
MODEL 3
REMARK VINA RESULT:      -9.9      1.024      3.328
REMARK  4 active torsions:
REMARK  status: ('A' for Active; 'I' for Inactive)
REMARK    1  A    between atoms: C_14  and  N_3 
REMARK    2  A    between atoms: C_9  and  C_5 
REMARK    3  A    between atoms: C_19  and  C_14 
REMARK    4  A    between atoms: C_23  and  C_19 
ROOT
ATOM      1  C   UNL d   1      53.160  32.147  53.527  0.00  0.00     0.083 A 
ATOM      2  C   UNL d   1      52.571  31.991  52.974  0.00  0.00     0.161 A 
ATOM      3  N   UNL d   1      52.656  33.320  53.106  0.00  0.00    -0.272 N 
ATOM      4  C   UNL d   1      52.256  32.712  52.710  0.00  0.00     0.288 A 
ATOM      5  C   UNL d   1      53.216  32.969  53.612  0.00  0.00     0.072 A 
ATOM      6  C   UNL d   1      53.572  31.529  53.885  0.00  0.00     0.201 A 
ATOM      7  O   UNL d   1      52.390  31.202  52.775  0.00  0.00    -0.302 OA
ATOM      8  C   UNL d   1      53.390  30.749  53.685  0.00  0.00     0.062 A 
ATOM      9  C   UNL d   1      52.802  30.589  53.133  0.00  0.00     0.103 A 
ATOM     10  O   UNL d   1      51.657  32.810  52.159  0.00  0.00    -0.264 OA
ATOM     11  O   UNL d   1      54.162  31.685  54.438  0.00  0.00    -0.286 OA
ATOM     12  C   UNL d   1      53.804  30.127  54.045  0.00  0.00     0.005 A 
ATOM     13  C   UNL d   1      52.626  29.797  52.938  0.00  0.00     0.025 A 
ATOM     14  C   UNL d   1      53.627  29.349  53.850  0.00  0.00     0.000 A 
ATOM     15  C   UNL d   1      53.037  29.184  53.295  0.00  0.00     0.002 A 
ENDROOT
BRANCH   5  16
ATOM     16  C   UNL d   1      53.805  33.129  54.164  0.00  0.00     0.019 A 
ATOM     17  C   UNL d   1      54.579  33.294  53.920  0.00  0.00     0.031 A 
ATOM     18  C   UNL d   1      55.164  33.454  54.476  0.00  0.00     0.140 A 
ATOM     19  F   UNL d   1      55.931  33.617  54.225  0.00  0.00    -0.204 F 
ATOM     20  C   UNL d   1      54.982  33.452  55.288  0.00  0.00     0.030 A 
ATOM     21  C   UNL d   1      54.209  33.287  55.533  0.00  0.00     0.002 A 
ATOM     22  C   UNL d   1      53.621  33.126  54.968  0.00  0.00     0.002 A 
ENDBRANCH   5  16
BRANCH   3  23
ATOM     23  C   UNL d   1      52.526  34.128  53.017  0.00  0.00     0.086 C 
BRANCH  23  24
ATOM     24  C   UNL d   1      51.762  34.426  53.077  0.00  0.00     0.065 C 
BRANCH  24  25
ATOM     25  C   UNL d   1      51.643  35.219  53.269  0.00  0.00     0.236 C 
ATOM     26  O   UNL d   1      50.952  35.451  53.633  0.00  0.00    -0.283 OA
ENDBRANCH  24  25
ENDBRANCH  23  24
ENDBRANCH   3  23
TORSDOF 4
ENDMDL
MODEL 4
REMARK VINA RESULT:      -9.4      1.479      2.994
REMARK  4 active torsions:
REMARK  status: ('A' for Active; 'I' for Inactive)
REMARK    1  A    between atoms: C_14  and  N_3 
REMARK    2  A    between atoms: C_9  and  C_5 
REMARK    3  A    between atoms: C_19  and  C_14 
REMARK    4  A    between atoms: C_23  and  C_19 
ROOT
ATOM      1  C   UNL d   1      53.244  32.858  53.798  0.00  0.00     0.083 A 
ATOM      2  C   UNL d   1      53.867  32.360  54.002  0.00  0.00     0.161 A 
ATOM      3  N   UNL d   1      53.033  31.661  53.224  0.00  0.00    -0.272 N 
ATOM      4  C   UNL d   1      53.742  31.619  53.650  0.00  0.00     0.288 A 
ATOM      5  C   UNL d   1      52.725  32.429  53.316  0.00  0.00     0.072 A 
ATOM      6  C   UNL d   1      53.222  33.636  54.072  0.00  0.00     0.201 A 
ATOM      7  O   UNL d   1      54.480  32.646  54.489  0.00  0.00    -0.302 OA
ATOM      8  C   UNL d   1      53.831  33.913  54.554  0.00  0.00     0.062 A 
ATOM      9  C   UNL d   1      54.456  33.419  54.761  0.00  0.00     0.103 A 
ATOM     10  O   UNL d   1      54.230  30.963  53.710  0.00  0.00    -0.264 OA
ATOM     11  O   UNL d   1      52.599  34.133  53.868  0.00  0.00    -0.286 OA
ATOM     12  C   UNL d   1      53.811  34.695  54.831  0.00  0.00     0.005 A 
ATOM     13  C   UNL d   1      55.067  33.711  55.249  0.00  0.00     0.025 A 
ATOM     14  C   UNL d   1      54.414  34.978  55.311  0.00  0.00     0.000 A 
ATOM     15  C   UNL d   1      55.043  34.484  55.521  0.00  0.00     0.002 A 
ENDROOT
BRANCH   5  16
ATOM     16  C   UNL d   1      52.100  32.923  53.110  0.00  0.00     0.019 A 
ATOM     17  C   UNL d   1      52.132  33.376  52.417  0.00  0.00     0.031 A 
ATOM     18  C   UNL d   1      51.505  33.869  52.215  0.00  0.00     0.140 A 
ATOM     19  F   UNL d   1      51.544  34.316  51.524  0.00  0.00    -0.204 F 
ATOM     20  C   UNL d   1      50.834  33.915  52.704  0.00  0.00     0.030 A 
ATOM     21  C   UNL d   1      50.801  33.463  53.397  0.00  0.00     0.002 A 
ATOM     22  C   UNL d   1      51.437  32.966  53.598  0.00  0.00     0.002 A 
ENDBRANCH   5  16
BRANCH   3  23
ATOM     23  C   UNL d   1      52.692  31.053  52.786  0.00  0.00     0.086 C 
BRANCH  23  24
ATOM     24  C   UNL d   1      52.765  30.275  53.042  0.00  0.00     0.065 C 
BRANCH  24  25
ATOM     25  C   UNL d   1      52.434  29.663  52.601  0.00  0.00     0.236 C 
ATOM     26  O   UNL d   1      52.224  28.965  52.965  0.00  0.00    -0.283 OA
ENDBRANCH  24  25
ENDBRANCH  23  24
ENDBRANCH   3  23
TORSDOF 4
ENDMDL
