MODEL 1
REMARK VINA RESULT:      46.9      0.000      0.000
REMARK  6 active torsions:
REMARK  status: ('A' for Active; 'I' for Inactive)
REMARK    1  A    between atoms: C_6  and  C_2 
REMARK    2  A    between atoms: C_7  and  C_6 
REMARK    3  A    between atoms: C_8  and  C_15 
REMARK       I    between atoms: N_9  and  C_8 
REMARK    4  A    between atoms: C_16  and  N_9 
REMARK    5  A    between atoms: O_13  and  C_12 
REMARK    6  A    between atoms: C_15  and  O_13 
ROOT
ATOM      1  C   UNL d   1      46.338 -18.542  40.817  0.00  0.00     0.023 A 
ATOM      2  C   UNL d   1      46.024 -18.278  40.105  0.00  0.00     0.100 A 
ATOM      3  C   UNL d   1      46.647 -19.297  40.879  0.00  0.00     0.002 A 
ATOM      4  C   UNL d   1      46.018 -18.773  39.449  0.00  0.00     0.025 A 
ATOM      5  C   UNL d   1      46.645 -19.799  40.226  0.00  0.00     0.000 A 
ATOM      6  C   UNL d   1      46.328 -19.531  39.509  0.00  0.00     0.002 A 
ENDROOT
BRANCH   2   7
ATOM      7  O   UNL d   1      45.712 -17.516  40.045  0.00  0.00    -0.300 OA
BRANCH   7   8
ATOM      8  C   UNL d   1      45.368 -17.274  39.331  0.00  0.00     0.185 C 
BRANCH   8   9
ATOM      9  C   UNL d   1      44.548 -17.159  39.290  0.00  0.00     0.304 C 
ATOM     10  N   UNL d   1      44.233 -16.696  38.683  0.00  0.00    -0.206 NA
ATOM     11  O   UNL d   1      44.055 -17.505  39.848  0.00  0.00    -0.263 OA
BRANCH  10  12
ATOM     12  C   UNL d   1      44.726 -16.351  38.124  0.00  0.00     0.085 A 
ATOM     13  C   UNL d   1      44.637 -16.521  37.324  0.00  0.00     0.021 A 
ATOM     14  C   UNL d   1      45.134 -16.173  36.760  0.00  0.00     0.031 A 
ATOM     15  C   UNL d   1      45.727 -15.648  37.006  0.00  0.00     0.140 A 
ATOM     16  C   UNL d   1      45.816 -15.478  37.811  0.00  0.00     0.031 A 
ATOM     17  F   UNL d   1      46.227 -15.297  36.451  0.00  0.00    -0.204 F 
ATOM     18  C   UNL d   1      45.319 -15.826  38.370  0.00  0.00     0.021 A 
ENDBRANCH  10  12
ENDBRANCH   8   9
ENDBRANCH   7   8
ENDBRANCH   2   7
BRANCH   1  19
ATOM     19  C   UNL d   1      46.344 -18.047  41.478  0.00  0.00     0.013 C 
BRANCH  19  20
ATOM     20  C   UNL d   1      46.313 -18.362  42.235  0.00  0.00     0.092 A 
ATOM     21  C   UNL d   1      46.002 -18.000  42.898  0.00  0.00     0.288 A 
ATOM     22  N   UNL d   1      46.085 -18.510  43.534  0.00  0.00    -0.163 NA
ATOM     23  O   UNL d   1      45.662 -17.250  42.924  0.00  0.00    -0.265 OA
ATOM     24  C   UNL d   1      46.453 -19.197  43.262  0.00  0.00     0.313 A 
ATOM     25  S   UNL d   1      46.594 -19.106  42.455  0.00  0.00    -0.021 SA
ATOM     26  O   UNL d   1      46.646 -19.862  43.717  0.00  0.00    -0.258 OA
ENDBRANCH  19  20
ENDBRANCH   1  19
TORSDOF 6
ENDMDL
MODEL 2
REMARK VINA RESULT:      49.3      4.622      5.597
REMARK  6 active torsions:
REMARK  status: ('A' for Active; 'I' for Inactive)
REMARK    1  A    between atoms: C_6  and  C_2 
REMARK    2  A    between atoms: C_7  and  C_6 
REMARK    3  A    between atoms: C_8  and  C_15 
REMARK       I    between atoms: N_9  and  C_8 
REMARK    4  A    between atoms: C_16  and  N_9 
REMARK    5  A    between atoms: O_13  and  C_12 
REMARK    6  A    between atoms: C_15  and  O_13 
ROOT
ATOM      1  C   UNL d   1      44.063 -15.972  36.612  0.00  0.00     0.023 A 
ATOM      2  C   UNL d   1      44.847 -15.738  36.693  0.00  0.00     0.100 A 
ATOM      3  C   UNL d   1      43.853 -16.756  36.708  0.00  0.00     0.002 A 
ATOM      4  C   UNL d   1      45.425 -16.293  36.872  0.00  0.00     0.025 A 
ATOM      5  C   UNL d   1      44.427 -17.319  36.888  0.00  0.00     0.000 A 
ATOM      6  C   UNL d   1      45.216 -17.082  36.970  0.00  0.00     0.002 A 
ENDROOT
BRANCH   2   7
ATOM      7  O   UNL d   1      45.057 -14.946  36.595  0.00  0.00    -0.300 OA
BRANCH   7   8
ATOM      8  C   UNL d   1      45.509 -14.571  37.179  0.00  0.00     0.185 C 
BRANCH   8   9
ATOM      9  C   UNL d   1      46.164 -14.113  36.960  0.00  0.00     0.304 C 
ATOM     10  N   UNL d   1      46.326 -13.415  37.371  0.00  0.00    -0.206 NA
ATOM     11  O   UNL d   1      46.645 -14.352  36.339  0.00  0.00    -0.263 OA
BRANCH  10  12
ATOM     12  C   UNL d   1      45.845 -13.175  37.991  0.00  0.00     0.085 A 
ATOM     13  C   UNL d   1      46.024 -13.386  38.766  0.00  0.00     0.021 A 
ATOM     14  C   UNL d   1      45.539 -13.145  39.393  0.00  0.00     0.031 A 
ATOM     15  C   UNL d   1      44.866 -12.687  39.236  0.00  0.00     0.140 A 
ATOM     16  C   UNL d   1      44.686 -12.476  38.456  0.00  0.00     0.031 A 
ATOM     17  F   UNL d   1      44.377 -12.442  39.854  0.00  0.00    -0.204 F 
ATOM     18  C   UNL d   1      45.172 -12.718  37.835  0.00  0.00     0.021 A 
ENDBRANCH  10  12
ENDBRANCH   8   9
ENDBRANCH   7   8
ENDBRANCH   2   7
BRANCH   1  19
ATOM     19  C   UNL d   1      43.479 -15.416  36.431  0.00  0.00     0.013 C 
BRANCH  19  20
ATOM     20  C   UNL d   1      42.716 -15.503  36.721  0.00  0.00     0.092 A 
ATOM     21  C   UNL d   1      42.436 -15.229  37.438  0.00  0.00     0.288 A 
ATOM     22  N   UNL d   1      41.646 -15.437  37.503  0.00  0.00    -0.163 NA
ATOM     23  O   UNL d   1      42.872 -14.813  38.000  0.00  0.00    -0.265 OA
ATOM     24  C   UNL d   1      41.434 -15.846  36.818  0.00  0.00     0.313 A 
ATOM     25  S   UNL d   1      42.099 -15.887  36.332  0.00  0.00    -0.021 SA
ATOM     26  O   UNL d   1      40.687 -16.159  36.647  0.00  0.00    -0.258 OA
ENDBRANCH  19  20
ENDBRANCH   1  19
TORSDOF 6
ENDMDL
