MODEL 1
REMARK VINA RESULT:     -11.4      0.000      0.000
REMARK  3 active torsions:
REMARK  status: ('A' for Active; 'I' for Inactive)
REMARK    1  A    between atoms: N_9  and  C_7 
REMARK       I    between atoms: C_10  and  N_9 
REMARK    2  A    between atoms: C_13  and  C_10 
REMARK    3  A    between atoms: O_23  and  C_18 
ROOT
ATOM      1  C   UNL d   1      53.281  33.182  53.811  0.00  0.00     0.081 A 
ATOM      2  C   UNL d   1      53.919  32.890  54.234  0.00  0.00     0.301 A 
ATOM      3  C   UNL d   1      52.814  32.690  53.346  0.00  0.00     0.090 A 
ATOM      4  O   UNL d   1      54.097  32.078  54.192  0.00  0.00    -0.273 OA
ATOM      5  N   UNL d   1      52.172  32.996  52.923  0.00  0.00    -0.226 NA
ATOM      6  C   UNL d   1      52.993  31.885  53.307  0.00  0.00     0.041 A 
ATOM      7  C   UNL d   1      52.002  33.809  52.971  0.00  0.00     0.166 A 
ATOM      8  C   UNL d   1      53.106  33.993  53.854  0.00  0.00     0.010 A 
ATOM      9  C   UNL d   1      53.635  31.576  53.729  0.00  0.00     0.105 A 
ATOM     10  C   UNL d   1      52.466  34.306  53.434  0.00  0.00     0.039 A 
ATOM     11  O   UNL d   1      54.387  33.390  54.701  0.00  0.00    -0.259 OA
ATOM     12  C   UNL d   1      52.528  31.384  52.842  0.00  0.00     0.004 A 
ATOM     13  C   UNL d   1      53.576  34.483  54.321  0.00  0.00     0.000 C 
ATOM     14  C   UNL d   1      53.813  30.780  53.691  0.00  0.00     0.025 A 
ATOM     15  C   UNL d   1      52.711  30.582  52.806  0.00  0.00     0.000 A 
ATOM     16  C   UNL d   1      53.354  30.280  53.231  0.00  0.00     0.002 A 
ENDROOT
BRANCH   7  17
ATOM     17  N   UNL d   1      51.354  34.122  52.545  0.00  0.00    -0.189 NA
ATOM     18  C   UNL d   1      50.600  34.101  52.875  0.00  0.00     0.281 C 
ATOM     19  O   UNL d   1      50.485  33.771  53.629  0.00  0.00    -0.265 OA
BRANCH  18  20
ATOM     20  C   UNL d   1      49.967  34.405  52.463  0.00  0.00     0.058 A 
ATOM     21  C   UNL d   1      49.845  34.195  51.665  0.00  0.00     0.007 A 
ATOM     22  C   UNL d   1      49.202  34.503  51.245  0.00  0.00     0.024 A 
ATOM     23  C   UNL d   1      48.690  35.021  51.643  0.00  0.00     0.094 A 
ATOM     24  C   UNL d   1      48.807  35.228  52.428  0.00  0.00     0.024 A 
ATOM     25  C   UNL d   1      49.448  34.916  52.832  0.00  0.00     0.007 A 
BRANCH  23  26
ATOM     26  O   UNL d   1      48.036  35.339  51.231  0.00  0.00    -0.328 OA
ATOM     27  C   UNL d   1      47.372  35.625  51.631  0.00  0.00     0.181 C 
ENDBRANCH  23  26
ENDBRANCH  18  20
ENDBRANCH   7  17
TORSDOF 3
ENDMDL
MODEL 2
REMARK VINA RESULT:     -11.2      0.852      2.125
REMARK  3 active torsions:
REMARK  status: ('A' for Active; 'I' for Inactive)
REMARK    1  A    between atoms: N_9  and  C_7 
REMARK       I    between atoms: C_10  and  N_9 
REMARK    2  A    between atoms: C_13  and  C_10 
REMARK    3  A    between atoms: O_23  and  C_18 
ROOT
ATOM      1  C   UNL d   1      53.123  32.328  53.549  0.00  0.00     0.081 A 
ATOM      2  C   UNL d   1      53.829  31.922  53.643  0.00  0.00     0.301 A 
ATOM      3  C   UNL d   1      53.004  33.065  53.894  0.00  0.00     0.090 A 
ATOM      4  O   UNL d   1      54.437  32.264  54.097  0.00  0.00    -0.273 OA
ATOM      5  N   UNL d   1      52.288  33.466  53.792  0.00  0.00    -0.226 NA
ATOM      6  C   UNL d   1      53.609  33.402  54.344  0.00  0.00     0.041 A 
ATOM      7  C   UNL d   1      51.685  33.117  53.337  0.00  0.00     0.166 A 
ATOM      8  C   UNL d   1      52.518  31.985  53.096  0.00  0.00     0.010 A 
ATOM      9  C   UNL d   1      54.328  33.003  54.447  0.00  0.00     0.105 A 
ATOM     10  C   UNL d   1      51.799  32.379  52.989  0.00  0.00     0.039 A 
ATOM     11  O   UNL d   1      53.944  31.179  53.294  0.00  0.00    -0.259 OA
ATOM     12  C   UNL d   1      53.497  34.142  54.693  0.00  0.00     0.004 A 
ATOM     13  C   UNL d   1      52.641  31.246  52.752  0.00  0.00     0.000 C 
ATOM     14  C   UNL d   1      54.927  33.335  54.892  0.00  0.00     0.025 A 
ATOM     15  C   UNL d   1      54.104  34.473  55.141  0.00  0.00     0.000 A 
ATOM     16  C   UNL d   1      54.820  34.069  55.240  0.00  0.00     0.002 A 
ENDROOT
BRANCH   7  17
ATOM     17  N   UNL d   1      50.960  33.519  53.232  0.00  0.00    -0.189 NA
ATOM     18  C   UNL d   1      50.860  34.019  52.585  0.00  0.00     0.281 C 
ATOM     19  O   UNL d   1      51.479  34.121  52.039  0.00  0.00    -0.265 OA
BRANCH  18  20
ATOM     20  C   UNL d   1      50.155  34.412  52.479  0.00  0.00     0.058 A 
ATOM     21  C   UNL d   1      49.827  34.861  53.101  0.00  0.00     0.007 A 
ATOM     22  C   UNL d   1      49.111  35.261  52.995  0.00  0.00     0.024 A 
ATOM     23  C   UNL d   1      48.737  35.200  52.256  0.00  0.00     0.094 A 
ATOM     24  C   UNL d   1      49.058  34.760  51.644  0.00  0.00     0.024 A 
ATOM     25  C   UNL d   1      49.767  34.368  51.762  0.00  0.00     0.007 A 
BRANCH  23  26
ATOM     26  O   UNL d   1      48.012  35.600  52.136  0.00  0.00    -0.328 OA
ATOM     27  C   UNL d   1      47.673  36.062  52.732  0.00  0.00     0.181 C 
ENDBRANCH  23  26
ENDBRANCH  18  20
ENDBRANCH   7  17
TORSDOF 3
ENDMDL
MODEL 3
REMARK VINA RESULT:      -8.8      1.145      5.745
REMARK  3 active torsions:
REMARK  status: ('A' for Active; 'I' for Inactive)
REMARK    1  A    between atoms: N_9  and  C_7 
REMARK       I    between atoms: C_10  and  N_9 
REMARK    2  A    between atoms: C_13  and  C_10 
REMARK    3  A    between atoms: O_23  and  C_18 
ROOT
ATOM      1  C   UNL d   1      48.441  35.066  51.862  0.00  0.00     0.081 A 
ATOM      2  C   UNL d   1      47.680  35.207  51.592  0.00  0.00     0.301 A 
ATOM      3  C   UNL d   1      48.701  35.363  52.584  0.00  0.00     0.090 A 
ATOM      4  O   UNL d   1      47.161  35.661  52.059  0.00  0.00    -0.273 OA
ATOM      5  N   UNL d   1      49.471  35.214  52.847  0.00  0.00    -0.226 NA
ATOM      6  C   UNL d   1      48.184  35.812  53.044  0.00  0.00     0.041 A 
ATOM      7  C   UNL d   1      49.983  34.759  52.374  0.00  0.00     0.166 A 
ATOM      8  C   UNL d   1      48.957  34.614  51.395  0.00  0.00     0.010 A 
ATOM      9  C   UNL d   1      47.412  35.963  52.784  0.00  0.00     0.105 A 
ATOM     10  C   UNL d   1      49.728  34.460  51.651  0.00  0.00     0.039 A 
ATOM     11  O   UNL d   1      47.422  34.907  50.864  0.00  0.00    -0.259 OA
ATOM     12  C   UNL d   1      48.438  36.114  53.771  0.00  0.00     0.004 A 
ATOM     13  C   UNL d   1      48.692  34.318  50.672  0.00  0.00     0.000 C 
ATOM     14  C   UNL d   1      46.900  36.407  53.238  0.00  0.00     0.025 A 
ATOM     15  C   UNL d   1      47.918  36.561  54.226  0.00  0.00     0.000 A 
ATOM     16  C   UNL d   1      47.148  36.708  53.959  0.00  0.00     0.002 A 
ENDROOT
BRANCH   7  17
ATOM     17  N   UNL d   1      50.762  34.607  52.636  0.00  0.00    -0.189 NA
ATOM     18  C   UNL d   1      50.927  33.909  53.041  0.00  0.00     0.281 C 
ATOM     19  O   UNL d   1      50.320  33.359  53.186  0.00  0.00    -0.265 OA
BRANCH  18  20
ATOM     20  C   UNL d   1      51.684  33.756  53.298  0.00  0.00     0.058 A 
ATOM     21  C   UNL d   1      52.157  34.373  53.602  0.00  0.00     0.007 A 
ATOM     22  C   UNL d   1      52.927  34.219  53.863  0.00  0.00     0.024 A 
ATOM     23  C   UNL d   1      53.207  33.439  53.812  0.00  0.00     0.094 A 
ATOM     24  C   UNL d   1      52.744  32.832  53.514  0.00  0.00     0.024 A 
ATOM     25  C   UNL d   1      51.983  32.997  53.258  0.00  0.00     0.007 A 
BRANCH  23  26
ATOM     26  O   UNL d   1      53.983  33.271  54.074  0.00  0.00    -0.328 OA
ATOM     27  C   UNL d   1      54.126  32.966  54.828  0.00  0.00     0.181 C 
ENDBRANCH  23  26
ENDBRANCH  18  20
ENDBRANCH   7  17
TORSDOF 3
ENDMDL
