MODEL 1
REMARK VINA RESULT:      24.0      0.000      0.000
REMARK  4 active torsions:
REMARK  status: ('A' for Active; 'I' for Inactive)
REMARK    1  A    between atoms: C_2  and  S_1 
REMARK    2  A    between atoms: N_3  and  S_1 
REMARK    3  A    between atoms: C_5  and  C_11 
REMARK    4  A    between atoms: O_20  and  C_8 
ROOT
ATOM      1  S   UNL d   1      14.305  12.516  -2.308  0.00  0.00     0.273 S 
ATOM      2  O   UNL d   1      14.682  13.237  -2.467  0.00  0.00    -0.200 OA
ATOM      3  O   UNL d   1      13.931  11.795  -2.145  0.00  0.00    -0.200 OA
ENDROOT
BRANCH   1   4
ATOM      4  C   UNL d   1      14.641  12.521  -1.559  0.00  0.00     0.128 A 
ATOM      5  C   UNL d   1      15.429  12.735  -1.460  0.00  0.00     0.044 A 
ATOM      6  C   UNL d   1      15.766  12.740  -0.706  0.00  0.00     0.141 A 
ATOM      7  F   UNL d   1      16.559  12.956  -0.609  0.00  0.00    -0.204 F 
ATOM      8  C   UNL d   1      15.309  12.528  -0.056  0.00  0.00     0.032 A 
ATOM      9  C   UNL d   1      14.517  12.312  -0.153  0.00  0.00     0.027 A 
ATOM     10  C   UNL d   1      14.185  12.309  -0.904  0.00  0.00     0.106 A 
BRANCH  10  11
ATOM     11  O   UNL d   1      13.390  12.093  -1.011  0.00  0.00    -0.327 OA
ATOM     12  C   UNL d   1      12.954  11.803  -0.368  0.00  0.00     0.181 C 
ENDBRANCH  10  11
ENDBRANCH   1   4
BRANCH   1  13
ATOM     13  N   UNL d   1      13.967  12.512  -3.064  0.00  0.00    -0.229 N 
ATOM     14  C   UNL d   1      13.980  13.195  -3.537  0.00  0.00     0.092 A 
ATOM     15  C   UNL d   1      13.641  13.191  -4.294  0.00  0.00     0.025 A 
ATOM     16  C   UNL d   1      13.290  12.503  -4.577  0.00  0.00     0.062 A 
ATOM     17  C   UNL d   1      13.270  11.819  -4.120  0.00  0.00     0.025 A 
ATOM     18  C   UNL d   1      13.609  11.823  -3.363  0.00  0.00     0.092 A 
BRANCH  16  19
ATOM     19  C   UNL d   1      12.951  12.498  -5.334  0.00  0.00     0.297 C 
ATOM     20  O   UNL d   1      12.774  13.212  -5.713  0.00  0.00    -0.264 OA
ATOM     21  N   UNL d   1      12.786  11.780  -5.718  0.00  0.00    -0.102 N 
ENDBRANCH  16  19
ENDBRANCH   1  13
TORSDOF 4
ENDMDL
