MODEL 1
REMARK VINA RESULT:      25.0      0.000      0.000
REMARK  4 active torsions:
REMARK  status: ('A' for Active; 'I' for Inactive)
REMARK    1  A    between atoms: S_2  and  N_1 
REMARK    2  A    between atoms: C_6  and  S_2 
REMARK    3  A    between atoms: C_10  and  C_6 
REMARK    4  A    between atoms: C_11  and  C_10 
ROOT
ATOM      1  S   UNL d   1     -55.840 -99.722 -44.350  0.00  0.00     0.287 S 
ATOM      2  O   UNL d   1     -55.413 -99.468 -45.011  0.00  0.00    -0.198 OA
ATOM      3  O   UNL d   1     -56.271 -99.960 -43.694  0.00  0.00    -0.198 OA
ENDROOT
BRANCH   1   4
ATOM      4  N   UNL d   1     -55.465-100.451 -44.362  0.00  0.00    -0.152 N 
ATOM      5  N   UNL d   1     -55.524-101.009 -44.973  0.00  0.00    -0.155 NA
ATOM      6  C   UNL d   1     -55.058-101.661 -44.758  0.00  0.00     0.104 A 
ATOM      7  C   UNL d   1     -54.953-102.349 -45.201  0.00  0.00     0.022 C 
ATOM      8  C   UNL d   1     -54.721-101.495 -44.020  0.00  0.00     0.041 A 
ATOM      9  C   UNL d   1     -54.972-100.750 -43.776  0.00  0.00     0.096 A 
ATOM     10  C   UNL d   1     -54.766-100.374 -43.075  0.00  0.00     0.022 C 
ENDBRANCH   1   4
BRANCH   1  11
ATOM     11  C   UNL d   1     -56.229 -98.991 -44.321  0.00  0.00     0.117 C 
BRANCH  11  12
ATOM     12  C   UNL d   1     -56.841 -98.830 -44.859  0.00  0.00     0.014 C 
BRANCH  12  13
ATOM     13  C   UNL d   1     -57.625 -98.824 -44.607  0.00  0.00     0.001 A 
ATOM     14  C   UNL d   1     -58.227 -98.877 -45.151  0.00  0.00     0.000 A 
ATOM     15  C   UNL d   1     -59.011 -98.871 -44.898  0.00  0.00     0.000 A 
ATOM     16  C   UNL d   1     -59.185 -98.811 -44.093  0.00  0.00     0.000 A 
ATOM     17  C   UNL d   1     -58.570 -98.757 -43.546  0.00  0.00     0.000 A 
ATOM     18  C   UNL d   1     -57.786 -98.763 -43.800  0.00  0.00     0.000 A 
ENDBRANCH  12  13
ENDBRANCH  11  12
ENDBRANCH   1  11
TORSDOF 4
ENDMDL
