MODEL 1
REMARK VINA RESULT:      36.2      0.000      0.000
REMARK  3 active torsions:
REMARK  status: ('A' for Active; 'I' for Inactive)
REMARK    1  A    between atoms: C_7  and  C_2 
REMARK       I    between atoms: N_9  and  C_7 
REMARK    2  A    between atoms: C_12  and  N_9 
REMARK    3  A    between atoms: C_11  and  C_12 
ROOT
ATOM      1  C   UNL d   1      59.778  49.306  49.833  0.00  0.00     0.285 C 
ATOM      2  N   UNL d   1      58.986  49.372  49.607  0.00  0.00    -0.206 NA
ATOM      3  O   UNL d   1      60.366  49.210  49.264  0.00  0.00    -0.265 OA
ENDROOT
BRANCH   1   4
ATOM      4  C   UNL d   1      59.982  49.338  50.639  0.00  0.00     0.133 A 
ATOM      5  C   UNL d   1      60.756  49.519  50.872  0.00  0.00     0.272 A 
ATOM      6  N   UNL d   1      60.947  49.547  51.663  0.00  0.00    -0.252 N 
ATOM      7  O   UNL d   1      61.330  49.669  50.300  0.00  0.00    -0.266 OA
ATOM      8  C   UNL d   1      60.373  49.396  52.234  0.00  0.00     0.182 A 
ATOM      9  C   UNL d   1      61.652  49.708  52.056  0.00  0.00     0.092 A 
ATOM     10  N   UNL d   1      59.609  49.218  52.013  0.00  0.00    -0.220 NA
ATOM     11  S   UNL d   1      60.723  49.464  52.981  0.00  0.00    -0.048 SA
ATOM     12  C   UNL d   1      59.409  49.187  51.210  0.00  0.00     0.111 A 
ATOM     13  C   UNL d   1      61.514  49.656  52.867  0.00  0.00     0.057 A 
ENDBRANCH   1   4
BRANCH   2  14
ATOM     14  C   UNL d   1      58.402  49.468  50.179  0.00  0.00     0.103 C 
BRANCH  14  15
ATOM     15  C   UNL d   1      57.619  49.546  49.946  0.00  0.00     0.030 A 
ATOM     16  C   UNL d   1      57.019  49.614  50.514  0.00  0.00     0.059 A 
ATOM     17 CL   UNL d   1      57.211  49.602  51.314  0.00  0.00    -0.082 Cl
ATOM     18  C   UNL d   1      56.237  49.692  50.289  0.00  0.00     0.011 A 
ATOM     19  C   UNL d   1      56.038  49.704  49.481  0.00  0.00     0.001 A 
ATOM     20  C   UNL d   1      56.633  49.638  48.914  0.00  0.00     0.000 A 
ATOM     21  C   UNL d   1      57.426  49.558  49.144  0.00  0.00     0.002 A 
ENDBRANCH  14  15
ENDBRANCH   2  14
TORSDOF 3
ENDMDL
