MODEL 1
REMARK VINA RESULT:      -7.7      0.000      0.000
REMARK  4 active torsions:
REMARK  status: ('A' for Active; 'I' for Inactive)
REMARK    1  A    between atoms: C_5  and  N_1 
REMARK    2  A    between atoms: C_7  and  C_5 
REMARK    3  A    between atoms: O_10  and  C_8 
REMARK    4  A    between atoms: C_14  and  O_10 
ROOT
ATOM      1  C   UNL d   1      53.070  32.868  53.126  0.00  0.00     0.086 C 
ENDROOT
BRANCH   1   2
ATOM      2  N   UNL d   1      52.664  33.584  53.121  0.00  0.00    -0.268 N 
ATOM      3  C   UNL d   1      53.006  34.340  53.141  0.00  0.00     0.296 A 
ATOM      4  S   UNL d   1      52.393  34.893  53.127  0.00  0.00    -0.025 SA
ATOM      5  O   UNL d   1      53.812  34.509  53.171  0.00  0.00    -0.259 OA
ATOM      6  C   UNL d   1      51.678  34.487  53.098  0.00  0.00     0.050 A 
ATOM      7  C   UNL d   1      51.842  33.674  53.094  0.00  0.00     0.073 A 
ATOM      8  C   UNL d   1      50.885  34.742  53.074  0.00  0.00     0.008 A 
ATOM      9  C   UNL d   1      51.232  33.127  53.067  0.00  0.00     0.018 A 
ATOM     10  C   UNL d   1      50.449  33.385  53.043  0.00  0.00     0.002 A 
ATOM     11  C   UNL d   1      50.276  34.185  53.047  0.00  0.00     0.001 A 
ENDBRANCH   1   2
BRANCH   1  12
ATOM     12  C   UNL d   1      53.384  32.581  53.836  0.00  0.00     0.040 A 
ATOM     13  C   UNL d   1      53.505  31.774  53.921  0.00  0.00     0.101 A 
ATOM     14  C   UNL d   1      53.815  31.489  54.621  0.00  0.00     0.025 A 
ATOM     15  C   UNL d   1      54.007  32.009  55.243  0.00  0.00     0.002 A 
ATOM     16  C   UNL d   1      53.881  32.818  55.146  0.00  0.00     0.000 A 
ATOM     17  C   UNL d   1      53.567  33.105  54.436  0.00  0.00     0.004 A 
BRANCH  13  18
ATOM     18  O   UNL d   1      53.306  31.285  53.290  0.00  0.00    -0.307 OA
BRANCH  18  19
ATOM     19  C   UNL d   1      53.408  30.466  53.353  0.00  0.00     0.100 C 
ATOM     20  C   UNL d   1      52.757  29.985  53.527  0.00  0.00     0.027 C 
ATOM     21  C   UNL d   1      54.148  30.131  53.245  0.00  0.00     0.027 C 
ENDBRANCH  18  19
ENDBRANCH  13  18
ENDBRANCH   1  12
TORSDOF 4
ENDMDL
MODEL 2
REMARK VINA RESULT:      -7.7      1.789      3.709
REMARK  4 active torsions:
REMARK  status: ('A' for Active; 'I' for Inactive)
REMARK    1  A    between atoms: C_5  and  N_1 
REMARK    2  A    between atoms: C_7  and  C_5 
REMARK    3  A    between atoms: O_10  and  C_8 
REMARK    4  A    between atoms: C_14  and  O_10 
ROOT
ATOM      1  C   UNL d   1      53.023  32.091  53.950  0.00  0.00     0.086 C 
ENDROOT
BRANCH   1   2
ATOM      2  N   UNL d   1      52.985  31.351  53.593  0.00  0.00    -0.268 N 
ATOM      3  C   UNL d   1      52.829  31.202  52.790  0.00  0.00     0.296 A 
ATOM      4  S   UNL d   1      52.845  30.384  52.680  0.00  0.00    -0.025 SA
ATOM      5  O   UNL d   1      52.685  31.769  52.210  0.00  0.00    -0.259 OA
ATOM      6  C   UNL d   1      53.008  30.027  53.403  0.00  0.00     0.050 A 
ATOM      7  C   UNL d   1      53.096  30.624  53.972  0.00  0.00     0.073 A 
ATOM      8  C   UNL d   1      53.092  29.230  53.632  0.00  0.00     0.008 A 
ATOM      9  C   UNL d   1      53.263  30.433  54.752  0.00  0.00     0.018 A 
ATOM     10  C   UNL d   1      53.345  29.642  54.973  0.00  0.00     0.002 A 
ATOM     11  C   UNL d   1      53.260  29.046  54.418  0.00  0.00     0.001 A 
ENDBRANCH   1   2
BRANCH   1  12
ATOM     12  C   UNL d   1      53.716  32.539  53.890  0.00  0.00     0.040 A 
ATOM     13  C   UNL d   1      53.706  33.322  54.133  0.00  0.00     0.101 A 
ATOM     14  C   UNL d   1      54.390  33.766  54.075  0.00  0.00     0.025 A 
ATOM     15  C   UNL d   1      55.089  33.430  53.772  0.00  0.00     0.002 A 
ATOM     16  C   UNL d   1      55.086  32.642  53.531  0.00  0.00     0.000 A 
ATOM     17  C   UNL d   1      54.393  32.194  53.591  0.00  0.00     0.004 A 
BRANCH  13  18
ATOM     18  O   UNL d   1      53.001  33.627  54.428  0.00  0.00    -0.307 OA
BRANCH  18  19
ATOM     19  C   UNL d   1      52.907  34.445  54.512  0.00  0.00     0.100 C 
ATOM     20  C   UNL d   1      52.576  34.885  53.894  0.00  0.00     0.027 C 
ATOM     21  C   UNL d   1      53.138  34.819  55.204  0.00  0.00     0.027 C 
ENDBRANCH  18  19
ENDBRANCH  13  18
ENDBRANCH   1  12
TORSDOF 4
ENDMDL
MODEL 3
REMARK VINA RESULT:      -7.4      1.438      3.463
REMARK  4 active torsions:
REMARK  status: ('A' for Active; 'I' for Inactive)
REMARK    1  A    between atoms: C_5  and  N_1 
REMARK    2  A    between atoms: C_7  and  C_5 
REMARK    3  A    between atoms: O_10  and  C_8 
REMARK    4  A    between atoms: C_14  and  O_10 
ROOT
ATOM      1  C   UNL d   1      52.958  32.680  52.828  0.00  0.00     0.086 C 
ENDROOT
BRANCH   1   2
ATOM      2  N   UNL d   1      53.377  32.034  53.117  0.00  0.00    -0.268 N 
ATOM      3  C   UNL d   1      54.184  32.024  53.317  0.00  0.00     0.296 A 
ATOM      4  S   UNL d   1      54.366  31.264  53.582  0.00  0.00    -0.025 SA
ATOM      5  O   UNL d   1      54.707  32.658  53.261  0.00  0.00    -0.259 OA
ATOM      6  C   UNL d   1      53.684  30.806  53.549  0.00  0.00     0.050 A 
ATOM      7  C   UNL d   1      53.068  31.280  53.261  0.00  0.00     0.073 A 
ATOM      8  C   UNL d   1      53.528  30.010  53.742  0.00  0.00     0.008 A 
ATOM      9  C   UNL d   1      52.314  30.971  53.167  0.00  0.00     0.018 A 
ATOM     10  C   UNL d   1      52.166  30.183  53.359  0.00  0.00     0.002 A 
ATOM     11  C   UNL d   1      52.768  29.706  53.645  0.00  0.00     0.001 A 
ENDBRANCH   1   2
BRANCH   1  12
ATOM     12  C   UNL d   1      52.774  33.308  53.334  0.00  0.00     0.040 A 
ATOM     13  C   UNL d   1      52.122  33.776  53.166  0.00  0.00     0.101 A 
ATOM     14  C   UNL d   1      51.938  34.398  53.664  0.00  0.00     0.025 A 
ATOM     15  C   UNL d   1      52.406  34.556  54.335  0.00  0.00     0.002 A 
ATOM     16  C   UNL d   1      53.059  34.078  54.493  0.00  0.00     0.000 A 
ATOM     17  C   UNL d   1      53.243  33.450  53.987  0.00  0.00     0.004 A 
BRANCH  13  18
ATOM     18  O   UNL d   1      51.678  33.597  52.497  0.00  0.00    -0.307 OA
BRANCH  18  19
ATOM     19  C   UNL d   1      51.059  34.095  52.264  0.00  0.00     0.100 C 
ATOM     20  C   UNL d   1      51.143  34.565  51.588  0.00  0.00     0.027 C 
ATOM     21  C   UNL d   1      50.365  34.123  52.700  0.00  0.00     0.027 C 
ENDBRANCH  18  19
ENDBRANCH  13  18
ENDBRANCH   1  12
TORSDOF 4
ENDMDL
MODEL 4
REMARK VINA RESULT:      -6.9      1.112      1.992
REMARK  4 active torsions:
REMARK  status: ('A' for Active; 'I' for Inactive)
REMARK    1  A    between atoms: C_5  and  N_1 
REMARK    2  A    between atoms: C_7  and  C_5 
REMARK    3  A    between atoms: O_10  and  C_8 
REMARK    4  A    between atoms: C_14  and  O_10 
ROOT
ATOM      1  C   UNL d   1      52.592  33.785  53.688  0.00  0.00     0.086 C 
ENDROOT
BRANCH   1   2
ATOM      2  N   UNL d   1      52.144  34.036  53.044  0.00  0.00    -0.268 N 
ATOM      3  C   UNL d   1      52.441  34.337  52.329  0.00  0.00     0.296 A 
ATOM      4  S   UNL d   1      51.796  34.516  51.846  0.00  0.00    -0.025 SA
ATOM      5  O   UNL d   1      53.236  34.437  52.136  0.00  0.00    -0.259 OA
ATOM      6  C   UNL d   1      51.106  34.330  52.254  0.00  0.00     0.050 A 
ATOM      7  C   UNL d   1      51.318  34.032  52.998  0.00  0.00     0.073 A 
ATOM      8  C   UNL d   1      50.300  34.389  52.054  0.00  0.00     0.008 A 
ATOM      9  C   UNL d   1      50.741  33.798  53.532  0.00  0.00     0.018 A 
ATOM     10  C   UNL d   1      49.944  33.859  53.328  0.00  0.00     0.002 A 
ATOM     11  C   UNL d   1      49.725  34.152  52.596  0.00  0.00     0.001 A 
ENDBRANCH   1   2
BRANCH   1  12
ATOM     12  C   UNL d   1      52.972  33.051  53.660  0.00  0.00     0.040 A 
ATOM     13  C   UNL d   1      53.613  32.916  54.154  0.00  0.00     0.101 A 
ATOM     14  C   UNL d   1      53.990  32.191  54.128  0.00  0.00     0.025 A 
ATOM     15  C   UNL d   1      53.729  31.595  53.608  0.00  0.00     0.002 A 
ATOM     16  C   UNL d   1      53.083  31.743  53.117  0.00  0.00     0.000 A 
ATOM     17  C   UNL d   1      52.703  32.478  53.144  0.00  0.00     0.004 A 
BRANCH  13  18
ATOM     18  O   UNL d   1      53.849  33.522  54.657  0.00  0.00    -0.307 OA
BRANCH  18  19
ATOM     19  C   UNL d   1      54.516  33.426  55.138  0.00  0.00     0.100 C 
ATOM     20  C   UNL d   1      55.249  33.716  54.884  0.00  0.00     0.027 C 
ATOM     21  C   UNL d   1      54.453  33.047  55.861  0.00  0.00     0.027 C 
ENDBRANCH  18  19
ENDBRANCH  13  18
ENDBRANCH   1  12
TORSDOF 4
ENDMDL
MODEL 5
REMARK VINA RESULT:      -6.6      1.063      2.529
REMARK  4 active torsions:
REMARK  status: ('A' for Active; 'I' for Inactive)
REMARK    1  A    between atoms: C_5  and  N_1 
REMARK    2  A    between atoms: C_7  and  C_5 
REMARK    3  A    between atoms: O_10  and  C_8 
REMARK    4  A    between atoms: C_14  and  O_10 
ROOT
ATOM      1  C   UNL d   1      53.255  32.889  53.143  0.00  0.00     0.086 C 
ENDROOT
BRANCH   1   2
ATOM      2  N   UNL d   1      53.410  33.565  53.586  0.00  0.00    -0.268 N 
ATOM      3  C   UNL d   1      53.156  34.336  53.406  0.00  0.00     0.296 A 
ATOM      4  S   UNL d   1      53.438  34.836  53.999  0.00  0.00    -0.025 SA
ATOM      5  O   UNL d   1      52.705  34.560  52.754  0.00  0.00    -0.259 OA
ATOM      6  C   UNL d   1      53.862  34.385  54.541  0.00  0.00     0.050 A 
ATOM      7  C   UNL d   1      53.846  33.596  54.288  0.00  0.00     0.073 A 
ATOM      8  C   UNL d   1      54.268  34.580  55.242  0.00  0.00     0.008 A 
ATOM      9  C   UNL d   1      54.226  33.012  54.722  0.00  0.00     0.018 A 
ATOM     10  C   UNL d   1      54.626  33.211  55.415  0.00  0.00     0.002 A 
ATOM     11  C   UNL d   1      54.647  33.988  55.673  0.00  0.00     0.001 A 
ENDBRANCH   1   2
BRANCH   1  12
ATOM     12  C   UNL d   1      52.506  32.538  53.181  0.00  0.00     0.040 A 
ATOM     13  C   UNL d   1      52.445  31.722  53.121  0.00  0.00     0.101 A 
ATOM     14  C   UNL d   1      51.706  31.374  53.159  0.00  0.00     0.025 A 
ATOM     15  C   UNL d   1      51.023  31.839  53.256  0.00  0.00     0.002 A 
ATOM     16  C   UNL d   1      51.097  32.658  53.315  0.00  0.00     0.000 A 
ATOM     17  C   UNL d   1      51.846  33.009  53.277  0.00  0.00     0.004 A 
BRANCH  13  18
ATOM     18  O   UNL d   1      53.137  31.289  53.025  0.00  0.00    -0.307 OA
BRANCH  18  19
ATOM     19  C   UNL d   1      53.107  30.462  52.990  0.00  0.00     0.100 C 
ATOM     20  C   UNL d   1      53.230  30.018  53.678  0.00  0.00     0.027 C 
ATOM     21  C   UNL d   1      52.956  30.083  52.280  0.00  0.00     0.027 C 
ENDBRANCH  18  19
ENDBRANCH  13  18
ENDBRANCH   1  12
TORSDOF 4
ENDMDL
MODEL 6
REMARK VINA RESULT:      -6.5      1.473      3.868
REMARK  4 active torsions:
REMARK  status: ('A' for Active; 'I' for Inactive)
REMARK    1  A    between atoms: C_5  and  N_1 
REMARK    2  A    between atoms: C_7  and  C_5 
REMARK    3  A    between atoms: O_10  and  C_8 
REMARK    4  A    between atoms: C_14  and  O_10 
ROOT
ATOM      1  C   UNL d   1      51.999  33.408  53.626  0.00  0.00     0.086 C 
ENDROOT
BRANCH   1   2
ATOM      2  N   UNL d   1      52.691  33.012  53.828  0.00  0.00    -0.268 N 
ATOM      3  C   UNL d   1      52.919  32.259  53.560  0.00  0.00     0.296 A 
ATOM      4  S   UNL d   1      53.650  32.082  53.902  0.00  0.00    -0.025 SA
ATOM      5  O   UNL d   1      52.494  31.776  53.045  0.00  0.00    -0.259 OA
ATOM      6  C   UNL d   1      53.874  32.716  54.378  0.00  0.00     0.050 A 
ATOM      7  C   UNL d   1      53.281  33.294  54.334  0.00  0.00     0.073 A 
ATOM      8  C   UNL d   1      54.544  32.854  54.854  0.00  0.00     0.008 A 
ATOM      9  C   UNL d   1      53.353  33.995  54.754  0.00  0.00     0.018 A 
ATOM     10  C   UNL d   1      54.018  34.127  55.224  0.00  0.00     0.002 A 
ATOM     11  C   UNL d   1      54.609  33.561  55.273  0.00  0.00     0.001 A 
ENDBRANCH   1   2
BRANCH   1  12
ATOM     12  C   UNL d   1      51.954  33.812  52.905  0.00  0.00     0.040 A 
ATOM     13  C   UNL d   1      51.229  34.106  52.659  0.00  0.00     0.101 A 
ATOM     14  C   UNL d   1      51.183  34.505  51.946  0.00  0.00     0.025 A 
ATOM     15  C   UNL d   1      51.861  34.613  51.475  0.00  0.00     0.002 A 
ATOM     16  C   UNL d   1      52.584  34.312  51.734  0.00  0.00     0.000 A 
ATOM     17  C   UNL d   1      52.629  33.908  52.455  0.00  0.00     0.004 A 
BRANCH  13  18
ATOM     18  O   UNL d   1      50.577  33.985  53.144  0.00  0.00    -0.307 OA
BRANCH  18  19
ATOM     19  C   UNL d   1      49.873  34.398  53.003  0.00  0.00     0.100 C 
ATOM     20  C   UNL d   1      49.675  35.045  53.479  0.00  0.00     0.027 C 
ATOM     21  C   UNL d   1      49.373  34.167  52.396  0.00  0.00     0.027 C 
ENDBRANCH  18  19
ENDBRANCH  13  18
ENDBRANCH   1  12
TORSDOF 4
ENDMDL
