MODEL 1
REMARK VINA RESULT:      59.2      0.000      0.000
REMARK  5 active torsions:
REMARK  status: ('A' for Active; 'I' for Inactive)
REMARK    1  A    between atoms: C_10  and  C_3 
REMARK    2  A    between atoms: N_12  and  C_4 
REMARK    3  A    between atoms: N_11  and  C_21 
REMARK    4  A    between atoms: C_20  and  N_12 
REMARK    5  A    between atoms: C_21  and  C_20 
ROOT
ATOM      1  C   UNL d   1      13.918  13.921  -3.117  0.00  0.00     0.168 A 
ATOM      2  N   UNL d   1      13.881  14.510  -3.731  0.00  0.00    -0.184 N 
ATOM      3  C   UNL d   1      14.308  14.080  -2.424  0.00  0.00     0.057 A 
ATOM      4  C   UNL d   1      13.488  14.334  -4.414  0.00  0.00     0.218 A 
ATOM      5  N   UNL d   1      14.637  15.394  -2.911  0.00  0.00    -0.160 NA
ATOM      6  N   UNL d   1      13.560  13.196  -3.227  0.00  0.00    -0.227 NA
ATOM      7  C   UNL d   1      13.124  13.604  -4.535  0.00  0.00     0.071 A 
ATOM      8  C   UNL d   1      14.673  14.823  -2.316  0.00  0.00     0.124 A 
ATOM      9  C   UNL d   1      13.160  13.025  -3.930  0.00  0.00     0.087 A 
ATOM     10  C   UNL d   1      12.783  12.261  -4.047  0.00  0.00     0.021 C 
ENDROOT
BRANCH   4  11
ATOM     11  N   UNL d   1      13.449  14.926  -5.036  0.00  0.00    -0.379 NA
BRANCH  11  12
ATOM     12  C   UNL d   1      13.233  15.581  -5.544  0.00  0.00     0.182 C 
BRANCH  12  13
ATOM     13  C   UNL d   1      13.836  16.000  -5.946  0.00  0.00     0.116 C 
BRANCH  13  14
ATOM     14  N   UNL d   1      13.760  16.853  -6.056  0.00  0.00    -0.297 N 
ATOM     15  C   UNL d   1      13.011  17.187  -6.256  0.00  0.00     0.107 A 
ATOM     16  C   UNL d   1      12.931  18.046  -6.368  0.00  0.00     0.142 A 
ATOM     17  O   UNL d   1      13.594  18.549  -6.278  0.00  0.00    -0.300 OA
ATOM     18  C   UNL d   1      14.369  18.219  -6.073  0.00  0.00     0.142 A 
ATOM     19  C   UNL d   1      14.453  17.365  -5.961  0.00  0.00     0.107 A 
ENDBRANCH  13  14
ENDBRANCH  12  13
ENDBRANCH  11  12
ENDBRANCH   4  11
BRANCH   3  20
ATOM     20  C   UNL d   1      14.344  13.510  -1.829  0.00  0.00     0.005 A 
ATOM     21  C   UNL d   1      14.293  12.720  -2.021  0.00  0.00     0.001 A 
ATOM     22  C   UNL d   1      14.328  12.159  -1.436  0.00  0.00     0.011 A 
ATOM     23  C   UNL d   1      14.415  12.379  -0.649  0.00  0.00     0.058 A 
ATOM     24  C   UNL d   1      14.466  13.170  -0.457  0.00  0.00     0.011 A 
ATOM     25 CL   UNL d   1      14.453  11.781  -0.025  0.00  0.00    -0.082 Cl
ATOM     26  C   UNL d   1      14.430  13.740  -1.052  0.00  0.00     0.001 A 
ENDBRANCH   3  20
TORSDOF 5
ENDMDL
MODEL 2
REMARK VINA RESULT:      59.6      1.495      2.028
REMARK  5 active torsions:
REMARK  status: ('A' for Active; 'I' for Inactive)
REMARK    1  A    between atoms: C_10  and  C_3 
REMARK    2  A    between atoms: N_12  and  C_4 
REMARK    3  A    between atoms: N_11  and  C_21 
REMARK    4  A    between atoms: C_20  and  N_12 
REMARK    5  A    between atoms: C_21  and  C_20 
ROOT
ATOM      1  C   UNL d   1      14.777  15.509  -2.161  0.00  0.00     0.168 A 
ATOM      2  N   UNL d   1      14.891  16.277  -2.511  0.00  0.00    -0.184 N 
ATOM      3  C   UNL d   1      15.011  15.372  -1.396  0.00  0.00     0.057 A 
ATOM      4  C   UNL d   1      14.652  16.395  -3.273  0.00  0.00     0.218 A 
ATOM      5  N   UNL d   1      15.475  16.730  -1.295  0.00  0.00    -0.160 NA
ATOM      6  N   UNL d   1      14.430  14.911  -2.596  0.00  0.00    -0.227 NA
ATOM      7  C   UNL d   1      14.302  15.798  -3.721  0.00  0.00     0.071 A 
ATOM      8  C   UNL d   1      15.364  15.986  -0.956  0.00  0.00     0.124 A 
ATOM      9  C   UNL d   1      14.189  15.043  -3.376  0.00  0.00     0.087 A 
ATOM     10  C   UNL d   1      13.824  14.413  -3.835  0.00  0.00     0.021 C 
ENDROOT
BRANCH   4  11
ATOM     11  N   UNL d   1      14.766  17.169  -3.630  0.00  0.00    -0.379 NA
BRANCH  11  12
ATOM     12  C   UNL d   1      14.669  17.914  -4.041  0.00  0.00     0.182 C 
BRANCH  12  13
ATOM     13  C   UNL d   1      14.836  17.951  -4.861  0.00  0.00     0.116 C 
BRANCH  13  14
ATOM     14  N   UNL d   1      14.610  18.654  -5.309  0.00  0.00    -0.297 N 
ATOM     15  C   UNL d   1      13.944  18.628  -5.826  0.00  0.00     0.107 A 
ATOM     16  C   UNL d   1      13.714  19.334  -6.279  0.00  0.00     0.142 A 
ATOM     17  O   UNL d   1      14.150  20.045  -6.207  0.00  0.00    -0.300 OA
ATOM     18  C   UNL d   1      14.836  20.086  -5.679  0.00  0.00     0.142 A 
ATOM     19  C   UNL d   1      15.069  19.386  -5.226  0.00  0.00     0.107 A 
ENDBRANCH  13  14
ENDBRANCH  12  13
ENDBRANCH  11  12
ENDBRANCH   4  11
BRANCH   3  20
ATOM     20  C   UNL d   1      14.900  14.628  -1.057  0.00  0.00     0.005 A 
ATOM     21  C   UNL d   1      15.339  13.994  -1.319  0.00  0.00     0.001 A 
ATOM     22  C   UNL d   1      15.229  13.262  -0.985  0.00  0.00     0.011 A 
ATOM     23  C   UNL d   1      14.679  13.153  -0.384  0.00  0.00     0.058 A 
ATOM     24  C   UNL d   1      14.240  13.788  -0.123  0.00  0.00     0.011 A 
ATOM     25 CL   UNL d   1      14.563  12.373  -0.028  0.00  0.00    -0.082 Cl
ATOM     26  C   UNL d   1      14.351  14.532  -0.462  0.00  0.00     0.001 A 
ENDBRANCH   3  20
TORSDOF 5
ENDMDL
MODEL 3
REMARK VINA RESULT:      61.2      3.099      5.861
REMARK  5 active torsions:
REMARK  status: ('A' for Active; 'I' for Inactive)
REMARK    1  A    between atoms: C_10  and  C_3 
REMARK    2  A    between atoms: N_12  and  C_4 
REMARK    3  A    between atoms: N_11  and  C_21 
REMARK    4  A    between atoms: C_20  and  N_12 
REMARK    5  A    between atoms: C_21  and  C_20 
ROOT
ATOM      1  C   UNL d   1      14.959  16.388  -2.544  0.00  0.00     0.168 A 
ATOM      2  N   UNL d   1      14.839  15.722  -2.029  0.00  0.00    -0.184 N 
ATOM      3  C   UNL d   1      14.798  16.324  -3.337  0.00  0.00     0.057 A 
ATOM      4  C   UNL d   1      15.004  15.804  -1.243  0.00  0.00     0.218 A 
ATOM      5  N   UNL d   1      14.399  14.955  -3.145  0.00  0.00    -0.160 NA
ATOM      6  N   UNL d   1      15.236  17.093  -2.239  0.00  0.00    -0.227 NA
ATOM      7  C   UNL d   1      15.284  16.511  -0.925  0.00  0.00     0.071 A 
ATOM      8  C   UNL d   1      14.515  15.602  -3.644  0.00  0.00     0.124 A 
ATOM      9  C   UNL d   1      15.402  17.167  -1.432  0.00  0.00     0.087 A 
ATOM     10  C   UNL d   1      15.694  17.910  -1.111  0.00  0.00     0.021 C 
ENDROOT
BRANCH   4  11
ATOM     11  N   UNL d   1      14.884  15.132  -0.719  0.00  0.00    -0.379 NA
BRANCH  11  12
ATOM     12  C   UNL d   1      14.861  14.596  -0.052  0.00  0.00     0.182 C 
BRANCH  12  13
ATOM     13  C   UNL d   1      15.284  13.875  -0.094  0.00  0.00     0.116 C 
BRANCH  13  14
ATOM     14  N   UNL d   1      14.898  13.174  -0.420  0.00  0.00    -0.297 N 
ATOM     15  C   UNL d   1      14.243  12.827  -0.015  0.00  0.00     0.107 A 
ATOM     16  C   UNL d   1      13.853  12.121  -0.341  0.00  0.00     0.142 A 
ATOM     17  O   UNL d   1      14.121  11.780  -1.057  0.00  0.00    -0.300 OA
ATOM     18  C   UNL d   1      14.792  12.127  -1.483  0.00  0.00     0.142 A 
ATOM     19  C   UNL d   1      15.183  12.829  -1.162  0.00  0.00     0.107 A 
ENDBRANCH  13  14
ENDBRANCH  12  13
ENDBRANCH  11  12
ENDBRANCH   4  11
BRANCH   3  20
ATOM     20  C   UNL d   1      14.914  16.971  -3.836  0.00  0.00     0.005 A 
ATOM     21  C   UNL d   1      14.469  17.645  -3.735  0.00  0.00     0.001 A 
ATOM     22  C   UNL d   1      14.583  18.282  -4.227  0.00  0.00     0.011 A 
ATOM     23  C   UNL d   1      15.145  18.252  -4.826  0.00  0.00     0.058 A 
ATOM     24  C   UNL d   1      15.590  17.577  -4.926  0.00  0.00     0.011 A 
ATOM     25 CL   UNL d   1      15.266  18.930  -5.350  0.00  0.00    -0.082 Cl
ATOM     26  C   UNL d   1      15.474  16.931  -4.427  0.00  0.00     0.001 A 
ENDBRANCH   3  20
TORSDOF 5
ENDMDL
MODEL 4
REMARK VINA RESULT:      61.9      1.120      2.224
REMARK  5 active torsions:
REMARK  status: ('A' for Active; 'I' for Inactive)
REMARK    1  A    between atoms: C_10  and  C_3 
REMARK    2  A    between atoms: N_12  and  C_4 
REMARK    3  A    between atoms: N_11  and  C_21 
REMARK    4  A    between atoms: C_20  and  N_12 
REMARK    5  A    between atoms: C_21  and  C_20 
ROOT
ATOM      1  C   UNL d   1      13.874  14.567  -4.431  0.00  0.00     0.168 A 
ATOM      2  N   UNL d   1      13.839  15.085  -5.106  0.00  0.00    -0.184 N 
ATOM      3  C   UNL d   1      13.601  13.805  -4.488  0.00  0.00     0.057 A 
ATOM      4  C   UNL d   1      14.115  15.840  -5.030  0.00  0.00     0.218 A 
ATOM      5  N   UNL d   1      13.252  14.035  -5.865  0.00  0.00    -0.160 NA
ATOM      6  N   UNL d   1      14.183  14.839  -3.726  0.00  0.00    -0.227 NA
ATOM      7  C   UNL d   1      14.429  16.124  -4.323  0.00  0.00     0.071 A 
ATOM      8  C   UNL d   1      13.286  13.533  -5.211  0.00  0.00     0.124 A 
ATOM      9  C   UNL d   1      14.464  15.614  -3.659  0.00  0.00     0.087 A 
ATOM     10  C   UNL d   1      14.789  15.900  -2.916  0.00  0.00     0.021 C 
ENDROOT
BRANCH   4  11
ATOM     11  N   UNL d   1      14.082  16.366  -5.710  0.00  0.00    -0.379 NA
BRANCH  11  12
ATOM     12  C   UNL d   1      14.057  17.045  -6.231  0.00  0.00     0.182 C 
BRANCH  12  13
ATOM     13  C   UNL d   1      13.369  17.523  -6.244  0.00  0.00     0.116 C 
BRANCH  13  14
ATOM     14  N   UNL d   1      13.449  18.383  -6.255  0.00  0.00    -0.297 N 
ATOM     15  C   UNL d   1      12.769  18.868  -6.375  0.00  0.00     0.107 A 
ATOM     16  C   UNL d   1      12.846  19.734  -6.386  0.00  0.00     0.142 A 
ATOM     17  O   UNL d   1      13.594  20.095  -6.279  0.00  0.00    -0.300 OA
ATOM     18  C   UNL d   1      14.301  19.609  -6.155  0.00  0.00     0.142 A 
ATOM     19  C   UNL d   1      14.228  18.746  -6.143  0.00  0.00     0.107 A 
ENDBRANCH  13  14
ENDBRANCH  12  13
ENDBRANCH  11  12
ENDBRANCH   4  11
BRANCH   3  20
ATOM     20  C   UNL d   1      13.635  13.304  -3.834  0.00  0.00     0.005 A 
ATOM     21  C   UNL d   1      13.379  12.533  -3.902  0.00  0.00     0.001 A 
ATOM     22  C   UNL d   1      13.413  12.039  -3.258  0.00  0.00     0.011 A 
ATOM     23  C   UNL d   1      13.702  12.308  -2.538  0.00  0.00     0.058 A 
ATOM     24  C   UNL d   1      13.957  13.080  -2.471  0.00  0.00     0.011 A 
ATOM     25 CL   UNL d   1      13.737  11.782  -1.852  0.00  0.00    -0.082 Cl
ATOM     26  C   UNL d   1      13.923  13.582  -3.125  0.00  0.00     0.001 A 
ENDBRANCH   3  20
TORSDOF 5
ENDMDL
