MODEL 1
REMARK VINA RESULT:      -3.1      0.000      0.000
REMARK  4 active torsions:
REMARK  status: ('A' for Active; 'I' for Inactive)
REMARK    1  A    between atoms: C_2  and  N_1 
REMARK    2  A    between atoms: C_9  and  C_10 
REMARK       I    between atoms: N_11  and  C_9 
REMARK    3  A    between atoms: C_21  and  N_11 
REMARK    4  A    between atoms: C_20  and  C_21 
ROOT
ATOM      1  C   UNL d   1      32.935  18.662 -22.526  0.00  0.00     0.279 C 
ATOM      2  N   UNL d   1      32.978  19.480 -22.584  0.00  0.00    -0.206 NA
ATOM      3  O   UNL d   1      33.157  18.285 -21.828  0.00  0.00    -0.265 OA
ENDROOT
BRANCH   1   4
ATOM      4  C   UNL d   1      32.669  18.213 -23.169  0.00  0.00     0.059 A 
ATOM      5  C   UNL d   1      32.065  17.654 -23.052  0.00  0.00     0.028 A 
ATOM      6  C   UNL d   1      31.808  17.213 -23.702  0.00  0.00     0.127 A 
ATOM      7  C   UNL d   1      32.146  17.325 -24.455  0.00  0.00     0.022 A 
ATOM      8  C   UNL d   1      32.743  17.883 -24.555  0.00  0.00     0.002 A 
ATOM      9  C   UNL d   1      31.889  16.886 -25.097  0.00  0.00     0.002 C 
ATOM     10  C   UNL d   1      33.009  18.330 -23.915  0.00  0.00     0.005 A 
BRANCH   6  11
ATOM     11  N   UNL d   1      31.208  16.651 -23.602  0.00  0.00    -0.114 N 
ATOM     12  O   UNL d   1      31.330  15.992 -23.122  0.00  0.00    -0.532 OA
ATOM     13  O   UNL d   1      30.481  16.745 -23.980  0.00  0.00    -0.532 OA
ENDBRANCH   6  11
ENDBRANCH   1   4
BRANCH   2  14
ATOM     14  C   UNL d   1      33.240  19.926 -21.950  0.00  0.00     0.102 C 
BRANCH  14  15
ATOM     15  C   UNL d   1      33.054  20.727 -21.904  0.00  0.00     0.019 A 
ATOM     16  C   UNL d   1      32.682  21.022 -21.229  0.00  0.00     0.003 A 
ATOM     17  C   UNL d   1      32.493  21.827 -21.176  0.00  0.00     0.019 A 
ATOM     18  C   UNL d   1      32.132  22.271 -20.592  0.00  0.00     0.021 A 
ATOM     19  C   UNL d   1      32.679  22.327 -21.802  0.00  0.00     0.081 A 
ATOM     20  C   UNL d   1      32.093  23.052 -20.854  0.00  0.00     0.082 A 
ATOM     21  C   UNL d   1      31.771  23.687 -20.438  0.00  0.00     0.021 C 
ATOM     22  N   UNL d   1      32.431  23.088 -21.604  0.00  0.00    -0.246 NA
ATOM     23  C   UNL d   1      33.050  22.035 -22.475  0.00  0.00     0.019 A 
ATOM     24  C   UNL d   1      33.238  21.233 -22.526  0.00  0.00     0.003 A 
ENDBRANCH  14  15
ENDBRANCH   2  14
TORSDOF 4
ENDMDL
MODEL 2
REMARK VINA RESULT:      -2.4      1.805      3.149
REMARK  4 active torsions:
REMARK  status: ('A' for Active; 'I' for Inactive)
REMARK    1  A    between atoms: C_2  and  N_1 
REMARK    2  A    between atoms: C_9  and  C_10 
REMARK       I    between atoms: N_11  and  C_9 
REMARK    3  A    between atoms: C_21  and  N_11 
REMARK    4  A    between atoms: C_20  and  C_21 
ROOT
ATOM      1  C   UNL d   1      31.245  16.535 -23.841  0.00  0.00     0.279 C 
ATOM      2  N   UNL d   1      31.617  17.235 -24.055  0.00  0.00    -0.206 NA
ATOM      3  O   UNL d   1      31.630  15.995 -23.354  0.00  0.00    -0.265 OA
ENDROOT
BRANCH   1   4
ATOM      4  C   UNL d   1      30.480  16.371 -24.114  0.00  0.00     0.059 A 
ATOM      5  C   UNL d   1      29.827  16.695 -23.713  0.00  0.00     0.028 A 
ATOM      6  C   UNL d   1      29.070  16.524 -23.995  0.00  0.00     0.127 A 
ATOM      7  C   UNL d   1      28.962  16.039 -24.664  0.00  0.00     0.022 A 
ATOM      8  C   UNL d   1      29.619  15.726 -25.050  0.00  0.00     0.002 A 
ATOM      9  C   UNL d   1      28.210  15.872 -24.941  0.00  0.00     0.002 C 
ATOM     10  C   UNL d   1      30.381  15.889 -24.779  0.00  0.00     0.005 A 
BRANCH   6  11
ATOM     11  N   UNL d   1      28.410  16.839 -23.607  0.00  0.00    -0.114 N 
ATOM     12  O   UNL d   1      27.849  16.339 -23.267  0.00  0.00    -0.532 OA
ATOM     13  O   UNL d   1      28.304  17.655 -23.555  0.00  0.00    -0.532 OA
ENDBRANCH   6  11
ENDBRANCH   1   4
BRANCH   2  14
ATOM     14  C   UNL d   1      32.372  17.400 -23.787  0.00  0.00     0.102 C 
BRANCH  14  15
ATOM     15  C   UNL d   1      32.600  18.179 -23.648  0.00  0.00     0.019 A 
ATOM     16  C   UNL d   1      32.559  18.487 -22.884  0.00  0.00     0.003 A 
ATOM     17  C   UNL d   1      32.786  19.270 -22.736  0.00  0.00     0.019 A 
ATOM     18  C   UNL d   1      32.806  19.720 -22.054  0.00  0.00     0.021 A 
ATOM     19  C   UNL d   1      33.054  19.735 -23.360  0.00  0.00     0.081 A 
ATOM     20  C   UNL d   1      33.087  20.470 -22.251  0.00  0.00     0.082 A 
ATOM     21  C   UNL d   1      33.195  21.099 -21.730  0.00  0.00     0.021 C 
ATOM     22  N   UNL d   1      33.241  20.481 -23.060  0.00  0.00    -0.246 NA
ATOM     23  C   UNL d   1      33.096  19.430 -24.122  0.00  0.00     0.019 A 
ATOM     24  C   UNL d   1      32.869  18.650 -24.267  0.00  0.00     0.003 A 
ENDBRANCH  14  15
ENDBRANCH   2  14
TORSDOF 4
ENDMDL
MODEL 3
REMARK VINA RESULT:      -1.9      1.317      2.155
REMARK  4 active torsions:
REMARK  status: ('A' for Active; 'I' for Inactive)
REMARK    1  A    between atoms: C_2  and  N_1 
REMARK    2  A    between atoms: C_9  and  C_10 
REMARK       I    between atoms: N_11  and  C_9 
REMARK    3  A    between atoms: C_21  and  N_11 
REMARK    4  A    between atoms: C_20  and  C_21 
ROOT
ATOM      1  C   UNL d   1      32.404  16.976 -23.673  0.00  0.00     0.279 C 
ATOM      2  N   UNL d   1      32.416  17.764 -23.438  0.00  0.00    -0.206 NA
ATOM      3  O   UNL d   1      33.085  16.518 -23.616  0.00  0.00    -0.265 OA
ENDROOT
BRANCH   1   4
ATOM      4  C   UNL d   1      31.706  16.642 -23.969  0.00  0.00     0.059 A 
ATOM      5  C   UNL d   1      31.083  16.471 -23.445  0.00  0.00     0.028 A 
ATOM      6  C   UNL d   1      30.393  16.138 -23.752  0.00  0.00     0.127 A 
ATOM      7  C   UNL d   1      30.322  15.976 -24.567  0.00  0.00     0.022 A 
ATOM      8  C   UNL d   1      30.947  16.150 -25.072  0.00  0.00     0.002 A 
ATOM      9  C   UNL d   1      29.636  15.645 -24.868  0.00  0.00     0.002 C 
ATOM     10  C   UNL d   1      31.643  16.484 -24.779  0.00  0.00     0.005 A 
BRANCH   6  11
ATOM     11  N   UNL d   1      29.763  15.963 -23.244  0.00  0.00    -0.114 N 
ATOM     12  O   UNL d   1      29.020  16.296 -23.370  0.00  0.00    -0.532 OA
ATOM     13  O   UNL d   1      29.871  15.453 -22.605  0.00  0.00    -0.532 OA
ENDBRANCH   6  11
ENDBRANCH   1   4
BRANCH   2  14
ATOM     14  C   UNL d   1      33.103  18.097 -23.146  0.00  0.00     0.102 C 
BRANCH  14  15
ATOM     15  C   UNL d   1      33.126  18.899 -22.960  0.00  0.00     0.019 A 
ATOM     16  C   UNL d   1      33.057  19.139 -22.173  0.00  0.00     0.003 A 
ATOM     17  C   UNL d   1      33.079  19.944 -21.979  0.00  0.00     0.019 A 
ATOM     18  C   UNL d   1      33.026  20.341 -21.267  0.00  0.00     0.021 A 
ATOM     19  C   UNL d   1      33.172  20.500 -22.579  0.00  0.00     0.081 A 
ATOM     20  C   UNL d   1      33.085  21.149 -21.421  0.00  0.00     0.082 A 
ATOM     21  C   UNL d   1      33.059  21.752 -20.860  0.00  0.00     0.021 C 
ATOM     22  N   UNL d   1      33.175  21.249 -22.233  0.00  0.00    -0.246 NA
ATOM     23  C   UNL d   1      33.241  20.263 -23.363  0.00  0.00     0.019 A 
ATOM     24  C   UNL d   1      33.218  19.461 -23.554  0.00  0.00     0.003 A 
ENDBRANCH  14  15
ENDBRANCH   2  14
TORSDOF 4
ENDMDL
MODEL 4
REMARK VINA RESULT:      -1.9      1.898      5.336
REMARK  4 active torsions:
REMARK  status: ('A' for Active; 'I' for Inactive)
REMARK    1  A    between atoms: C_2  and  N_1 
REMARK    2  A    between atoms: C_9  and  C_10 
REMARK       I    between atoms: N_11  and  C_9 
REMARK    3  A    between atoms: C_21  and  N_11 
REMARK    4  A    between atoms: C_20  and  C_21 
ROOT
ATOM      1  C   UNL d   1      33.112  20.714 -23.042  0.00  0.00     0.279 C 
ATOM      2  N   UNL d   1      33.103  19.903 -23.176  0.00  0.00    -0.206 NA
ATOM      3  O   UNL d   1      33.241  21.234 -23.667  0.00  0.00    -0.265 OA
ENDROOT
BRANCH   1   4
ATOM      4  C   UNL d   1      32.992  21.010 -22.278  0.00  0.00     0.059 A 
ATOM      5  C   UNL d   1      32.781  21.808 -22.179  0.00  0.00     0.028 A 
ATOM      6  C   UNL d   1      32.664  22.091 -21.413  0.00  0.00     0.127 A 
ATOM      7  C   UNL d   1      32.755  21.589 -20.753  0.00  0.00     0.022 A 
ATOM      8  C   UNL d   1      32.965  20.801 -20.867  0.00  0.00     0.002 A 
ATOM      9  C   UNL d   1      32.638  21.873 -19.994  0.00  0.00     0.002 C 
ATOM     10  C   UNL d   1      33.085  20.506 -21.628  0.00  0.00     0.005 A 
BRANCH   6  11
ATOM     11  N   UNL d   1      32.453  22.883 -21.298  0.00  0.00    -0.114 N 
ATOM     12  O   UNL d   1      33.027  23.443 -21.108  0.00  0.00    -0.532 OA
ATOM     13  O   UNL d   1      31.667  23.122 -21.372  0.00  0.00    -0.532 OA
ENDBRANCH   6  11
ENDBRANCH   1   4
BRANCH   2  14
ATOM     14  C   UNL d   1      33.222  19.608 -23.930  0.00  0.00     0.102 C 
BRANCH  14  15
ATOM     15  C   UNL d   1      33.010  18.832 -24.107  0.00  0.00     0.019 A 
ATOM     16  C   UNL d   1      32.774  18.324 -23.502  0.00  0.00     0.003 A 
ATOM     17  C   UNL d   1      32.559  17.542 -23.673  0.00  0.00     0.019 A 
ATOM     18  C   UNL d   1      32.308  16.924 -23.202  0.00  0.00     0.021 A 
ATOM     19  C   UNL d   1      32.585  17.280 -24.453  0.00  0.00     0.081 A 
ATOM     20  C   UNL d   1      32.175  16.271 -23.688  0.00  0.00     0.082 A 
ATOM     21  C   UNL d   1      31.916  15.528 -23.442  0.00  0.00     0.021 C 
ATOM     22  N   UNL d   1      32.346  16.490 -24.463  0.00  0.00    -0.246 NA
ATOM     23  C   UNL d   1      32.820  17.784 -25.057  0.00  0.00     0.019 A 
ATOM     24  C   UNL d   1      33.033  18.563 -24.885  0.00  0.00     0.003 A 
ENDBRANCH  14  15
ENDBRANCH   2  14
TORSDOF 4
ENDMDL
