MODEL 1
REMARK VINA RESULT:      21.8      0.000      0.000
REMARK  5 active torsions:
REMARK  status: ('A' for Active; 'I' for Inactive)
REMARK    1  A    between atoms: N_2  and  S_1 
REMARK    2  A    between atoms: C_6  and  S_1 
REMARK    3  A    between atoms: C_3  and  N_2 
REMARK    4  A    between atoms: N_4  and  C_5 
REMARK    5  A    between atoms: C_9  and  N_4 
ROOT
ATOM      1  C   UNL d   1      45.372 -15.695  44.604  0.00  0.00     0.110 A 
ATOM      2  C   UNL d   1      45.252 -14.880  44.641  0.00  0.00     0.083 A 
ATOM      3  C   UNL d   1      44.729 -16.195  44.744  0.00  0.00     0.021 A 
ATOM      4  C   UNL d   1      44.512 -14.572  44.815  0.00  0.00     0.019 A 
ATOM      5  C   UNL d   1      43.988 -15.887  44.918  0.00  0.00     0.002 A 
ATOM      6  C   UNL d   1      43.873 -15.071  44.955  0.00  0.00     0.002 A 
ENDROOT
BRANCH   1   7
ATOM      7  N   UNL d   1      46.114 -16.004  44.430  0.00  0.00    -0.157 NA
BRANCH   7   8
ATOM      8  S   UNL d   1      46.188 -16.780  44.168  0.00  0.00     0.285 S 
ATOM      9  O   UNL d   1      46.191 -16.508  43.370  0.00  0.00    -0.198 OA
ATOM     10  O   UNL d   1      46.185 -17.046  44.951  0.00  0.00    -0.198 OA
BRANCH   8  11
ATOM     11  C   UNL d   1      46.264 -17.575  43.897  0.00  0.00     0.105 A 
ATOM     12  C   UNL d   1      46.135 -17.758  43.087  0.00  0.00     0.014 A 
ATOM     13  C   UNL d   1      46.211 -18.534  42.832  0.00  0.00     0.012 A 
ATOM     14  C   UNL d   1      46.410 -19.132  43.353  0.00  0.00     0.058 A 
ATOM     15  C   UNL d   1      46.539 -18.949  44.163  0.00  0.00     0.012 A 
ATOM     16 CL   UNL d   1      46.483 -19.898  43.089  0.00  0.00    -0.082 Cl
ATOM     17  C   UNL d   1      46.467 -18.172  44.438  0.00  0.00     0.014 A 
ENDBRANCH   8  11
ENDBRANCH   7   8
ENDBRANCH   1   7
BRANCH   2  18
ATOM     18  N   UNL d   1      45.917 -14.368  44.496  0.00  0.00    -0.303 N 
ATOM     19  C   UNL d   1      46.647 -14.665  44.651  0.00  0.00     0.100 C 
BRANCH  18  20
ATOM     20  C   UNL d   1      45.808 -13.607  44.210  0.00  0.00     0.064 A 
ATOM     21  C   UNL d   1      45.530 -13.503  43.456  0.00  0.00     0.018 A 
ATOM     22  C   UNL d   1      45.413 -12.746  43.148  0.00  0.00     0.002 A 
ATOM     23  C   UNL d   1      45.583 -12.080  43.613  0.00  0.00     0.000 A 
ATOM     24  C   UNL d   1      45.866 -12.186  44.380  0.00  0.00     0.002 A 
ATOM     25  C   UNL d   1      45.982 -12.948  44.685  0.00  0.00     0.018 A 
ENDBRANCH  18  20
ENDBRANCH   2  18
TORSDOF 5
ENDMDL
