MODEL 1
REMARK VINA RESULT:      43.7      0.000      0.000
REMARK  2 active torsions:
REMARK  status: ('A' for Active; 'I' for Inactive)
REMARK    1  A    between atoms: S_4  and  C_1 
REMARK    2  A    between atoms: C_9  and  S_4 
ROOT
ATOM      1  C   UNL d   1     -50.964  25.502  33.316  0.00  0.00     0.107 A 
ATOM      2  C   UNL d   1     -50.404  24.886  33.323  0.00  0.00     0.201 A 
ATOM      3  C   UNL d   1     -51.751  25.372  33.315  0.00  0.00     0.201 A 
ATOM      4  C   UNL d   1     -51.516  23.964  33.330  0.00  0.00     0.043 A 
ATOM      5  C   UNL d   1     -50.684  24.105  33.331  0.00  0.00     0.020 A 
ATOM      6  C   UNL d   1     -52.041  24.603  33.322  0.00  0.00     0.020 A 
ATOM      7  O   UNL d   1     -52.249  26.015  33.307  0.00  0.00    -0.286 OA
ATOM      8  O   UNL d   1     -49.592  25.007  33.324  0.00  0.00    -0.286 OA
ATOM      9  C   UNL d   1     -52.214  23.565  33.332  0.00  0.00     0.009 C 
ATOM     10  C   UNL d   1     -51.239  23.193  33.338  0.00  0.00     0.009 C 
ENDROOT
BRANCH   1  11
ATOM     11  S   UNL d   1     -50.688  26.310  33.308  0.00  0.00    -0.081 SA
BRANCH  11  12
ATOM     12  C   UNL d   1     -50.382  26.636  34.022  0.00  0.00     0.030 A 
ATOM     13  C   UNL d   1     -50.823  26.636  34.722  0.00  0.00     0.007 A 
ATOM     14  C   UNL d   1     -50.495  26.963  35.404  0.00  0.00     0.007 A 
ATOM     15  C   UNL d   1     -49.740  27.287  35.394  0.00  0.00     0.035 A 
ATOM     16  C   UNL d   1     -49.310  27.282  34.691  0.00  0.00     0.007 A 
ATOM     17 BR   UNL d   1     -49.422  27.615  36.093  0.00  0.00    -0.049 Br
ATOM     18  C   UNL d   1     -49.623  26.959  34.001  0.00  0.00     0.007 A 
ENDBRANCH  11  12
ENDBRANCH   1  11
TORSDOF 2
ENDMDL
MODEL 2
REMARK VINA RESULT:      44.2      0.594      1.387
REMARK  2 active torsions:
REMARK  status: ('A' for Active; 'I' for Inactive)
REMARK    1  A    between atoms: S_4  and  C_1 
REMARK    2  A    between atoms: C_9  and  S_4 
ROOT
ATOM      1  C   UNL d   1     -51.310  25.176  33.309  0.00  0.00     0.107 A 
ATOM      2  C   UNL d   1     -52.108  25.412  33.311  0.00  0.00     0.201 A 
ATOM      3  C   UNL d   1     -51.084  24.411  33.310  0.00  0.00     0.201 A 
ATOM      4  C   UNL d   1     -52.454  24.011  33.315  0.00  0.00     0.043 A 
ATOM      5  C   UNL d   1     -52.689  24.821  33.314  0.00  0.00     0.020 A 
ATOM      6  C   UNL d   1     -51.650  23.816  33.313  0.00  0.00     0.020 A 
ATOM      7  O   UNL d   1     -50.288  24.243  33.308  0.00  0.00    -0.286 OA
ATOM      8  O   UNL d   1     -52.352  26.196  33.310  0.00  0.00    -0.286 OA
ATOM      9  C   UNL d   1     -52.510  23.208  33.316  0.00  0.00     0.009 C 
ATOM     10  C   UNL d   1     -53.269  23.924  33.317  0.00  0.00     0.009 C 
ENDROOT
BRANCH   1  11
ATOM     11  S   UNL d   1     -50.702  25.776  33.307  0.00  0.00    -0.081 SA
BRANCH  11  12
ATOM     12  C   UNL d   1     -50.585  26.233  34.006  0.00  0.00     0.030 A 
ATOM     13  C   UNL d   1     -51.222  26.480  34.472  0.00  0.00     0.007 A 
ATOM     14  C   UNL d   1     -51.073  26.926  35.150  0.00  0.00     0.007 A 
ATOM     15  C   UNL d   1     -50.306  27.124  35.364  0.00  0.00     0.035 A 
ATOM     16  C   UNL d   1     -49.679  26.872  34.891  0.00  0.00     0.007 A 
ATOM     17 BR   UNL d   1     -50.171  27.576  36.053  0.00  0.00    -0.049 Br
ATOM     18  C   UNL d   1     -49.810  26.426  34.211  0.00  0.00     0.007 A 
ENDBRANCH  11  12
ENDBRANCH   1  11
TORSDOF 2
ENDMDL
