MODEL 1
REMARK VINA RESULT:     -10.5      0.000      0.000
REMARK  3 active torsions:
REMARK  status: ('A' for Active; 'I' for Inactive)
REMARK    1  A    between atoms: C_3  and  C_1 
REMARK    2  A    between atoms: C_5  and  C_3 
REMARK    3  A    between atoms: C_10  and  C_5 
ROOT
ATOM      1  C   UNL d   1      53.194  32.340  53.201  0.00  0.00     0.109 C 
ATOM      2  C   UNL d   1      53.112  31.521  53.245  0.00  0.00     0.105 C 
ATOM      3  N   UNL d   1      53.025  30.705  53.287  0.00  0.00    -0.191 NA
ENDROOT
BRANCH   1   4
ATOM      4  C   UNL d   1      52.535  32.809  53.033  0.00  0.00     0.192 A 
ATOM      5  N   UNL d   1      52.444  33.304  52.368  0.00  0.00    -0.220 NA
ATOM      6  C   UNL d   1      51.708  33.666  52.422  0.00  0.00     0.106 A 
ATOM      7  C   UNL d   1      51.322  34.208  51.925  0.00  0.00     0.021 A 
ATOM      8  C   UNL d   1      51.339  33.402  53.112  0.00  0.00     0.119 A 
ATOM      9  C   UNL d   1      50.566  34.481  52.125  0.00  0.00     0.002 A 
ATOM     10  C   UNL d   1      50.195  34.220  52.814  0.00  0.00     0.002 A 
ATOM     11  C   UNL d   1      50.574  33.682  53.310  0.00  0.00     0.026 A 
ATOM     12  O   UNL d   1      51.851  32.874  53.487  0.00  0.00    -0.287 OA
ENDBRANCH   1   4
BRANCH   1  13
ATOM     13  C   UNL d   1      53.925  32.689  53.324  0.00  0.00     0.014 C 
BRANCH  13  14
ATOM     14  C   UNL d   1      54.174  32.861  54.091  0.00  0.00     0.004 A 
ATOM     15  C   UNL d   1      54.681  33.495  54.224  0.00  0.00     0.042 A 
ATOM     16  C   UNL d   1      54.927  33.664  54.993  0.00  0.00     0.196 A 
ATOM     17  O   UNL d   1      55.438  34.300  55.134  0.00  0.00    -0.287 OA
ATOM     18  C   UNL d   1      54.670  33.206  55.627  0.00  0.00     0.042 A 
ATOM     19  C   UNL d   1      54.156  32.566  55.484  0.00  0.00     0.003 A 
ATOM     20  C   UNL d   1      53.908  32.393  54.716  0.00  0.00     0.000 A 
ENDBRANCH  13  14
ENDBRANCH   1  13
TORSDOF 3
ENDMDL
MODEL 2
REMARK VINA RESULT:     -10.2      1.756      3.326
REMARK  3 active torsions:
REMARK  status: ('A' for Active; 'I' for Inactive)
REMARK    1  A    between atoms: C_3  and  C_1 
REMARK    2  A    between atoms: C_5  and  C_3 
REMARK    3  A    between atoms: C_10  and  C_5 
ROOT
ATOM      1  C   UNL d   1      53.919  32.685  54.048  0.00  0.00     0.109 C 
ATOM      2  C   UNL d   1      54.613  32.971  53.707  0.00  0.00     0.105 C 
ATOM      3  N   UNL d   1      55.306  33.250  53.364  0.00  0.00    -0.191 NA
ENDROOT
BRANCH   1   4
ATOM      4  C   UNL d   1      53.671  31.914  53.888  0.00  0.00     0.192 A 
ATOM      5  N   UNL d   1      53.698  31.272  54.420  0.00  0.00    -0.220 NA
ATOM      6  C   UNL d   1      53.398  30.612  54.032  0.00  0.00     0.106 A 
ATOM      7  C   UNL d   1      53.291  29.827  54.282  0.00  0.00     0.021 A 
ATOM      8  C   UNL d   1      53.186  30.834  53.266  0.00  0.00     0.119 A 
ATOM      9  C   UNL d   1      52.970  29.271  53.760  0.00  0.00     0.002 A 
ATOM     10  C   UNL d   1      52.757  29.489  52.993  0.00  0.00     0.002 A 
ATOM     11  C   UNL d   1      52.862  30.267  52.741  0.00  0.00     0.026 A 
ATOM     12  O   UNL d   1      53.355  31.638  53.179  0.00  0.00    -0.287 OA
ENDBRANCH   1   4
BRANCH   1  13
ATOM     13  C   UNL d   1      53.476  33.165  54.543  0.00  0.00     0.014 C 
BRANCH  13  14
ATOM     14  C   UNL d   1      53.132  33.854  54.247  0.00  0.00     0.004 A 
ATOM     15  C   UNL d   1      53.357  34.585  54.550  0.00  0.00     0.042 A 
ATOM     16  C   UNL d   1      53.010  35.272  54.251  0.00  0.00     0.196 A 
ATOM     17  O   UNL d   1      53.232  36.011  54.551  0.00  0.00    -0.287 OA
ATOM     18  C   UNL d   1      52.444  35.232  53.656  0.00  0.00     0.042 A 
ATOM     19  C   UNL d   1      52.221  34.487  53.355  0.00  0.00     0.003 A 
ATOM     20  C   UNL d   1      52.565  33.798  53.650  0.00  0.00     0.000 A 
ENDBRANCH  13  14
ENDBRANCH   1  13
TORSDOF 3
ENDMDL
MODEL 3
REMARK VINA RESULT:     -10.2      1.358      2.525
REMARK  3 active torsions:
REMARK  status: ('A' for Active; 'I' for Inactive)
REMARK    1  A    between atoms: C_3  and  C_1 
REMARK    2  A    between atoms: C_5  and  C_3 
REMARK    3  A    between atoms: C_10  and  C_5 
ROOT
ATOM      1  C   UNL d   1      53.258  32.370  53.487  0.00  0.00     0.109 C 
ATOM      2  C   UNL d   1      53.670  32.552  54.177  0.00  0.00     0.105 C 
ATOM      3  N   UNL d   1      54.077  32.739  54.867  0.00  0.00    -0.191 NA
ENDROOT
BRANCH   1   4
ATOM      4  C   UNL d   1      52.614  32.834  53.259  0.00  0.00     0.192 A 
ATOM      5  N   UNL d   1      52.561  33.288  52.561  0.00  0.00    -0.220 NA
ATOM      6  C   UNL d   1      51.828  33.660  52.559  0.00  0.00     0.106 A 
ATOM      7  C   UNL d   1      51.473  34.174  52.011  0.00  0.00     0.021 A 
ATOM      8  C   UNL d   1      51.425  33.444  53.245  0.00  0.00     0.119 A 
ATOM      9  C   UNL d   1      50.713  34.468  52.158  0.00  0.00     0.002 A 
ATOM     10  C   UNL d   1      50.307  34.255  52.844  0.00  0.00     0.002 A 
ATOM     11  C   UNL d   1      50.655  33.745  53.389  0.00  0.00     0.026 A 
ATOM     12  O   UNL d   1      51.911  32.935  53.676  0.00  0.00    -0.287 OA
ENDBRANCH   1   4
BRANCH   1  13
ATOM     13  C   UNL d   1      53.486  31.730  53.028  0.00  0.00     0.014 C 
BRANCH  13  14
ATOM     14  C   UNL d   1      53.374  30.963  53.309  0.00  0.00     0.004 A 
ATOM     15  C   UNL d   1      52.717  30.531  53.069  0.00  0.00     0.042 A 
ATOM     16  C   UNL d   1      52.608  29.764  53.352  0.00  0.00     0.196 A 
ATOM     17  O   UNL d   1      51.948  29.324  53.114  0.00  0.00    -0.287 OA
ATOM     18  C   UNL d   1      53.151  29.428  53.872  0.00  0.00     0.042 A 
ATOM     19  C   UNL d   1      53.815  29.872  54.111  0.00  0.00     0.003 A 
ATOM     20  C   UNL d   1      53.926  30.639  53.829  0.00  0.00     0.000 A 
ENDBRANCH  13  14
ENDBRANCH   1  13
TORSDOF 3
ENDMDL
MODEL 4
REMARK VINA RESULT:     -10.1      1.802      3.767
REMARK  3 active torsions:
REMARK  status: ('A' for Active; 'I' for Inactive)
REMARK    1  A    between atoms: C_3  and  C_1 
REMARK    2  A    between atoms: C_5  and  C_3 
REMARK    3  A    between atoms: C_10  and  C_5 
ROOT
ATOM      1  C   UNL d   1      53.433  31.813  53.227  0.00  0.00     0.109 C 
ATOM      2  C   UNL d   1      52.724  32.071  52.893  0.00  0.00     0.105 C 
ATOM      3  N   UNL d   1      52.018  32.333  52.564  0.00  0.00    -0.191 NA
ENDROOT
BRANCH   1   4
ATOM      4  C   UNL d   1      53.842  32.304  53.749  0.00  0.00     0.192 A 
ATOM      5  N   UNL d   1      54.541  32.726  53.577  0.00  0.00    -0.220 NA
ATOM      6  C   UNL d   1      54.756  33.141  54.254  0.00  0.00     0.106 A 
ATOM      7  C   UNL d   1      55.395  33.649  54.409  0.00  0.00     0.021 A 
ATOM      8  C   UNL d   1      54.201  32.983  54.844  0.00  0.00     0.119 A 
ATOM      9  C   UNL d   1      55.471  33.995  55.157  0.00  0.00     0.002 A 
ATOM     10  C   UNL d   1      54.918  33.839  55.750  0.00  0.00     0.002 A 
ATOM     11  C   UNL d   1      54.283  33.335  55.600  0.00  0.00     0.026 A 
ATOM     12  O   UNL d   1      53.638  32.466  54.530  0.00  0.00    -0.287 OA
ENDBRANCH   1   4
BRANCH   1  13
ATOM     13  C   UNL d   1      53.730  31.072  53.040  0.00  0.00     0.014 C 
BRANCH  13  14
ATOM     14  C   UNL d   1      53.326  30.395  53.284  0.00  0.00     0.004 A 
ATOM     15  C   UNL d   1      53.597  29.969  53.933  0.00  0.00     0.042 A 
ATOM     16  C   UNL d   1      53.191  29.292  54.173  0.00  0.00     0.196 A 
ATOM     17  O   UNL d   1      53.458  28.858  54.826  0.00  0.00    -0.287 OA
ATOM     18  C   UNL d   1      52.518  29.041  53.770  0.00  0.00     0.042 A 
ATOM     19  C   UNL d   1      52.250  29.478  53.113  0.00  0.00     0.003 A 
ATOM     20  C   UNL d   1      52.654  30.155  52.870  0.00  0.00     0.000 A 
ENDBRANCH  13  14
ENDBRANCH   1  13
TORSDOF 3
ENDMDL
MODEL 5
REMARK VINA RESULT:      -9.8      1.469      2.076
REMARK  3 active torsions:
REMARK  status: ('A' for Active; 'I' for Inactive)
REMARK    1  A    between atoms: C_3  and  C_1 
REMARK    2  A    between atoms: C_5  and  C_3 
REMARK    3  A    between atoms: C_10  and  C_5 
ROOT
ATOM      1  C   UNL d   1      52.942  34.709  53.658  0.00  0.00     0.109 C 
ATOM      2  C   UNL d   1      53.015  35.333  54.193  0.00  0.00     0.105 C 
ATOM      3  N   UNL d   1      53.081  35.956  54.725  0.00  0.00    -0.191 NA
ENDROOT
BRANCH   1   4
ATOM      4  C   UNL d   1      52.228  34.593  53.258  0.00  0.00     0.192 A 
ATOM      5  N   UNL d   1      52.143  34.461  52.439  0.00  0.00    -0.220 NA
ATOM      6  C   UNL d   1      51.341  34.376  52.281  0.00  0.00     0.106 A 
ATOM      7  C   UNL d   1      50.931  34.236  51.572  0.00  0.00     0.021 A 
ATOM      8  C   UNL d   1      50.926  34.453  52.990  0.00  0.00     0.119 A 
ATOM      9  C   UNL d   1      50.105  34.174  51.582  0.00  0.00     0.002 A 
ATOM     10  C   UNL d   1      49.687  34.251  52.289  0.00  0.00     0.002 A 
ATOM     11  C   UNL d   1      50.090  34.390  52.994  0.00  0.00     0.026 A 
ATOM     12  O   UNL d   1      51.476  34.587  53.592  0.00  0.00    -0.287 OA
ENDBRANCH   1   4
BRANCH   1  13
ATOM     13  C   UNL d   1      53.575  34.206  53.524  0.00  0.00     0.014 C 
BRANCH  13  14
ATOM     14  C   UNL d   1      53.799  33.665  54.105  0.00  0.00     0.004 A 
ATOM     15  C   UNL d   1      53.600  32.871  54.022  0.00  0.00     0.042 A 
ATOM     16  C   UNL d   1      53.826  32.333  54.605  0.00  0.00     0.196 A 
ATOM     17  O   UNL d   1      53.630  31.532  54.529  0.00  0.00    -0.287 OA
ATOM     18  C   UNL d   1      54.248  32.583  55.267  0.00  0.00     0.042 A 
ATOM     19  C   UNL d   1      54.446  33.389  55.342  0.00  0.00     0.003 A 
ATOM     20  C   UNL d   1      54.221  33.930  54.762  0.00  0.00     0.000 A 
ENDBRANCH  13  14
ENDBRANCH   1  13
TORSDOF 3
ENDMDL
MODEL 6
REMARK VINA RESULT:      -9.1      1.107      3.937
REMARK  3 active torsions:
REMARK  status: ('A' for Active; 'I' for Inactive)
REMARK    1  A    between atoms: C_3  and  C_1 
REMARK    2  A    between atoms: C_5  and  C_3 
REMARK    3  A    between atoms: C_10  and  C_5 
ROOT
ATOM      1  C   UNL d   1      52.656  33.189  52.969  0.00  0.00     0.109 C 
ATOM      2  C   UNL d   1      52.365  32.439  52.786  0.00  0.00     0.105 C 
ATOM      3  N   UNL d   1      52.080  31.689  52.609  0.00  0.00    -0.191 NA
ENDROOT
BRANCH   1   4
ATOM      4  C   UNL d   1      53.222  33.275  53.564  0.00  0.00     0.192 A 
ATOM      5  N   UNL d   1      53.973  33.628  53.476  0.00  0.00    -0.220 NA
ATOM      6  C   UNL d   1      54.352  33.595  54.205  0.00  0.00     0.106 A 
ATOM      7  C   UNL d   1      55.102  33.857  54.448  0.00  0.00     0.021 A 
ATOM      8  C   UNL d   1      53.848  33.228  54.745  0.00  0.00     0.119 A 
ATOM      9  C   UNL d   1      55.340  33.747  55.234  0.00  0.00     0.002 A 
ATOM     10  C   UNL d   1      54.838  33.380  55.776  0.00  0.00     0.002 A 
ATOM     11  C   UNL d   1      54.094  33.119  55.539  0.00  0.00     0.026 A 
ATOM     12  O   UNL d   1      53.151  33.031  54.347  0.00  0.00    -0.287 OA
ENDBRANCH   1   4
BRANCH   1  13
ATOM     13  C   UNL d   1      52.383  33.847  52.563  0.00  0.00     0.014 C 
BRANCH  13  14
ATOM     14  C   UNL d   1      51.583  34.045  52.594  0.00  0.00     0.004 A 
ATOM     15  C   UNL d   1      51.138  34.053  51.902  0.00  0.00     0.042 A 
ATOM     16  C   UNL d   1      50.338  34.252  51.936  0.00  0.00     0.196 A 
ATOM     17  O   UNL d   1      49.883  34.263  51.244  0.00  0.00    -0.287 OA
ATOM     18  C   UNL d   1      49.982  34.441  52.654  0.00  0.00     0.042 A 
ATOM     19  C   UNL d   1      50.440  34.430  53.350  0.00  0.00     0.003 A 
ATOM     20  C   UNL d   1      51.241  34.232  53.320  0.00  0.00     0.000 A 
ENDBRANCH  13  14
ENDBRANCH   1  13
TORSDOF 3
ENDMDL
