MODEL 1
REMARK VINA RESULT:      -4.9      0.000      0.000
REMARK  4 active torsions:
REMARK  status: ('A' for Active; 'I' for Inactive)
REMARK    1  A    between atoms: C_2  and  C_1 
REMARK       I    between atoms: N_4  and  C_2 
REMARK    2  A    between atoms: C_5  and  N_4 
REMARK    3  A    between atoms: O_17  and  C_9 
REMARK    4  A    between atoms: O_18  and  C_12 
ROOT
ATOM      1  C   UNL d   1      57.765   0.174  30.059  0.00  0.00     0.353 C 
ATOM      2  N   UNL d   1      58.405  -0.278  29.785  0.00  0.00    -0.361 NA
ATOM      3  O   UNL d   1      57.383   0.681  29.552  0.00  0.00    -0.249 OA
ENDROOT
BRANCH   1   4
ATOM      4  C   UNL d   1      57.510   0.113  30.851  0.00  0.00     0.195 A 
ATOM      5  O   UNL d   1      57.027  -0.516  31.070  0.00  0.00    -0.297 OA
ATOM      6  C   UNL d   1      56.788  -0.556  31.853  0.00  0.00     0.123 A 
ATOM      7  C   UNL d   1      56.290  -1.198  32.093  0.00  0.00     0.027 A 
ATOM      8  C   UNL d   1      57.012   0.000  32.414  0.00  0.00     0.123 A 
ATOM      9  C   UNL d   1      56.058  -1.232  32.867  0.00  0.00     0.002 A 
ATOM     10  C   UNL d   1      56.293  -0.664  33.416  0.00  0.00     0.002 A 
ATOM     11  C   UNL d   1      56.765  -0.051  33.200  0.00  0.00     0.027 A 
ATOM     12  O   UNL d   1      57.501   0.631  32.177  0.00  0.00    -0.301 OA
ATOM     13  C   UNL d   1      57.745   0.681  31.400  0.00  0.00     0.153 A 
ENDBRANCH   1   4
BRANCH   2  14
ATOM     14  C   UNL d   1      59.039  -0.732  29.528  0.00  0.00     0.159 A 
ATOM     15  C   UNL d   1      58.936  -1.513  29.313  0.00  0.00     0.059 A 
ATOM     16  C   UNL d   1      59.577  -1.979  29.052  0.00  0.00     0.107 A 
ATOM     17  C   UNL d   1      60.347  -1.617  29.014  0.00  0.00     0.082 A 
ATOM     18  C   UNL d   1      60.450  -0.835  29.229  0.00  0.00     0.040 A 
ATOM     19 CL   UNL d   1      60.975  -2.081  28.755  0.00  0.00    -0.080 Cl
ATOM     20  C   UNL d   1      59.799  -0.381  29.489  0.00  0.00     0.125 A 
BRANCH  16  21
ATOM     21  O   UNL d   1      59.475  -2.748  28.841  0.00  0.00    -0.327 OA
ATOM     22  C   UNL d   1      58.801  -3.156  29.080  0.00  0.00     0.181 C 
ENDBRANCH  16  21
BRANCH  20  23
ATOM     23  O   UNL d   1      59.903   0.408  29.705  0.00  0.00    -0.326 OA
ATOM     24  C   UNL d   1      60.667   0.682  29.815  0.00  0.00     0.181 C 
ENDBRANCH  20  23
ENDBRANCH   2  14
TORSDOF 4
ENDMDL
MODEL 2
REMARK VINA RESULT:      -4.3      0.698      1.688
REMARK  4 active torsions:
REMARK  status: ('A' for Active; 'I' for Inactive)
REMARK    1  A    between atoms: C_2  and  C_1 
REMARK       I    between atoms: N_4  and  C_2 
REMARK    2  A    between atoms: C_5  and  N_4 
REMARK    3  A    between atoms: O_17  and  C_9 
REMARK    4  A    between atoms: O_18  and  C_12 
ROOT
ATOM      1  C   UNL d   1      57.555   0.246  30.454  0.00  0.00     0.353 C 
ATOM      2  N   UNL d   1      58.270  -0.083  30.187  0.00  0.00    -0.361 NA
ATOM      3  O   UNL d   1      57.097   0.682  29.943  0.00  0.00    -0.249 OA
ENDROOT
BRANCH   1   4
ATOM      4  C   UNL d   1      57.303   0.133  31.241  0.00  0.00     0.195 A 
ATOM      5  O   UNL d   1      56.833  -0.516  31.424  0.00  0.00    -0.297 OA
ATOM      6  C   UNL d   1      56.597  -0.607  32.202  0.00  0.00     0.123 A 
ATOM      7  C   UNL d   1      56.113  -1.271  32.405  0.00  0.00     0.027 A 
ATOM      8  C   UNL d   1      56.811  -0.080  32.795  0.00  0.00     0.123 A 
ATOM      9  C   UNL d   1      55.883  -1.356  33.176  0.00  0.00     0.002 A 
ATOM     10  C   UNL d   1      56.108  -0.815  33.757  0.00  0.00     0.002 A 
ATOM     11  C   UNL d   1      56.567  -0.182  33.577  0.00  0.00     0.027 A 
ATOM     12  O   UNL d   1      57.287   0.573  32.595  0.00  0.00    -0.301 OA
ATOM     13  C   UNL d   1      57.529   0.674  31.822  0.00  0.00     0.153 A 
ENDBRANCH   1   4
BRANCH   2  14
ATOM     14  C   UNL d   1      58.978  -0.415  29.938  0.00  0.00     0.159 A 
ATOM     15  C   UNL d   1      59.692  -0.056  30.110  0.00  0.00     0.059 A 
ATOM     16  C   UNL d   1      60.414  -0.389  29.860  0.00  0.00     0.107 A 
ATOM     17  C   UNL d   1      60.390  -1.116  29.418  0.00  0.00     0.082 A 
ATOM     18  C   UNL d   1      59.676  -1.475  29.246  0.00  0.00     0.040 A 
ATOM     19 CL   UNL d   1      61.107  -1.439  29.173  0.00  0.00    -0.080 Cl
ATOM     20  C   UNL d   1      58.960  -1.131  29.503  0.00  0.00     0.125 A 
BRANCH  16  21
ATOM     21  O   UNL d   1      61.117  -0.036  30.028  0.00  0.00    -0.327 OA
ATOM     22  C   UNL d   1      61.132   0.682  30.432  0.00  0.00     0.181 C 
ENDBRANCH  16  21
BRANCH  20  23
ATOM     23  O   UNL d   1      58.239  -1.493  29.330  0.00  0.00    -0.326 OA
ATOM     24  C   UNL d   1      58.246  -2.279  29.101  0.00  0.00     0.181 C 
ENDBRANCH  20  23
ENDBRANCH   2  14
TORSDOF 4
ENDMDL
MODEL 3
REMARK VINA RESULT:      -3.1      1.646      4.238
REMARK  4 active torsions:
REMARK  status: ('A' for Active; 'I' for Inactive)
REMARK    1  A    between atoms: C_2  and  C_1 
REMARK       I    between atoms: N_4  and  C_2 
REMARK    2  A    between atoms: C_5  and  N_4 
REMARK    3  A    between atoms: O_17  and  C_9 
REMARK    4  A    between atoms: O_18  and  C_12 
ROOT
ATOM      1  C   UNL d   1      58.422  -0.653  29.397  0.00  0.00     0.353 C 
ATOM      2  N   UNL d   1      58.193  -0.379  30.147  0.00  0.00    -0.361 NA
ATOM      3  O   UNL d   1      58.317  -0.178  28.745  0.00  0.00    -0.249 OA
ENDROOT
BRANCH   1   4
ATOM      4  C   UNL d   1      58.758  -1.410  29.305  0.00  0.00     0.195 A 
ATOM      5  O   UNL d   1      59.558  -1.476  29.130  0.00  0.00    -0.297 OA
ATOM      6  C   UNL d   1      59.867  -2.230  29.044  0.00  0.00     0.123 A 
ATOM      7  C   UNL d   1      60.691  -2.313  28.863  0.00  0.00     0.027 A 
ATOM      8  C   UNL d   1      59.412  -2.909  29.126  0.00  0.00     0.123 A 
ATOM      9  C   UNL d   1      60.990  -3.060  28.780  0.00  0.00     0.002 A 
ATOM     10  C   UNL d   1      60.516  -3.729  28.866  0.00  0.00     0.002 A 
ATOM     11  C   UNL d   1      59.735  -3.663  29.037  0.00  0.00     0.027 A 
ATOM     12  O   UNL d   1      58.602  -2.826  29.304  0.00  0.00    -0.301 OA
ATOM     13  C   UNL d   1      58.283  -2.080  29.392  0.00  0.00     0.153 A 
ENDBRANCH   1   4
BRANCH   2  14
ATOM     14  C   UNL d   1      57.972  -0.123  30.894  0.00  0.00     0.159 A 
ATOM     15  C   UNL d   1      57.280  -0.386  31.240  0.00  0.00     0.059 A 
ATOM     16  C   UNL d   1      57.050  -0.129  32.000  0.00  0.00     0.107 A 
ATOM     17  C   UNL d   1      57.558   0.419  32.409  0.00  0.00     0.082 A 
ATOM     18  C   UNL d   1      58.250   0.682  32.063  0.00  0.00     0.040 A 
ATOM     19 CL   UNL d   1      57.326   0.669  33.158  0.00  0.00    -0.080 Cl
ATOM     20  C   UNL d   1      58.468   0.416  31.302  0.00  0.00     0.125 A 
BRANCH  16  21
ATOM     21  O   UNL d   1      56.370  -0.388  32.340  0.00  0.00    -0.327 OA
ATOM     22  C   UNL d   1      56.223  -1.196  32.407  0.00  0.00     0.181 C 
ENDBRANCH  16  21
BRANCH  20  23
ATOM     23  O   UNL d   1      59.166   0.682  30.953  0.00  0.00    -0.326 OA
ATOM     24  C   UNL d   1      59.853   0.662  31.397  0.00  0.00     0.181 C 
ENDBRANCH  20  23
ENDBRANCH   2  14
TORSDOF 4
ENDMDL
