MODEL 1
REMARK VINA RESULT:      -3.2      0.000      0.000
REMARK  3 active torsions:
REMARK  status: ('A' for Active; 'I' for Inactive)
REMARK    1  A    between atoms: N_2  and  C_1 
REMARK    2  A    between atoms: N_3  and  C_1 
REMARK       I    between atoms: C_4  and  N_2 
REMARK    3  A    between atoms: C_9  and  C_4 
ROOT
ATOM      1  C   UNL d   1      31.201  16.304 -23.917  0.00  0.00     0.209 C 
ATOM      2  S   UNL d   1      31.707  15.724 -24.205  0.00  0.00    -0.038 SA
ENDROOT
BRANCH   1   3
ATOM      3  N   UNL d   1      31.504  17.059 -23.751  0.00  0.00    -0.180 NA
ATOM      4  C   UNL d   1      32.321  17.180 -23.778  0.00  0.00     0.281 C 
ATOM      5  O   UNL d   1      32.834  16.559 -23.968  0.00  0.00    -0.265 OA
BRANCH   4   6
ATOM      6  C   UNL d   1      32.626  17.925 -23.613  0.00  0.00     0.058 A 
ATOM      7  C   UNL d   1      32.702  18.491 -24.217  0.00  0.00     0.005 A 
ATOM      8  C   UNL d   1      33.006  19.236 -24.057  0.00  0.00     0.000 A 
ATOM      9  C   UNL d   1      33.240  19.425 -23.280  0.00  0.00     0.000 A 
ATOM     10  C   UNL d   1      33.166  18.864 -22.678  0.00  0.00     0.000 A 
ATOM     11  C   UNL d   1      32.859  18.118 -22.850  0.00  0.00     0.005 A 
ENDBRANCH   4   6
ENDBRANCH   1   3
BRANCH   1  12
ATOM     12  N   UNL d   1      30.408  16.141 -23.797  0.00  0.00    -0.281 N 
ATOM     13  C   UNL d   1      29.844  16.426 -24.331  0.00  0.00     0.082 A 
ATOM     14  C   UNL d   1      29.038  16.258 -24.206  0.00  0.00     0.019 A 
ATOM     15  C   UNL d   1      28.806  15.810 -23.553  0.00  0.00     0.003 A 
ATOM     16  C   UNL d   1      29.370  15.530 -23.026  0.00  0.00     0.019 A 
ATOM     17  C   UNL d   1      28.011  15.645 -23.430  0.00  0.00     0.000 C 
ATOM     18  C   UNL d   1      30.172  15.694 -23.146  0.00  0.00     0.082 A 
ENDBRANCH   1  12
TORSDOF 3
ENDMDL
MODEL 2
REMARK VINA RESULT:      -2.5      2.175      3.253
REMARK  3 active torsions:
REMARK  status: ('A' for Active; 'I' for Inactive)
REMARK    1  A    between atoms: N_2  and  C_1 
REMARK    2  A    between atoms: N_3  and  C_1 
REMARK       I    between atoms: C_4  and  N_2 
REMARK    3  A    between atoms: C_9  and  C_4 
ROOT
ATOM      1  C   UNL d   1      32.912  18.713 -23.491  0.00  0.00     0.209 C 
ATOM      2  S   UNL d   1      33.213  19.075 -24.165  0.00  0.00    -0.038 SA
ENDROOT
BRANCH   1   3
ATOM      3  N   UNL d   1      32.911  19.131 -22.774  0.00  0.00    -0.180 NA
ATOM      4  C   UNL d   1      33.077  19.941 -22.779  0.00  0.00     0.281 C 
ATOM      5  O   UNL d   1      33.241  20.333 -23.488  0.00  0.00    -0.265 OA
BRANCH   4   6
ATOM      6  C   UNL d   1      33.078  20.359 -22.071  0.00  0.00     0.058 A 
ATOM      7  C   UNL d   1      33.239  19.971 -21.354  0.00  0.00     0.005 A 
ATOM      8  C   UNL d   1      33.241  20.385 -20.645  0.00  0.00     0.000 A 
ATOM      9  C   UNL d   1      33.079  21.201 -20.647  0.00  0.00     0.000 A 
ATOM     10  C   UNL d   1      32.918  21.589 -21.359  0.00  0.00     0.000 A 
ATOM     11  C   UNL d   1      32.919  21.164 -22.065  0.00  0.00     0.005 A 
ENDBRANCH   4   6
ENDBRANCH   1   3
BRANCH   1  12
ATOM     12  N   UNL d   1      32.616  17.951 -23.527  0.00  0.00    -0.281 N 
ATOM     13  C   UNL d   1      33.077  17.319 -23.258  0.00  0.00     0.082 A 
ATOM     14  C   UNL d   1      32.773  16.544 -23.296  0.00  0.00     0.019 A 
ATOM     15  C   UNL d   1      32.017  16.411 -23.598  0.00  0.00     0.003 A 
ATOM     16  C   UNL d   1      31.564  17.043 -23.863  0.00  0.00     0.019 A 
ATOM     17  C   UNL d   1      31.717  15.647 -23.635  0.00  0.00     0.000 C 
ATOM     18  C   UNL d   1      31.861  17.814 -23.828  0.00  0.00     0.082 A 
ENDBRANCH   1  12
TORSDOF 3
ENDMDL
MODEL 3
REMARK VINA RESULT:      -2.4      1.715      4.354
REMARK  3 active torsions:
REMARK  status: ('A' for Active; 'I' for Inactive)
REMARK    1  A    between atoms: N_2  and  C_1 
REMARK    2  A    between atoms: N_3  and  C_1 
REMARK       I    between atoms: C_4  and  N_2 
REMARK    3  A    between atoms: C_9  and  C_4 
ROOT
ATOM      1  C   UNL d   1      32.902  19.041 -23.444  0.00  0.00     0.209 C 
ATOM      2  S   UNL d   1      33.241  19.186 -24.179  0.00  0.00    -0.038 SA
ENDROOT
BRANCH   1   3
ATOM      3  N   UNL d   1      32.474  18.340 -23.326  0.00  0.00    -0.180 NA
ATOM      4  C   UNL d   1      32.340  17.837 -23.969  0.00  0.00     0.281 C 
ATOM      5  O   UNL d   1      32.627  18.028 -24.721  0.00  0.00    -0.265 OA
BRANCH   4   6
ATOM      6  C   UNL d   1      31.917  17.141 -23.858  0.00  0.00     0.058 A 
ATOM      7  C   UNL d   1      31.097  17.122 -23.990  0.00  0.00     0.005 A 
ATOM      8  C   UNL d   1      30.672  16.429 -23.880  0.00  0.00     0.000 A 
ATOM      9  C   UNL d   1      31.068  15.739 -23.634  0.00  0.00     0.000 A 
ATOM     10  C   UNL d   1      31.884  15.756 -23.502  0.00  0.00     0.000 A 
ATOM     11  C   UNL d   1      32.301  16.458 -23.615  0.00  0.00     0.005 A 
ENDBRANCH   4   6
ENDBRANCH   1   3
BRANCH   1  12
ATOM     12  N   UNL d   1      32.985  19.582 -22.835  0.00  0.00    -0.281 N 
ATOM     13  C   UNL d   1      32.975  20.392 -23.002  0.00  0.00     0.082 A 
ATOM     14  C   UNL d   1      33.060  20.940 -22.380  0.00  0.00     0.019 A 
ATOM     15  C   UNL d   1      33.153  20.674 -21.605  0.00  0.00     0.003 A 
ATOM     16  C   UNL d   1      33.162  19.869 -21.446  0.00  0.00     0.019 A 
ATOM     17  C   UNL d   1      33.237  21.215 -20.992  0.00  0.00     0.000 C 
ATOM     18  C   UNL d   1      33.078  19.321 -22.059  0.00  0.00     0.082 A 
ENDBRANCH   1  12
TORSDOF 3
ENDMDL
MODEL 4
REMARK VINA RESULT:      -2.2      5.610      7.494
REMARK  3 active torsions:
REMARK  status: ('A' for Active; 'I' for Inactive)
REMARK    1  A    between atoms: N_2  and  C_1 
REMARK    2  A    between atoms: N_3  and  C_1 
REMARK       I    between atoms: C_4  and  N_2 
REMARK    3  A    between atoms: C_9  and  C_4 
ROOT
ATOM      1  C   UNL d   1      32.381  22.960 -19.621  0.00  0.00     0.209 C 
ATOM      2  S   UNL d   1      31.872  23.503 -19.972  0.00  0.00    -0.038 SA
ENDROOT
BRANCH   1   3
ATOM      3  N   UNL d   1      32.707  22.353 -20.084  0.00  0.00    -0.180 NA
ATOM      4  C   UNL d   1      32.281  22.069 -20.733  0.00  0.00     0.281 C 
ATOM      5  O   UNL d   1      31.540  22.382 -20.922  0.00  0.00    -0.265 OA
BRANCH   4   6
ATOM      6  C   UNL d   1      32.600  21.468 -21.195  0.00  0.00     0.058 A 
ATOM      7  C   UNL d   1      32.919  21.637 -21.943  0.00  0.00     0.005 A 
ATOM      8  C   UNL d   1      33.238  21.040 -22.407  0.00  0.00     0.000 A 
ATOM      9  C   UNL d   1      33.241  20.257 -22.122  0.00  0.00     0.000 A 
ATOM     10  C   UNL d   1      32.924  20.086 -21.379  0.00  0.00     0.000 A 
ATOM     11  C   UNL d   1      32.606  20.694 -20.921  0.00  0.00     0.005 A 
ENDBRANCH   4   6
ENDBRANCH   1   3
BRANCH   1  12
ATOM     12  N   UNL d   1      32.563  23.017 -18.825  0.00  0.00    -0.281 N 
ATOM     13  C   UNL d   1      32.266  23.648 -18.380  0.00  0.00     0.082 A 
ATOM     14  C   UNL d   1      32.453  23.702 -17.570  0.00  0.00     0.019 A 
ATOM     15  C   UNL d   1      32.931  23.131 -17.217  0.00  0.00     0.003 A 
ATOM     16  C   UNL d   1      33.223  22.507 -17.664  0.00  0.00     0.019 A 
ATOM     17  C   UNL d   1      33.115  23.185 -16.418  0.00  0.00     0.000 C 
ATOM     18  C   UNL d   1      33.040  22.448 -18.469  0.00  0.00     0.082 A 
ENDBRANCH   1  12
TORSDOF 3
ENDMDL
MODEL 5
REMARK VINA RESULT:      -2.1      3.511      5.273
REMARK  3 active torsions:
REMARK  status: ('A' for Active; 'I' for Inactive)
REMARK    1  A    between atoms: N_2  and  C_1 
REMARK    2  A    between atoms: N_3  and  C_1 
REMARK       I    between atoms: C_4  and  N_2 
REMARK    3  A    between atoms: C_9  and  C_4 
ROOT
ATOM      1  C   UNL d   1      33.074  20.472 -21.789  0.00  0.00     0.209 C 
ATOM      2  S   UNL d   1      33.238  19.935 -21.188  0.00  0.00    -0.038 SA
ENDROOT
BRANCH   1   3
ATOM      3  N   UNL d   1      33.115  20.220 -22.579  0.00  0.00    -0.180 NA
ATOM      4  C   UNL d   1      33.113  19.410 -22.744  0.00  0.00     0.281 C 
ATOM      5  O   UNL d   1      33.072  18.855 -22.133  0.00  0.00    -0.265 OA
BRANCH   4   6
ATOM      6  C   UNL d   1      33.153  19.156 -23.525  0.00  0.00     0.058 A 
ATOM      7  C   UNL d   1      33.201  19.707 -24.145  0.00  0.00     0.005 A 
ATOM      8  C   UNL d   1      33.241  19.456 -24.926  0.00  0.00     0.000 A 
ATOM      9  C   UNL d   1      33.234  18.641 -25.095  0.00  0.00     0.000 A 
ATOM     10  C   UNL d   1      33.187  18.091 -24.480  0.00  0.00     0.000 A 
ATOM     11  C   UNL d   1      33.147  18.354 -23.700  0.00  0.00     0.005 A 
ENDBRANCH   4   6
ENDBRANCH   1   3
BRANCH   1  12
ATOM     12  N   UNL d   1      32.874  21.246 -21.611  0.00  0.00    -0.281 N 
ATOM     13  C   UNL d   1      32.385  21.404 -20.963  0.00  0.00     0.082 A 
ATOM     14  C   UNL d   1      32.183  22.192 -20.784  0.00  0.00     0.019 A 
ATOM     15  C   UNL d   1      32.469  22.808 -21.252  0.00  0.00     0.003 A 
ATOM     16  C   UNL d   1      32.953  22.644 -21.895  0.00  0.00     0.019 A 
ATOM     17  C   UNL d   1      32.269  23.585 -21.076  0.00  0.00     0.000 C 
ATOM     18  C   UNL d   1      33.157  21.863 -22.076  0.00  0.00     0.082 A 
ENDBRANCH   1  12
TORSDOF 3
ENDMDL
MODEL 6
REMARK VINA RESULT:      -1.2      4.321      6.391
REMARK  3 active torsions:
REMARK  status: ('A' for Active; 'I' for Inactive)
REMARK    1  A    between atoms: N_2  and  C_1 
REMARK    2  A    between atoms: N_3  and  C_1 
REMARK       I    between atoms: C_4  and  N_2 
REMARK    3  A    between atoms: C_9  and  C_4 
ROOT
ATOM      1  C   UNL d   1      32.852  22.316 -21.555  0.00  0.00     0.209 C 
ATOM      2  S   UNL d   1      32.782  22.793 -22.221  0.00  0.00    -0.038 SA
ENDROOT
BRANCH   1   3
ATOM      3  N   UNL d   1      32.958  21.499 -21.652  0.00  0.00    -0.180 NA
ATOM      4  C   UNL d   1      32.926  21.176 -22.412  0.00  0.00     0.281 C 
ATOM      5  O   UNL d   1      32.791  21.658 -23.070  0.00  0.00    -0.265 OA
BRANCH   4   6
ATOM      6  C   UNL d   1      33.030  20.367 -22.513  0.00  0.00     0.058 A 
ATOM      7  C   UNL d   1      33.059  20.039 -23.276  0.00  0.00     0.005 A 
ATOM      8  C   UNL d   1      33.163  19.232 -23.381  0.00  0.00     0.000 A 
ATOM      9  C   UNL d   1      33.240  18.738 -22.715  0.00  0.00     0.000 A 
ATOM     10  C   UNL d   1      33.212  19.062 -21.955  0.00  0.00     0.000 A 
ATOM     11  C   UNL d   1      33.108  19.875 -21.861  0.00  0.00     0.005 A 
ENDBRANCH   4   6
ENDBRANCH   1   3
BRANCH   1  12
ATOM     12  N   UNL d   1      32.818  22.643 -20.805  0.00  0.00    -0.281 N 
ATOM     13  C   UNL d   1      32.401  23.347 -20.682  0.00  0.00     0.082 A 
ATOM     14  C   UNL d   1      32.368  23.677 -19.919  0.00  0.00     0.019 A 
ATOM     15  C   UNL d   1      32.750  23.304 -19.290  0.00  0.00     0.003 A 
ATOM     16  C   UNL d   1      33.163  22.605 -19.418  0.00  0.00     0.019 A 
ATOM     17  C   UNL d   1      32.717  23.629 -18.537  0.00  0.00     0.000 C 
ATOM     18  C   UNL d   1      33.198  22.273 -20.175  0.00  0.00     0.082 A 
ENDBRANCH   1  12
TORSDOF 3
ENDMDL
MODEL 7
REMARK VINA RESULT:      -0.3      1.802      4.346
REMARK  3 active torsions:
REMARK  status: ('A' for Active; 'I' for Inactive)
REMARK    1  A    between atoms: N_2  and  C_1 
REMARK    2  A    between atoms: N_3  and  C_1 
REMARK       I    between atoms: C_4  and  N_2 
REMARK    3  A    between atoms: C_9  and  C_4 
ROOT
ATOM      1  C   UNL d   1      30.202  17.058 -24.495  0.00  0.00     0.209 C 
ATOM      2  S   UNL d   1      30.072  17.613 -25.088  0.00  0.00    -0.038 SA
ENDROOT
BRANCH   1   3
ATOM      3  N   UNL d   1      29.557  16.635 -24.190  0.00  0.00    -0.180 NA
ATOM      4  C   UNL d   1      28.799  16.962 -24.240  0.00  0.00     0.281 C 
ATOM      5  O   UNL d   1      28.682  17.702 -24.590  0.00  0.00    -0.265 OA
BRANCH   4   6
ATOM      6  C   UNL d   1      28.157  16.547 -23.939  0.00  0.00     0.058 A 
ATOM      7  C   UNL d   1      27.870  15.874 -24.333  0.00  0.00     0.005 A 
ATOM      8  C   UNL d   1      27.229  15.456 -24.035  0.00  0.00     0.000 A 
ATOM      9  C   UNL d   1      26.864  15.712 -23.332  0.00  0.00     0.000 A 
ATOM     10  C   UNL d   1      27.148  16.382 -22.939  0.00  0.00     0.000 A 
ATOM     11  C   UNL d   1      27.792  16.794 -23.246  0.00  0.00     0.005 A 
ENDBRANCH   4   6
ENDBRANCH   1   3
BRANCH   1  12
ATOM     12  N   UNL d   1      30.957  16.924 -24.209  0.00  0.00    -0.281 N 
ATOM     13  C   UNL d   1      31.280  17.438 -23.646  0.00  0.00     0.082 A 
ATOM     14  C   UNL d   1      32.048  17.299 -23.358  0.00  0.00     0.019 A 
ATOM     15  C   UNL d   1      32.483  16.655 -23.632  0.00  0.00     0.003 A 
ATOM     16  C   UNL d   1      32.157  16.148 -24.190  0.00  0.00     0.019 A 
ATOM     17  C   UNL d   1      33.241  16.518 -23.347  0.00  0.00     0.000 C 
ATOM     18  C   UNL d   1      31.394  16.281 -24.481  0.00  0.00     0.082 A 
ENDBRANCH   1  12
TORSDOF 3
ENDMDL
