MODEL 1
REMARK VINA RESULT:      -3.1      0.000      0.000
REMARK  3 active torsions:
REMARK  status: ('A' for Active; 'I' for Inactive)
REMARK       I    between atoms: C_3  and  N_1 
REMARK    1  A    between atoms: C_6  and  C_3 
REMARK    2  A    between atoms: O_9  and  C_6 
REMARK    3  A    between atoms: C_10  and  O_9 
ROOT
ATOM      1  N   UNL d   1      30.720  16.160 -23.687  0.00  0.00    -0.272 N 
ATOM      2  C   UNL d   1      30.129  16.624 -24.034  0.00  0.00     0.067 A 
ATOM      3  C   UNL d   1      31.515  16.378 -23.569  0.00  0.00     0.290 C 
ATOM      4  C   UNL d   1      30.400  15.457 -23.478  0.00  0.00     0.083 A 
ATOM      5  C   UNL d   1      29.438  16.194 -24.035  0.00  0.00     0.018 A 
ATOM      6  O   UNL d   1      32.030  15.846 -23.213  0.00  0.00    -0.264 OA
ATOM      7  C   UNL d   1      29.592  15.462 -23.691  0.00  0.00     0.021 A 
ATOM      8  C   UNL d   1      30.130  17.380 -24.348  0.00  0.00     0.018 A 
ATOM      9  C   UNL d   1      28.743  16.513 -24.350  0.00  0.00     0.002 A 
ATOM     10  C   UNL d   1      29.453  17.705 -24.660  0.00  0.00     0.002 A 
ATOM     11  C   UNL d   1      28.747  17.260 -24.660  0.00  0.00     0.000 A 
ENDROOT
BRANCH   3  12
ATOM     12  C   UNL d   1      31.770  17.124 -23.813  0.00  0.00     0.184 C 
BRANCH  12  13
ATOM     13  O   UNL d   1      32.562  17.341 -23.688  0.00  0.00    -0.300 OA
BRANCH  13  14
ATOM     14  C   UNL d   1      32.788  18.126 -23.766  0.00  0.00     0.100 A 
ATOM     15  C   UNL d   1      32.808  18.620 -23.098  0.00  0.00     0.025 A 
ATOM     16  C   UNL d   1      33.033  19.405 -23.171  0.00  0.00     0.002 A 
ATOM     17  C   UNL d   1      33.241  19.705 -23.912  0.00  0.00     0.000 A 
ATOM     18  C   UNL d   1      33.226  19.225 -24.588  0.00  0.00     0.002 A 
ATOM     19  C   UNL d   1      32.995  18.426 -24.504  0.00  0.00     0.025 A 
ENDBRANCH  13  14
ENDBRANCH  12  13
ENDBRANCH   3  12
TORSDOF 3
ENDMDL
MODEL 2
REMARK VINA RESULT:      -2.3      2.309      4.948
REMARK  3 active torsions:
REMARK  status: ('A' for Active; 'I' for Inactive)
REMARK       I    between atoms: C_3  and  N_1 
REMARK    1  A    between atoms: C_6  and  C_3 
REMARK    2  A    between atoms: O_9  and  C_6 
REMARK    3  A    between atoms: C_10  and  O_9 
ROOT
ATOM      1  N   UNL d   1      33.171  21.025 -23.007  0.00  0.00    -0.272 N 
ATOM      2  C   UNL d   1      33.106  20.923 -22.189  0.00  0.00     0.067 A 
ATOM      3  C   UNL d   1      33.166  20.423 -23.582  0.00  0.00     0.290 C 
ATOM      4  C   UNL d   1      33.241  21.808 -23.161  0.00  0.00     0.083 A 
ATOM      5  C   UNL d   1      33.137  21.658 -21.839  0.00  0.00     0.018 A 
ATOM      6  O   UNL d   1      33.237  20.624 -24.376  0.00  0.00    -0.264 OA
ATOM      7  C   UNL d   1      33.221  22.220 -22.434  0.00  0.00     0.021 A 
ATOM      8  C   UNL d   1      33.023  20.259 -21.717  0.00  0.00     0.018 A 
ATOM      9  C   UNL d   1      33.086  21.736 -21.017  0.00  0.00     0.002 A 
ATOM     10  C   UNL d   1      32.972  20.323 -20.908  0.00  0.00     0.002 A 
ATOM     11  C   UNL d   1      33.004  21.079 -20.554  0.00  0.00     0.000 A 
ENDROOT
BRANCH   3  12
ATOM     12  C   UNL d   1      33.091  19.637 -23.345  0.00  0.00     0.184 C 
BRANCH  12  13
ATOM     13  O   UNL d   1      33.129  19.036 -23.917  0.00  0.00    -0.300 OA
BRANCH  13  14
ATOM     14  C   UNL d   1      32.811  18.297 -23.756  0.00  0.00     0.100 A 
ATOM     15  C   UNL d   1      32.059  18.096 -24.049  0.00  0.00     0.025 A 
ATOM     16  C   UNL d   1      31.737  17.359 -23.890  0.00  0.00     0.002 A 
ATOM     17  C   UNL d   1      32.162  16.814 -23.438  0.00  0.00     0.000 A 
ATOM     18  C   UNL d   1      32.913  16.999 -23.138  0.00  0.00     0.002 A 
ATOM     19  C   UNL d   1      33.233  17.754 -23.305  0.00  0.00     0.025 A 
ENDBRANCH  13  14
ENDBRANCH  12  13
ENDBRANCH   3  12
TORSDOF 3
ENDMDL
MODEL 3
REMARK VINA RESULT:      -2.1      3.096      5.450
REMARK  3 active torsions:
REMARK  status: ('A' for Active; 'I' for Inactive)
REMARK       I    between atoms: C_3  and  N_1 
REMARK    1  A    between atoms: C_6  and  C_3 
REMARK    2  A    between atoms: O_9  and  C_6 
REMARK    3  A    between atoms: C_10  and  O_9 
ROOT
ATOM      1  N   UNL d   1      32.939  21.431 -21.073  0.00  0.00    -0.272 N 
ATOM      2  C   UNL d   1      32.890  22.041 -21.629  0.00  0.00     0.067 A 
ATOM      3  C   UNL d   1      33.000  20.617 -21.234  0.00  0.00     0.290 C 
ATOM      4  C   UNL d   1      32.917  21.754 -20.340  0.00  0.00     0.083 A 
ATOM      5  C   UNL d   1      32.838  22.747 -21.227  0.00  0.00     0.018 A 
ATOM      6  O   UNL d   1      33.042  20.084 -20.611  0.00  0.00    -0.264 OA
ATOM      7  C   UNL d   1      32.854  22.583 -20.421  0.00  0.00     0.021 A 
ATOM      8  C   UNL d   1      32.887  22.046 -22.448  0.00  0.00     0.018 A 
ATOM      9  C   UNL d   1      32.783  23.463 -21.638  0.00  0.00     0.002 A 
ATOM     10  C   UNL d   1      32.832  22.743 -22.863  0.00  0.00     0.002 A 
ATOM     11  C   UNL d   1      32.779  23.465 -22.447  0.00  0.00     0.000 A 
ENDROOT
BRANCH   3  12
ATOM     12  C   UNL d   1      33.016  20.361 -22.018  0.00  0.00     0.184 C 
BRANCH  12  13
ATOM     13  O   UNL d   1      33.240  19.578 -22.184  0.00  0.00    -0.300 OA
BRANCH  13  14
ATOM     14  C   UNL d   1      32.993  19.220 -22.879  0.00  0.00     0.100 A 
ATOM     15  C   UNL d   1      33.236  19.526 -23.613  0.00  0.00     0.025 A 
ATOM     16  C   UNL d   1      32.991  19.171 -24.310  0.00  0.00     0.002 A 
ATOM     17  C   UNL d   1      32.501  18.507 -24.283  0.00  0.00     0.000 A 
ATOM     18  C   UNL d   1      32.250  18.190 -23.559  0.00  0.00     0.002 A 
ATOM     19  C   UNL d   1      32.504  18.558 -22.853  0.00  0.00     0.025 A 
ENDBRANCH  13  14
ENDBRANCH  12  13
ENDBRANCH   3  12
TORSDOF 3
ENDMDL
