MODEL 1
REMARK VINA RESULT:      -4.5      0.000      0.000
REMARK  5 active torsions:
REMARK  status: ('A' for Active; 'I' for Inactive)
REMARK    1  A    between atoms: C_2  and  S_1 
REMARK    2  A    between atoms: N_4  and  S_1 
REMARK    3  A    between atoms: C_10  and  N_4 
REMARK    4  A    between atoms: C_14  and  C_5 
REMARK    5  A    between atoms: C_13  and  C_10 
ROOT
ATOM      1  S   UNL d   1      57.935  -0.100  30.222  0.00  0.00     0.285 S 
ATOM      2  O   UNL d   1      57.904  -0.868  29.951  0.00  0.00    -0.198 OA
ATOM      3  O   UNL d   1      57.966   0.682  30.497  0.00  0.00    -0.198 OA
ENDROOT
BRANCH   1   4
ATOM      4  C   UNL d   1      58.562   0.056  29.709  0.00  0.00     0.105 A 
ATOM      5  C   UNL d   1      59.326  -0.181  29.907  0.00  0.00     0.013 A 
ATOM      6  C   UNL d   1      59.953  -0.026  29.394  0.00  0.00     0.001 A 
ATOM      7  C   UNL d   1      59.816   0.367  28.682  0.00  0.00     0.000 A 
ATOM      8  C   UNL d   1      59.057   0.600  28.489  0.00  0.00     0.001 A 
ATOM      9  C   UNL d   1      58.430   0.445  29.002  0.00  0.00     0.012 A 
ATOM     10  C   UNL d   1      57.666   0.682  28.804  0.00  0.00     0.001 C 
BRANCH   6  11
ATOM     11  C   UNL d   1      60.720  -0.265  29.596  0.00  0.00     0.000 C 
ATOM     12  C   UNL d   1      61.104   0.083  30.238  0.00  0.00     0.000 C 
ATOM     13  C   UNL d   1      61.101  -0.851  29.155  0.00  0.00     0.000 C 
ENDBRANCH   6  11
ENDBRANCH   1   4
BRANCH   1  14
ATOM     14  N   UNL d   1      57.308  -0.255  30.735  0.00  0.00    -0.155 NA
BRANCH  14  15
ATOM     15  C   UNL d   1      57.454  -0.391  31.535  0.00  0.00     0.131 C 
BRANCH  15  16
ATOM     16  C   UNL d   1      56.824  -0.498  32.057  0.00  0.00     0.101 A 
ATOM     17  N   UNL d   1      56.556  -1.259  32.229  0.00  0.00    -0.242 NA
ATOM     18  C   UNL d   1      55.926  -1.367  32.751  0.00  0.00     0.099 A 
ATOM     19  C   UNL d   1      55.565  -0.713  33.101  0.00  0.00     0.021 A 
ATOM     20  C   UNL d   1      55.832   0.052  32.929  0.00  0.00     0.003 A 
ATOM     21  C   UNL d   1      56.462   0.160  32.407  0.00  0.00     0.021 A 
ENDBRANCH  15  16
ENDBRANCH  14  15
ENDBRANCH   1  14
TORSDOF 5
ENDMDL
MODEL 2
REMARK VINA RESULT:      -4.5      1.260      1.502
REMARK  5 active torsions:
REMARK  status: ('A' for Active; 'I' for Inactive)
REMARK    1  A    between atoms: C_2  and  S_1 
REMARK    2  A    between atoms: N_4  and  S_1 
REMARK    3  A    between atoms: C_10  and  N_4 
REMARK    4  A    between atoms: C_14  and  C_5 
REMARK    5  A    between atoms: C_13  and  C_10 
ROOT
ATOM      1  S   UNL d   1      58.014  -0.402  30.350  0.00  0.00     0.285 S 
ATOM      2  O   UNL d   1      57.358  -0.662  29.942  0.00  0.00    -0.198 OA
ATOM      3  O   UNL d   1      58.681  -0.137  30.765  0.00  0.00    -0.198 OA
ENDROOT
BRANCH   1   4
ATOM      4  C   UNL d   1      58.497  -0.642  29.726  0.00  0.00     0.105 A 
ATOM      5  C   UNL d   1      58.740  -1.428  29.671  0.00  0.00     0.013 A 
ATOM      6  C   UNL d   1      59.223  -1.668  29.047  0.00  0.00     0.001 A 
ATOM      7  C   UNL d   1      59.463  -1.122  28.478  0.00  0.00     0.000 A 
ATOM      8  C   UNL d   1      59.220  -0.344  28.536  0.00  0.00     0.001 A 
ATOM      9  C   UNL d   1      58.737  -0.104  29.159  0.00  0.00     0.012 A 
ATOM     10  C   UNL d   1      58.494   0.682  29.215  0.00  0.00     0.001 C 
BRANCH   6  11
ATOM     11  C   UNL d   1      59.466  -2.459  28.994  0.00  0.00     0.000 C 
ATOM     12  C   UNL d   1      60.250  -2.659  29.157  0.00  0.00     0.000 C 
ATOM     13  C   UNL d   1      58.926  -3.045  28.778  0.00  0.00     0.000 C 
ENDBRANCH   6  11
ENDBRANCH   1   4
BRANCH   1  14
ATOM     14  N   UNL d   1      57.530  -0.162  30.974  0.00  0.00    -0.155 NA
BRANCH  14  15
ATOM     15  C   UNL d   1      57.112  -0.723  31.411  0.00  0.00     0.131 C 
BRANCH  15  16
ATOM     16  C   UNL d   1      56.612  -0.481  32.020  0.00  0.00     0.101 A 
ATOM     17  N   UNL d   1      56.481   0.322  32.153  0.00  0.00    -0.242 NA
ATOM     18  C   UNL d   1      55.980   0.564  32.763  0.00  0.00     0.099 A 
ATOM     19  C   UNL d   1      55.610   0.002  33.239  0.00  0.00     0.021 A 
ATOM     20  C   UNL d   1      55.740  -0.806  33.108  0.00  0.00     0.003 A 
ATOM     21  C   UNL d   1      56.240  -1.047  32.499  0.00  0.00     0.021 A 
ENDBRANCH  15  16
ENDBRANCH  14  15
ENDBRANCH   1  14
TORSDOF 5
ENDMDL
MODEL 3
REMARK VINA RESULT:      -2.4      1.342      4.548
REMARK  5 active torsions:
REMARK  status: ('A' for Active; 'I' for Inactive)
REMARK    1  A    between atoms: C_2  and  S_1 
REMARK    2  A    between atoms: N_4  and  S_1 
REMARK    3  A    between atoms: C_10  and  N_4 
REMARK    4  A    between atoms: C_14  and  C_5 
REMARK    5  A    between atoms: C_13  and  C_10 
ROOT
ATOM      1  S   UNL d   1      57.218  -0.133  31.443  0.00  0.00     0.285 S 
ATOM      2  O   UNL d   1      57.558  -0.813  31.734  0.00  0.00    -0.198 OA
ATOM      3  O   UNL d   1      56.871   0.559  31.146  0.00  0.00    -0.198 OA
ENDROOT
BRANCH   1   4
ATOM      4  C   UNL d   1      56.975   0.072  32.204  0.00  0.00     0.105 A 
ATOM      5  C   UNL d   1      56.219  -0.133  32.465  0.00  0.00     0.013 A 
ATOM      6  C   UNL d   1      55.977   0.072  33.226  0.00  0.00     0.001 A 
ATOM      7  C   UNL d   1      56.488   0.481  33.726  0.00  0.00     0.000 A 
ATOM      8  C   UNL d   1      57.235   0.682  33.464  0.00  0.00     0.001 A 
ATOM      9  C   UNL d   1      57.478   0.477  32.703  0.00  0.00     0.012 A 
ATOM     10  C   UNL d   1      58.233   0.682  32.442  0.00  0.00     0.001 C 
BRANCH   6  11
ATOM     11  C   UNL d   1      55.217  -0.135  33.486  0.00  0.00     0.000 C 
ATOM     12  C   UNL d   1      54.947  -0.909  33.393  0.00  0.00     0.000 C 
ATOM     13  C   UNL d   1      54.731   0.432  33.838  0.00  0.00     0.000 C 
ENDBRANCH   6  11
ENDBRANCH   1   4
BRANCH   1  14
ATOM     14  N   UNL d   1      57.461  -0.338  30.681  0.00  0.00    -0.155 NA
BRANCH  14  15
ATOM     15  C   UNL d   1      57.868  -1.043  30.555  0.00  0.00     0.131 C 
BRANCH  15  16
ATOM     16  C   UNL d   1      58.293  -1.154  29.856  0.00  0.00     0.101 A 
ATOM     17  N   UNL d   1      58.271  -1.883  29.471  0.00  0.00    -0.242 NA
ATOM     18  C   UNL d   1      58.697  -1.994  28.773  0.00  0.00     0.099 A 
ATOM     19  C   UNL d   1      59.145  -1.376  28.460  0.00  0.00     0.021 A 
ATOM     20  C   UNL d   1      59.169  -0.642  28.846  0.00  0.00     0.003 A 
ATOM     21  C   UNL d   1      58.743  -0.532  29.544  0.00  0.00     0.021 A 
ENDBRANCH  15  16
ENDBRANCH  14  15
ENDBRANCH   1  14
TORSDOF 5
ENDMDL
MODEL 4
REMARK VINA RESULT:      -2.4      1.692      4.323
REMARK  5 active torsions:
REMARK  status: ('A' for Active; 'I' for Inactive)
REMARK    1  A    between atoms: C_2  and  S_1 
REMARK    2  A    between atoms: N_4  and  S_1 
REMARK    3  A    between atoms: C_10  and  N_4 
REMARK    4  A    between atoms: C_14  and  C_5 
REMARK    5  A    between atoms: C_13  and  C_10 
ROOT
ATOM      1  S   UNL d   1      57.978  -0.810  30.750  0.00  0.00     0.285 S 
ATOM      2  O   UNL d   1      58.552  -0.520  31.250  0.00  0.00    -0.198 OA
ATOM      3  O   UNL d   1      57.393  -1.106  30.242  0.00  0.00    -0.198 OA
ENDROOT
BRANCH   1   4
ATOM      4  C   UNL d   1      57.396  -0.436  31.200  0.00  0.00     0.105 A 
ATOM      5  C   UNL d   1      57.083  -0.810  31.865  0.00  0.00     0.013 A 
ATOM      6  C   UNL d   1      56.502  -0.436  32.314  0.00  0.00     0.001 A 
ATOM      7  C   UNL d   1      56.234   0.314  32.100  0.00  0.00     0.000 A 
ATOM      8  C   UNL d   1      56.547   0.682  31.441  0.00  0.00     0.001 A 
ATOM      9  C   UNL d   1      57.128   0.307  30.991  0.00  0.00     0.012 A 
ATOM     10  C   UNL d   1      57.441   0.682  30.327  0.00  0.00     0.001 C 
BRANCH   6  11
ATOM     11  C   UNL d   1      56.189  -0.814  32.982  0.00  0.00     0.000 C 
ATOM     12  C   UNL d   1      56.173  -0.422  33.707  0.00  0.00     0.000 C 
ATOM     13  C   UNL d   1      55.892  -1.582  32.921  0.00  0.00     0.000 C 
ENDBRANCH   6  11
ENDBRANCH   1   4
BRANCH   1  14
ATOM     14  N   UNL d   1      58.559  -1.185  30.301  0.00  0.00    -0.155 NA
BRANCH  14  15
ATOM     15  C   UNL d   1      58.349  -1.779  29.768  0.00  0.00     0.131 C 
BRANCH  15  16
ATOM     16  C   UNL d   1      58.932  -2.165  29.331  0.00  0.00     0.101 A 
ATOM     17  N   UNL d   1      59.560  -1.737  29.011  0.00  0.00    -0.242 NA
ATOM     18  C   UNL d   1      60.143  -2.124  28.573  0.00  0.00     0.099 A 
ATOM     19  C   UNL d   1      60.098  -2.939  28.456  0.00  0.00     0.021 A 
ATOM     20  C   UNL d   1      59.468  -3.372  28.777  0.00  0.00     0.003 A 
ATOM     21  C   UNL d   1      58.885  -2.985  29.214  0.00  0.00     0.021 A 
ENDBRANCH  15  16
ENDBRANCH  14  15
ENDBRANCH   1  14
TORSDOF 5
ENDMDL
