MODEL 1
REMARK VINA RESULT:     -10.9      0.000      0.000
REMARK  1 active torsions:
REMARK  status: ('A' for Active; 'I' for Inactive)
REMARK    1  A    between atoms: C_7  and  C_6 
ROOT
ATOM      1  C   UNL d   1      53.220  33.090  53.792  0.00  0.00     0.045 A 
ATOM      2  C   UNL d   1      52.733  32.734  53.228  0.00  0.00     0.196 A 
ATOM      3  C   UNL d   1      53.700  32.515  54.139  0.00  0.00     0.003 A 
ATOM      4  C   UNL d   1      52.916  31.927  53.227  0.00  0.00     0.039 A 
ATOM      5  C   UNL d   1      53.506  31.793  53.783  0.00  0.00     0.003 A 
ATOM      6  C   UNL d   1      53.288  33.884  54.039  0.00  0.00     0.068 A 
ATOM      7  O   UNL d   1      52.175  33.107  52.758  0.00  0.00    -0.287 OA
ATOM      8  C   UNL d   1      54.238  32.722  54.721  0.00  0.00     0.000 A 
ATOM      9  C   UNL d   1      52.616  31.295  52.786  0.00  0.00     0.003 A 
ATOM     10  C   UNL d   1      53.797  31.027  53.899  0.00  0.00     0.000 A 
ATOM     11  C   UNL d   1      53.830  34.091  54.624  0.00  0.00     0.006 A 
ATOM     12  C   UNL d   1      54.307  33.500  54.965  0.00  0.00     0.000 A 
ATOM     13  C   UNL d   1      52.907  30.536  52.903  0.00  0.00     0.000 A 
ATOM     14  C   UNL d   1      53.497  30.403  53.460  0.00  0.00     0.000 A 
ENDROOT
BRANCH   6  15
ATOM     15  C   UNL d   1      52.808  34.459  53.693  0.00  0.00     0.211 C 
ATOM     16  O   UNL d   1      52.071  34.628  54.027  0.00  0.00    -0.644 OA
ATOM     17  O   UNL d   1      53.060  34.860  53.023  0.00  0.00    -0.644 OA
ENDBRANCH   6  15
TORSDOF 1
ENDMDL
MODEL 2
REMARK VINA RESULT:     -10.6      1.392      2.772
REMARK  1 active torsions:
REMARK  status: ('A' for Active; 'I' for Inactive)
REMARK    1  A    between atoms: C_7  and  C_6 
ROOT
ATOM      1  C   UNL d   1      53.337  33.082  53.924  0.00  0.00     0.045 A 
ATOM      2  C   UNL d   1      53.104  33.861  54.067  0.00  0.00     0.196 A 
ATOM      3  C   UNL d   1      52.849  32.754  53.345  0.00  0.00     0.003 A 
ATOM      4  C   UNL d   1      52.463  34.016  53.568  0.00  0.00     0.039 A 
ATOM      5  C   UNL d   1      52.307  33.340  53.127  0.00  0.00     0.003 A 
ATOM      6  C   UNL d   1      53.947  32.619  54.257  0.00  0.00     0.068 A 
ATOM      7  O   UNL d   1      53.443  34.383  54.602  0.00  0.00    -0.287 OA
ATOM      8  C   UNL d   1      52.962  31.981  53.098  0.00  0.00     0.000 A 
ATOM      9  C   UNL d   1      51.999  34.693  53.461  0.00  0.00     0.003 A 
ATOM     10  C   UNL d   1      51.687  33.341  52.579  0.00  0.00     0.000 A 
ATOM     11  C   UNL d   1      54.059  31.842  54.007  0.00  0.00     0.006 A 
ATOM     12  C   UNL d   1      53.558  31.525  53.422  0.00  0.00     0.000 A 
ATOM     13  C   UNL d   1      51.385  34.690  52.916  0.00  0.00     0.000 A 
ATOM     14  C   UNL d   1      51.230  34.014  52.475  0.00  0.00     0.000 A 
ENDROOT
BRANCH   6  15
ATOM     15  C   UNL d   1      54.435  32.946  54.835  0.00  0.00     0.211 C 
ATOM     16  O   UNL d   1      55.116  33.355  54.608  0.00  0.00    -0.644 OA
ATOM     17  O   UNL d   1      54.246  32.866  55.630  0.00  0.00    -0.644 OA
ENDBRANCH   6  15
TORSDOF 1
ENDMDL
MODEL 3
REMARK VINA RESULT:     -10.6      1.112      1.739
REMARK  1 active torsions:
REMARK  status: ('A' for Active; 'I' for Inactive)
REMARK    1  A    between atoms: C_7  and  C_6 
ROOT
ATOM      1  C   UNL d   1      53.232  33.448  53.981  0.00  0.00     0.045 A 
ATOM      2  C   UNL d   1      53.662  32.834  54.328  0.00  0.00     0.196 A 
ATOM      3  C   UNL d   1      52.781  33.146  53.359  0.00  0.00     0.003 A 
ATOM      4  C   UNL d   1      53.473  32.143  53.912  0.00  0.00     0.039 A 
ATOM      5  C   UNL d   1      52.935  32.334  53.321  0.00  0.00     0.003 A 
ATOM      6  C   UNL d   1      53.193  34.262  54.159  0.00  0.00     0.068 A 
ATOM      7  O   UNL d   1      54.177  32.895  54.962  0.00  0.00    -0.287 OA
ATOM      8  C   UNL d   1      52.299  33.643  52.919  0.00  0.00     0.000 A 
ATOM      9  C   UNL d   1      53.726  31.361  54.000  0.00  0.00     0.003 A 
ATOM     10  C   UNL d   1      52.650  31.743  52.817  0.00  0.00     0.000 A 
ATOM     11  C   UNL d   1      52.708  34.759  53.715  0.00  0.00     0.006 A 
ATOM     12  C   UNL d   1      52.260  34.441  53.090  0.00  0.00     0.000 A 
ATOM     13  C   UNL d   1      53.442  30.777  53.499  0.00  0.00     0.000 A 
ATOM     14  C   UNL d   1      52.904  30.968  52.908  0.00  0.00     0.000 A 
ENDROOT
BRANCH   6  15
ATOM     15  C   UNL d   1      53.643  34.564  54.780  0.00  0.00     0.211 C 
ATOM     16  O   UNL d   1      53.295  34.661  55.524  0.00  0.00    -0.644 OA
ATOM     17  O   UNL d   1      54.430  34.765  54.663  0.00  0.00    -0.644 OA
ENDBRANCH   6  15
TORSDOF 1
ENDMDL
MODEL 4
REMARK VINA RESULT:     -10.4      1.500      2.981
REMARK  1 active torsions:
REMARK  status: ('A' for Active; 'I' for Inactive)
REMARK    1  A    between atoms: C_7  and  C_6 
ROOT
ATOM      1  C   UNL d   1      52.988  32.545  53.595  0.00  0.00     0.045 A 
ATOM      2  C   UNL d   1      53.704  32.270  53.902  0.00  0.00     0.196 A 
ATOM      3  C   UNL d   1      52.865  33.322  53.846  0.00  0.00     0.003 A 
ATOM      4  C   UNL d   1      54.027  32.887  54.349  0.00  0.00     0.039 A 
ATOM      5  C   UNL d   1      53.515  33.529  54.314  0.00  0.00     0.003 A 
ATOM      6  C   UNL d   1      52.420  32.177  53.107  0.00  0.00     0.068 A 
ATOM      7  O   UNL d   1      54.033  31.528  53.787  0.00  0.00    -0.287 OA
ATOM      8  C   UNL d   1      52.191  33.728  53.618  0.00  0.00     0.000 A 
ATOM      9  C   UNL d   1      54.728  32.943  54.785  0.00  0.00     0.003 A 
ATOM     10  C   UNL d   1      53.703  34.227  54.716  0.00  0.00     0.000 A 
ATOM     11  C   UNL d   1      51.743  32.587  52.879  0.00  0.00     0.006 A 
ATOM     12  C   UNL d   1      51.633  33.370  53.140  0.00  0.00     0.000 A 
ATOM     13  C   UNL d   1      54.911  33.637  55.182  0.00  0.00     0.000 A 
ATOM     14  C   UNL d   1      54.399  34.279  55.148  0.00  0.00     0.000 A 
ENDROOT
BRANCH   6  15
ATOM     15  C   UNL d   1      52.543  31.401  52.856  0.00  0.00     0.211 C 
ATOM     16  O   UNL d   1      52.953  31.262  52.152  0.00  0.00    -0.644 OA
ATOM     17  O   UNL d   1      52.260  30.772  53.301  0.00  0.00    -0.644 OA
ENDBRANCH   6  15
TORSDOF 1
ENDMDL
MODEL 5
REMARK VINA RESULT:     -10.4      1.315      2.699
REMARK  1 active torsions:
REMARK  status: ('A' for Active; 'I' for Inactive)
REMARK    1  A    between atoms: C_7  and  C_6 
ROOT
ATOM      1  C   UNL d   1      53.201  32.729  53.717  0.00  0.00     0.045 A 
ATOM      2  C   UNL d   1      52.688  32.596  53.084  0.00  0.00     0.196 A 
ATOM      3  C   UNL d   1      53.094  33.499  53.996  0.00  0.00     0.003 A 
ATOM      4  C   UNL d   1      52.259  33.294  52.970  0.00  0.00     0.039 A 
ATOM      5  C   UNL d   1      52.507  33.845  53.527  0.00  0.00     0.003 A 
ATOM      6  C   UNL d   1      53.765  32.235  54.084  0.00  0.00     0.068 A 
ATOM      7  O   UNL d   1      52.617  31.904  52.649  0.00  0.00    -0.287 OA
ATOM      8  C   UNL d   1      53.538  33.775  54.627  0.00  0.00     0.000 A 
ATOM      9  C   UNL d   1      51.670  33.496  52.426  0.00  0.00     0.003 A 
ATOM     10  C   UNL d   1      52.166  34.599  53.540  0.00  0.00     0.000 A 
ATOM     11  C   UNL d   1      54.210  32.515  54.718  0.00  0.00     0.006 A 
ATOM     12  C   UNL d   1      54.091  33.293  54.988  0.00  0.00     0.000 A 
ATOM     13  C   UNL d   1      51.334  34.245  52.441  0.00  0.00     0.000 A 
ATOM     14  C   UNL d   1      51.582  34.796  52.998  0.00  0.00     0.000 A 
ENDROOT
BRANCH   6  15
ATOM     15  C   UNL d   1      53.871  31.466  53.806  0.00  0.00     0.211 C 
ATOM     16  O   UNL d   1      54.426  31.323  53.209  0.00  0.00    -0.644 OA
ATOM     17  O   UNL d   1      53.431  30.848  54.118  0.00  0.00    -0.644 OA
ENDBRANCH   6  15
TORSDOF 1
ENDMDL
