MODEL 1
REMARK VINA RESULT:       4.4      0.000      0.000
REMARK  3 active torsions:
REMARK  status: ('A' for Active; 'I' for Inactive)
REMARK    1  A    between atoms: C_8  and  N_1 
REMARK    2  A    between atoms: O_16  and  C_11 
REMARK    3  A    between atoms: C_19  and  O_16 
ROOT
ATOM      1  N   UNL d   1     -41.633-122.446 -50.582  0.00  0.00    -0.240 N 
ATOM      2  C   UNL d   1     -41.545-121.644 -50.702  0.00  0.00     0.267 A 
ATOM      3  C   UNL d   1     -41.599-123.052 -51.142  0.00  0.00     0.267 A 
ATOM      4  C   UNL d   1     -41.471-123.002 -51.957  0.00  0.00     0.057 A 
ATOM      5  C   UNL d   1     -41.403-121.240 -51.404  0.00  0.00     0.057 A 
ATOM      6  C   UNL d   1     -41.344-122.328 -52.407  0.00  0.00     0.005 A 
ATOM      7  C   UNL d   1     -41.313-121.540 -52.166  0.00  0.00     0.005 A 
ATOM      8  O   UNL d   1     -41.608-121.171 -50.021  0.00  0.00    -0.267 OA
ATOM      9  O   UNL d   1     -41.711-123.813 -50.842  0.00  0.00    -0.267 OA
ATOM     10  C   UNL d   1     -41.481-123.739 -52.310  0.00  0.00     0.005 A 
ATOM     11  C   UNL d   1     -41.354-120.437 -51.274  0.00  0.00     0.005 A 
ATOM     12  C   UNL d   1     -41.174-121.035 -52.795  0.00  0.00     0.000 A 
ATOM     13  C   UNL d   1     -41.225-122.393 -53.225  0.00  0.00     0.000 A 
ATOM     14  C   UNL d   1     -41.235-123.139 -53.583  0.00  0.00     0.000 A 
ATOM     15  C   UNL d   1     -41.123-120.223 -52.670  0.00  0.00     0.000 A 
ATOM     16  C   UNL d   1     -41.213-119.921 -51.903  0.00  0.00     0.000 A 
ATOM     17  C   UNL d   1     -41.362-123.805 -53.129  0.00  0.00     0.000 A 
ENDROOT
BRANCH   1  18
ATOM     18  C   UNL d   1     -41.772-122.680 -49.799  0.00  0.00     0.092 A 
ATOM     19  C   UNL d   1     -42.546-122.748 -49.520  0.00  0.00     0.116 A 
ATOM     20  C   UNL d   1     -42.686-122.982 -48.738  0.00  0.00     0.026 A 
ATOM     21  C   UNL d   1     -42.044-123.150 -48.230  0.00  0.00     0.002 A 
ATOM     22  C   UNL d   1     -41.262-123.080 -48.518  0.00  0.00     0.002 A 
ATOM     23  C   UNL d   1     -41.128-122.846 -49.299  0.00  0.00     0.020 A 
BRANCH  19  24
ATOM     24  O   UNL d   1     -43.180-122.580 -50.024  0.00  0.00    -0.304 OA
BRANCH  24  25
ATOM     25  C   UNL d   1     -43.946-122.663 -49.747  0.00  0.00     0.123 C 
ATOM     26  C   UNL d   1     -44.561-122.286 -50.144  0.00  0.00     0.029 C 
ENDBRANCH  24  25
ENDBRANCH  19  24
ENDBRANCH   1  18
TORSDOF 3
ENDMDL
MODEL 2
REMARK VINA RESULT:       4.7      0.142      2.041
REMARK  3 active torsions:
REMARK  status: ('A' for Active; 'I' for Inactive)
REMARK    1  A    between atoms: C_8  and  N_1 
REMARK    2  A    between atoms: O_16  and  C_11 
REMARK    3  A    between atoms: C_19  and  O_16 
ROOT
ATOM      1  N   UNL d   1     -41.611-122.451 -50.455  0.00  0.00    -0.240 N 
ATOM      2  C   UNL d   1     -41.547-123.044 -51.011  0.00  0.00     0.267 A 
ATOM      3  C   UNL d   1     -41.545-121.636 -50.569  0.00  0.00     0.267 A 
ATOM      4  C   UNL d   1     -41.400-121.217 -51.267  0.00  0.00     0.057 A 
ATOM      5  C   UNL d   1     -41.403-122.981 -51.818  0.00  0.00     0.057 A 
ATOM      6  C   UNL d   1     -41.285-121.518 -52.020  0.00  0.00     0.005 A 
ATOM      7  C   UNL d   1     -41.285-122.303 -52.273  0.00  0.00     0.005 A 
ATOM      8  O   UNL d   1     -41.641-123.817 -50.723  0.00  0.00    -0.267 OA
ATOM      9  O   UNL d   1     -41.639-121.178 -49.888  0.00  0.00    -0.267 OA
ATOM     10  C   UNL d   1     -41.378-120.410 -51.135  0.00  0.00     0.005 A 
ATOM     11  C   UNL d   1     -41.382-123.715 -52.170  0.00  0.00     0.005 A 
ATOM     12  C   UNL d   1     -41.148-122.364 -53.078  0.00  0.00     0.000 A 
ATOM     13  C   UNL d   1     -41.145-121.002 -52.655  0.00  0.00     0.000 A 
ATOM     14  C   UNL d   1     -41.123-120.187 -52.523  0.00  0.00     0.000 A 
ATOM     15  C   UNL d   1     -41.127-123.103 -53.438  0.00  0.00     0.000 A 
ATOM     16  C   UNL d   1     -41.245-123.785 -52.981  0.00  0.00     0.000 A 
ATOM     17  C   UNL d   1     -41.238-119.894 -51.771  0.00  0.00     0.000 A 
ENDROOT
BRANCH   1  18
ATOM     18  C   UNL d   1     -41.761-122.700 -49.678  0.00  0.00     0.092 A 
ATOM     19  C   UNL d   1     -42.538-122.747 -49.403  0.00  0.00     0.116 A 
ATOM     20  C   UNL d   1     -42.687-122.996 -48.627  0.00  0.00     0.026 A 
ATOM     21  C   UNL d   1     -42.053-123.199 -48.122  0.00  0.00     0.002 A 
ATOM     22  C   UNL d   1     -41.268-123.149 -48.406  0.00  0.00     0.002 A 
ATOM     23  C   UNL d   1     -41.124-122.900 -49.181  0.00  0.00     0.020 A 
BRANCH  19  24
ATOM     24  O   UNL d   1     -43.164-122.546 -49.904  0.00  0.00    -0.304 OA
BRANCH  24  25
ATOM     25  C   UNL d   1     -43.931-122.573 -49.619  0.00  0.00     0.123 C 
ATOM     26  C   UNL d   1     -44.545-122.284 -50.085  0.00  0.00     0.029 C 
ENDBRANCH  24  25
ENDBRANCH  19  24
ENDBRANCH   1  18
TORSDOF 3
ENDMDL
