MODEL 1
REMARK VINA RESULT:      -0.7      0.000      0.000
REMARK  5 active torsions:
REMARK  status: ('A' for Active; 'I' for Inactive)
REMARK    1  A    between atoms: C_2  and  C_1 
REMARK       I    between atoms: N_3  and  C_2 
REMARK    2  A    between atoms: C_6  and  N_3 
REMARK    3  A    between atoms: O_15  and  C_5 
REMARK    4  A    between atoms: O_17  and  C_11 
REMARK    5  A    between atoms: O_18  and  C_14 
ROOT
ATOM      1  C   UNL d   1      31.882  18.326 -24.310  0.00  0.00     0.281 C 
ATOM      2  N   UNL d   1      31.995  18.772 -23.607  0.00  0.00    -0.206 NA
ATOM      3  O   UNL d   1      32.181  18.594 -25.011  0.00  0.00    -0.265 OA
ENDROOT
BRANCH   1   4
ATOM      4  C   UNL d   1      31.460  17.608 -24.281  0.00  0.00     0.080 A 
ATOM      5  C   UNL d   1      30.644  17.603 -24.259  0.00  0.00     0.007 A 
ATOM      6  C   UNL d   1      30.204  16.903 -24.229  0.00  0.00     0.000 A 
ATOM      7  C   UNL d   1      29.405  16.908 -24.208  0.00  0.00     0.000 A 
ATOM      8  C   UNL d   1      30.618  16.166 -24.222  0.00  0.00     0.002 A 
ATOM      9  C   UNL d   1      28.971  16.211 -24.179  0.00  0.00     0.000 A 
ATOM     10  C   UNL d   1      29.385  15.474 -24.171  0.00  0.00     0.000 A 
ATOM     11  C   UNL d   1      30.215  15.466 -24.193  0.00  0.00     0.000 A 
ATOM     12  C   UNL d   1      31.454  16.161 -24.244  0.00  0.00     0.024 A 
ATOM     13  C   UNL d   1      31.874  16.871 -24.273  0.00  0.00     0.099 A 
BRANCH  13  14
ATOM     14  O   UNL d   1      32.704  16.862 -24.295  0.00  0.00    -0.328 OA
ATOM     15  C   UNL d   1      33.120  16.135 -24.188  0.00  0.00     0.181 C 
ENDBRANCH  13  14
ENDBRANCH   1   4
BRANCH   2  16
ATOM     16  C   UNL d   1      32.417  19.490 -23.637  0.00  0.00     0.109 A 
ATOM     17  C   UNL d   1      32.485  19.868 -24.348  0.00  0.00     0.045 A 
ATOM     18  C   UNL d   1      32.901  20.569 -24.358  0.00  0.00     0.096 A 
ATOM     19  C   UNL d   1      33.241  20.889 -23.683  0.00  0.00     0.026 A 
ATOM     20  C   UNL d   1      33.159  20.493 -22.983  0.00  0.00     0.028 A 
ATOM     21  C   UNL d   1      32.757  19.801 -22.936  0.00  0.00     0.112 A 
BRANCH  18  22
ATOM     22  O   UNL d   1      32.986  20.981 -25.085  0.00  0.00    -0.328 OA
ATOM     23  C   UNL d   1      33.135  21.766 -25.079  0.00  0.00     0.181 C 
ENDBRANCH  18  22
BRANCH  21  24
ATOM     24  O   UNL d   1      32.685  19.406 -22.192  0.00  0.00    -0.327 OA
ATOM     25  C   UNL d   1      33.182  19.610 -21.568  0.00  0.00     0.181 C 
ENDBRANCH  21  24
ENDBRANCH   2  16
TORSDOF 5
ENDMDL
MODEL 2
REMARK VINA RESULT:      -0.6      2.620      5.862
REMARK  5 active torsions:
REMARK  status: ('A' for Active; 'I' for Inactive)
REMARK    1  A    between atoms: C_2  and  C_1 
REMARK       I    between atoms: N_3  and  C_2 
REMARK    2  A    between atoms: C_6  and  N_3 
REMARK    3  A    between atoms: O_15  and  C_5 
REMARK    4  A    between atoms: O_17  and  C_11 
REMARK    5  A    between atoms: O_18  and  C_14 
ROOT
ATOM      1  C   UNL d   1      32.564  21.138 -21.714  0.00  0.00     0.281 C 
ATOM      2  N   UNL d   1      33.184  21.003 -22.264  0.00  0.00    -0.206 NA
ATOM      3  O   UNL d   1      31.922  20.648 -21.700  0.00  0.00    -0.265 OA
ENDROOT
BRANCH   1   4
ATOM      4  C   UNL d   1      32.614  21.780 -21.184  0.00  0.00     0.080 A 
ATOM      5  C   UNL d   1      32.872  21.669 -20.418  0.00  0.00     0.007 A 
ATOM      6  C   UNL d   1      32.931  22.290 -19.874  0.00  0.00     0.000 A 
ATOM      7  C   UNL d   1      33.184  22.173 -19.125  0.00  0.00     0.000 A 
ATOM      8  C   UNL d   1      32.714  23.067 -20.125  0.00  0.00     0.002 A 
ATOM      9  C   UNL d   1      33.241  22.791 -18.588  0.00  0.00     0.000 A 
ATOM     10  C   UNL d   1      33.025  23.568 -18.838  0.00  0.00     0.000 A 
ATOM     11  C   UNL d   1      32.761  23.694 -19.616  0.00  0.00     0.000 A 
ATOM     12  C   UNL d   1      32.449  23.191 -20.908  0.00  0.00     0.024 A 
ATOM     13  C   UNL d   1      32.398  22.557 -21.435  0.00  0.00     0.099 A 
BRANCH  13  14
ATOM     14  O   UNL d   1      32.134  22.683 -22.212  0.00  0.00    -0.328 OA
ATOM     15  C   UNL d   1      31.986  23.469 -22.484  0.00  0.00     0.181 C 
ENDBRANCH  13  14
ENDBRANCH   1   4
BRANCH   2  16
ATOM     16  C   UNL d   1      33.133  20.362 -22.794  0.00  0.00     0.109 A 
ATOM     17  C   UNL d   1      33.058  19.616 -22.491  0.00  0.00     0.045 A 
ATOM     18  C   UNL d   1      33.010  19.001 -23.024  0.00  0.00     0.096 A 
ATOM     19  C   UNL d   1      33.036  19.120 -23.836  0.00  0.00     0.026 A 
ATOM     20  C   UNL d   1      33.112  19.874 -24.116  0.00  0.00     0.028 A 
ATOM     21  C   UNL d   1      33.162  20.503 -23.621  0.00  0.00     0.112 A 
BRANCH  18  22
ATOM     22  O   UNL d   1      32.931  18.217 -22.734  0.00  0.00    -0.328 OA
ATOM     23  C   UNL d   1      32.660  17.642 -23.219  0.00  0.00     0.181 C 
ENDBRANCH  18  22
BRANCH  21  24
ATOM     24  O   UNL d   1      33.241  21.282 -23.937  0.00  0.00    -0.327 OA
ATOM     25  C   UNL d   1      33.198  21.402 -24.751  0.00  0.00     0.181 C 
ENDBRANCH  21  24
ENDBRANCH   2  16
TORSDOF 5
ENDMDL
MODEL 3
REMARK VINA RESULT:      -0.6      2.510      3.838
REMARK  5 active torsions:
REMARK  status: ('A' for Active; 'I' for Inactive)
REMARK    1  A    between atoms: C_2  and  C_1 
REMARK       I    between atoms: N_3  and  C_2 
REMARK    2  A    between atoms: C_6  and  N_3 
REMARK    3  A    between atoms: O_15  and  C_5 
REMARK    4  A    between atoms: O_17  and  C_11 
REMARK    5  A    between atoms: O_18  and  C_14 
ROOT
ATOM      1  C   UNL d   1      32.776  20.661 -22.224  0.00  0.00     0.281 C 
ATOM      2  N   UNL d   1      33.227  21.316 -22.494  0.00  0.00    -0.206 NA
ATOM      3  O   UNL d   1      32.232  20.760 -21.635  0.00  0.00    -0.265 OA
ENDROOT
BRANCH   1   4
ATOM      4  C   UNL d   1      32.892  19.910 -22.567  0.00  0.00     0.080 A 
ATOM      5  C   UNL d   1      32.785  19.795 -23.367  0.00  0.00     0.007 A 
ATOM      6  C   UNL d   1      32.895  19.060 -23.730  0.00  0.00     0.000 A 
ATOM      7  C   UNL d   1      32.788  18.956 -24.515  0.00  0.00     0.000 A 
ATOM      8  C   UNL d   1      33.126  18.404 -23.250  0.00  0.00     0.002 A 
ATOM      9  C   UNL d   1      32.897  18.225 -24.872  0.00  0.00     0.000 A 
ATOM     10  C   UNL d   1      33.129  17.569 -24.392  0.00  0.00     0.000 A 
ATOM     11  C   UNL d   1      33.241  17.672 -23.576  0.00  0.00     0.000 A 
ATOM     12  C   UNL d   1      33.238  18.512 -22.428  0.00  0.00     0.024 A 
ATOM     13  C   UNL d   1      33.124  19.254 -22.087  0.00  0.00     0.099 A 
BRANCH  13  14
ATOM     14  O   UNL d   1      33.236  19.358 -21.270  0.00  0.00    -0.328 OA
ATOM     15  C   UNL d   1      33.241  18.686 -20.757  0.00  0.00     0.181 C 
ENDBRANCH  13  14
ENDBRANCH   1   4
BRANCH   2  16
ATOM     16  C   UNL d   1      33.111  22.067 -22.151  0.00  0.00     0.109 A 
ATOM     17  C   UNL d   1      33.119  22.128 -21.345  0.00  0.00     0.045 A 
ATOM     18  C   UNL d   1      33.004  22.871 -21.027  0.00  0.00     0.096 A 
ATOM     19  C   UNL d   1      32.883  23.535 -21.494  0.00  0.00     0.026 A 
ATOM     20  C   UNL d   1      32.879  23.449 -22.297  0.00  0.00     0.028 A 
ATOM     21  C   UNL d   1      32.989  22.734 -22.644  0.00  0.00     0.112 A 
BRANCH  18  22
ATOM     22  O   UNL d   1      33.009  22.960 -20.192  0.00  0.00    -0.328 OA
ATOM     23  C   UNL d   1      32.754  23.644 -19.868  0.00  0.00     0.181 C 
ENDBRANCH  18  22
BRANCH  21  24
ATOM     24  O   UNL d   1      32.980  22.670 -23.487  0.00  0.00    -0.327 OA
ATOM     25  C   UNL d   1      33.034  23.348 -23.952  0.00  0.00     0.181 C 
ENDBRANCH  21  24
ENDBRANCH   2  16
TORSDOF 5
ENDMDL
MODEL 4
REMARK VINA RESULT:       0.3      1.880      5.241
REMARK  5 active torsions:
REMARK  status: ('A' for Active; 'I' for Inactive)
REMARK    1  A    between atoms: C_2  and  C_1 
REMARK       I    between atoms: N_3  and  C_2 
REMARK    2  A    between atoms: C_6  and  N_3 
REMARK    3  A    between atoms: O_15  and  C_5 
REMARK    4  A    between atoms: O_17  and  C_11 
REMARK    5  A    between atoms: O_18  and  C_14 
ROOT
ATOM      1  C   UNL d   1      32.687  20.116 -22.272  0.00  0.00     0.281 C 
ATOM      2  N   UNL d   1      33.241  19.891 -22.862  0.00  0.00    -0.206 NA
ATOM      3  O   UNL d   1      32.025  19.670 -22.148  0.00  0.00    -0.265 OA
ENDROOT
BRANCH   1   4
ATOM      4  C   UNL d   1      32.824  20.800 -21.816  0.00  0.00     0.080 A 
ATOM      5  C   UNL d   1      32.776  21.542 -22.151  0.00  0.00     0.007 A 
ATOM      6  C   UNL d   1      32.908  22.235 -21.719  0.00  0.00     0.000 A 
ATOM      7  C   UNL d   1      32.858  22.958 -22.056  0.00  0.00     0.000 A 
ATOM      8  C   UNL d   1      33.100  22.168 -20.899  0.00  0.00     0.002 A 
ATOM      9  C   UNL d   1      32.989  23.644 -21.624  0.00  0.00     0.000 A 
ATOM     10  C   UNL d   1      33.182  23.578 -20.803  0.00  0.00     0.000 A 
ATOM     11  C   UNL d   1      33.234  22.828 -20.450  0.00  0.00     0.000 A 
ATOM     12  C   UNL d   1      33.152  21.411 -20.546  0.00  0.00     0.024 A 
ATOM     13  C   UNL d   1      33.017  20.733 -20.996  0.00  0.00     0.099 A 
BRANCH  13  14
ATOM     14  O   UNL d   1      33.069  19.983 -20.643  0.00  0.00    -0.328 OA
ATOM     15  C   UNL d   1      33.241  19.917 -19.818  0.00  0.00     0.181 C 
ENDBRANCH  13  14
ENDBRANCH   1   4
BRANCH   2  16
ATOM     16  C   UNL d   1      33.104  19.207 -23.318  0.00  0.00     0.109 A 
ATOM     17  C   UNL d   1      33.027  18.498 -22.937  0.00  0.00     0.045 A 
ATOM     18  C   UNL d   1      32.893  17.840 -23.399  0.00  0.00     0.096 A 
ATOM     19  C   UNL d   1      32.837  17.880 -24.217  0.00  0.00     0.026 A 
ATOM     20  C   UNL d   1      32.917  18.600 -24.576  0.00  0.00     0.028 A 
ATOM     21  C   UNL d   1      33.049  19.268 -24.153  0.00  0.00     0.112 A 
BRANCH  18  22
ATOM     22  O   UNL d   1      32.809  17.092 -23.026  0.00  0.00    -0.328 OA
ATOM     23  C   UNL d   1      32.638  16.448 -23.467  0.00  0.00     0.181 C 
ENDBRANCH  18  22
BRANCH  21  24
ATOM     24  O   UNL d   1      33.130  20.009 -24.552  0.00  0.00    -0.327 OA
ATOM     25  C   UNL d   1      32.558  20.248 -25.094  0.00  0.00     0.181 C 
ENDBRANCH  21  24
ENDBRANCH   2  16
TORSDOF 5
ENDMDL
MODEL 5
REMARK VINA RESULT:       0.4      1.227      4.709
REMARK  5 active torsions:
REMARK  status: ('A' for Active; 'I' for Inactive)
REMARK    1  A    between atoms: C_2  and  C_1 
REMARK       I    between atoms: N_3  and  C_2 
REMARK    2  A    between atoms: C_6  and  N_3 
REMARK    3  A    between atoms: O_15  and  C_5 
REMARK    4  A    between atoms: O_17  and  C_11 
REMARK    5  A    between atoms: O_18  and  C_14 
ROOT
ATOM      1  C   UNL d   1      32.695  18.915 -22.983  0.00  0.00     0.281 C 
ATOM      2  N   UNL d   1      32.107  18.658 -23.524  0.00  0.00    -0.206 NA
ATOM      3  O   UNL d   1      33.233  18.387 -22.690  0.00  0.00    -0.265 OA
ENDROOT
BRANCH   1   4
ATOM      4  C   UNL d   1      32.722  19.714 -22.749  0.00  0.00     0.080 A 
ATOM      5  C   UNL d   1      32.486  19.939 -22.001  0.00  0.00     0.007 A 
ATOM      6  C   UNL d   1      32.503  20.726 -21.747  0.00  0.00     0.000 A 
ATOM      7  C   UNL d   1      32.271  20.938 -21.012  0.00  0.00     0.000 A 
ATOM      8  C   UNL d   1      32.775  21.318 -22.285  0.00  0.00     0.002 A 
ATOM      9  C   UNL d   1      32.289  21.720 -20.763  0.00  0.00     0.000 A 
ATOM     10  C   UNL d   1      32.561  22.312 -21.301  0.00  0.00     0.000 A 
ATOM     11  C   UNL d   1      32.804  22.096 -22.065  0.00  0.00     0.000 A 
ATOM     12  C   UNL d   1      33.019  21.098 -23.055  0.00  0.00     0.024 A 
ATOM     13  C   UNL d   1      32.994  20.306 -23.288  0.00  0.00     0.099 A 
BRANCH  13  14
ATOM     14  O   UNL d   1      33.236  20.091 -24.052  0.00  0.00    -0.328 OA
ATOM     15  C   UNL d   1      33.148  20.636 -24.691  0.00  0.00     0.181 C 
ENDBRANCH  13  14
ENDBRANCH   1   4
BRANCH   2  16
ATOM     16  C   UNL d   1      32.081  17.858 -23.758  0.00  0.00     0.109 A 
ATOM     17  C   UNL d   1      32.613  17.344 -23.432  0.00  0.00     0.045 A 
ATOM     18  C   UNL d   1      32.572  16.566 -23.672  0.00  0.00     0.096 A 
ATOM     19  C   UNL d   1      32.021  16.302 -24.220  0.00  0.00     0.026 A 
ATOM     20  C   UNL d   1      31.499  16.835 -24.532  0.00  0.00     0.028 A 
ATOM     21  C   UNL d   1      31.510  17.608 -24.319  0.00  0.00     0.112 A 
BRANCH  18  22
ATOM     22  O   UNL d   1      33.114  16.012 -23.348  0.00  0.00    -0.328 OA
ATOM     23  C   UNL d   1      32.862  15.490 -22.798  0.00  0.00     0.181 C 
ENDBRANCH  18  22
BRANCH  21  24
ATOM     24  O   UNL d   1      30.954  18.146 -24.660  0.00  0.00    -0.327 OA
ATOM     25  C   UNL d   1      30.146  18.005 -24.583  0.00  0.00     0.181 C 
ENDBRANCH  21  24
ENDBRANCH   2  16
TORSDOF 5
ENDMDL
MODEL 6
REMARK VINA RESULT:       1.2      2.689      5.646
REMARK  5 active torsions:
REMARK  status: ('A' for Active; 'I' for Inactive)
REMARK    1  A    between atoms: C_2  and  C_1 
REMARK       I    between atoms: N_3  and  C_2 
REMARK    2  A    between atoms: C_6  and  N_3 
REMARK    3  A    between atoms: O_15  and  C_5 
REMARK    4  A    between atoms: O_17  and  C_11 
REMARK    5  A    between atoms: O_18  and  C_14 
ROOT
ATOM      1  C   UNL d   1      32.562  21.231 -21.848  0.00  0.00     0.281 C 
ATOM      2  N   UNL d   1      33.240  20.784 -22.063  0.00  0.00    -0.206 NA
ATOM      3  O   UNL d   1      31.846  21.065 -22.183  0.00  0.00    -0.265 OA
ENDROOT
BRANCH   1   4
ATOM      4  C   UNL d   1      32.632  21.844 -21.288  0.00  0.00     0.080 A 
ATOM      5  C   UNL d   1      32.732  21.677 -20.495  0.00  0.00     0.007 A 
ATOM      6  C   UNL d   1      32.803  22.269 -19.922  0.00  0.00     0.000 A 
ATOM      7  C   UNL d   1      32.901  22.097 -19.147  0.00  0.00     0.000 A 
ATOM      8  C   UNL d   1      32.772  23.077 -20.169  0.00  0.00     0.002 A 
ATOM      9  C   UNL d   1      32.971  22.686 -18.580  0.00  0.00     0.000 A 
ATOM     10  C   UNL d   1      32.940  23.494 -18.827  0.00  0.00     0.000 A 
ATOM     11  C   UNL d   1      32.839  23.677 -19.631  0.00  0.00     0.000 A 
ATOM     12  C   UNL d   1      32.670  23.258 -20.979  0.00  0.00     0.024 A 
ATOM     13  C   UNL d   1      32.601  22.652 -21.535  0.00  0.00     0.099 A 
BRANCH  13  14
ATOM     14  O   UNL d   1      32.500  22.835 -22.339  0.00  0.00    -0.328 OA
ATOM     15  C   UNL d   1      32.658  23.618 -22.615  0.00  0.00     0.181 C 
ENDBRANCH  13  14
ENDBRANCH   1   4
BRANCH   2  16
ATOM     16  C   UNL d   1      33.170  20.170 -22.622  0.00  0.00     0.109 A 
ATOM     17  C   UNL d   1      33.103  20.367 -23.404  0.00  0.00     0.045 A 
ATOM     18  C   UNL d   1      33.036  19.754 -23.937  0.00  0.00     0.096 A 
ATOM     19  C   UNL d   1      33.035  18.967 -23.704  0.00  0.00     0.026 A 
ATOM     20  C   UNL d   1      33.103  18.794 -22.918  0.00  0.00     0.028 A 
ATOM     21  C   UNL d   1      33.171  19.372 -22.366  0.00  0.00     0.112 A 
BRANCH  18  22
ATOM     22  O   UNL d   1      32.965  19.933 -24.755  0.00  0.00    -0.328 OA
ATOM     23  C   UNL d   1      33.003  20.693 -24.996  0.00  0.00     0.181 C 
ENDBRANCH  18  22
BRANCH  21  24
ATOM     24  O   UNL d   1      33.240  19.166 -21.549  0.00  0.00    -0.327 OA
ATOM     25  C   UNL d   1      33.223  18.375 -21.321  0.00  0.00     0.181 C 
ENDBRANCH  21  24
ENDBRANCH   2  16
TORSDOF 5
ENDMDL
