MODEL 1
REMARK VINA RESULT:      -6.7      0.000      0.000
REMARK  7 active torsions:
REMARK  status: ('A' for Active; 'I' for Inactive)
REMARK       I    between atoms: N_2  and  C_1 
REMARK    1  A    between atoms: C_5  and  N_2 
REMARK    2  A    between atoms: N_4  and  C_9 
REMARK    3  A    between atoms: C_16  and  N_4 
REMARK    4  A    between atoms: O_6  and  C_8 
REMARK    5  A    between atoms: C_10  and  O_6 
REMARK    6  A    between atoms: C_7  and  C_10 
REMARK    7  A    between atoms: C_9  and  C_7 
ROOT
ATOM      1  C   UNL d   1      53.449  30.396  53.556  0.00  0.00     0.085 A 
ATOM      2  C   UNL d   1      52.996  31.892  53.034  0.00  0.00     0.100 A 
ATOM      3  C   UNL d   1      52.849  30.473  52.998  0.00  0.00     0.021 A 
ATOM      4  C   UNL d   1      53.828  31.064  53.859  0.00  0.00     0.021 A 
ATOM      5  C   UNL d   1      53.602  31.814  53.598  0.00  0.00     0.026 A 
ATOM      6  C   UNL d   1      52.622  31.218  52.736  0.00  0.00     0.026 A 
ENDROOT
BRANCH   2   7
ATOM      7  O   UNL d   1      52.769  32.637  52.773  0.00  0.00    -0.302 OA
BRANCH   7   8
ATOM      8  C   UNL d   1      52.171  33.047  53.164  0.00  0.00     0.166 C 
BRANCH   8   9
ATOM      9  C   UNL d   1      51.969  33.805  52.909  0.00  0.00     0.239 C 
ATOM     10  O   UNL d   1      52.511  34.419  53.003  0.00  0.00    -0.283 OA
BRANCH   9  11
ATOM     11  C   UNL d   1      51.239  33.952  52.564  0.00  0.00     0.143 C 
BRANCH  11  12
ATOM     12  N   UNL d   1      50.713  34.483  52.916  0.00  0.00    -0.241 NA
BRANCH  12  13
ATOM     13  C   UNL d   1      49.972  34.599  52.592  0.00  0.00     0.082 C 
ATOM     14  C   UNL d   1      49.398  35.012  53.026  0.00  0.00     0.021 C 
ATOM     15  C   UNL d   1      49.797  34.309  51.841  0.00  0.00     0.021 C 
ENDBRANCH  12  13
ENDBRANCH  11  12
ENDBRANCH   9  11
ENDBRANCH   8   9
ENDBRANCH   7   8
ENDBRANCH   2   7
BRANCH   1  16
ATOM     16  N   UNL d   1      53.676  29.651  53.817  0.00  0.00    -0.208 NA
ATOM     17  C   UNL d   1      53.253  29.276  54.428  0.00  0.00     0.279 C 
ATOM     18  O   UNL d   1      52.613  29.655  54.766  0.00  0.00    -0.265 OA
ATOM     19  C   UNL d   1      53.491  28.528  54.682  0.00  0.00     0.068 C 
ENDBRANCH   1  16
TORSDOF 7
ENDMDL
MODEL 2
REMARK VINA RESULT:      -6.7      1.559      4.791
REMARK  7 active torsions:
REMARK  status: ('A' for Active; 'I' for Inactive)
REMARK       I    between atoms: N_2  and  C_1 
REMARK    1  A    between atoms: C_5  and  N_2 
REMARK    2  A    between atoms: N_4  and  C_9 
REMARK    3  A    between atoms: C_16  and  N_4 
REMARK    4  A    between atoms: O_6  and  C_8 
REMARK    5  A    between atoms: C_10  and  O_6 
REMARK    6  A    between atoms: C_7  and  C_10 
REMARK    7  A    between atoms: C_9  and  C_7 
ROOT
ATOM      1  C   UNL d   1      52.902  34.128  53.401  0.00  0.00     0.085 A 
ATOM      2  C   UNL d   1      52.901  32.546  52.941  0.00  0.00     0.100 A 
ATOM      3  C   UNL d   1      52.200  33.768  53.168  0.00  0.00     0.021 A 
ATOM      4  C   UNL d   1      53.610  33.703  53.407  0.00  0.00     0.021 A 
ATOM      5  C   UNL d   1      53.610  32.910  53.176  0.00  0.00     0.026 A 
ATOM      6  C   UNL d   1      52.198  32.979  52.938  0.00  0.00     0.026 A 
ENDROOT
BRANCH   2   7
ATOM      7  O   UNL d   1      52.899  31.757  52.711  0.00  0.00    -0.302 OA
BRANCH   7   8
ATOM      8  C   UNL d   1      52.762  31.165  53.268  0.00  0.00     0.166 C 
BRANCH   8   9
ATOM      9  C   UNL d   1      52.963  30.386  53.086  0.00  0.00     0.239 C 
ATOM     10  O   UNL d   1      52.772  30.084  52.343  0.00  0.00    -0.283 OA
BRANCH   9  11
ATOM     11  C   UNL d   1      53.350  29.913  53.635  0.00  0.00     0.143 C 
BRANCH  11  12
ATOM     12  N   UNL d   1      52.957  29.274  53.980  0.00  0.00    -0.241 NA
BRANCH  12  13
ATOM     13  C   UNL d   1      53.282  28.897  54.629  0.00  0.00     0.082 C 
ATOM     14  C   UNL d   1      53.778  28.243  54.514  0.00  0.00     0.021 C 
ATOM     15  C   UNL d   1      53.118  29.167  55.390  0.00  0.00     0.021 C 
ENDBRANCH  12  13
ENDBRANCH  11  12
ENDBRANCH   9  11
ENDBRANCH   8   9
ENDBRANCH   7   8
ENDBRANCH   2   7
BRANCH   1  16
ATOM     16  N   UNL d   1      52.904  34.917  53.630  0.00  0.00    -0.208 NA
ATOM     17  C   UNL d   1      53.003  35.118  54.432  0.00  0.00     0.279 C 
ATOM     18  O   UNL d   1      53.097  34.526  54.987  0.00  0.00    -0.265 OA
ATOM     19  C   UNL d   1      53.003  35.913  54.650  0.00  0.00     0.068 C 
ENDBRANCH   1  16
TORSDOF 7
ENDMDL
MODEL 3
REMARK VINA RESULT:      -6.6      2.537      3.282
REMARK  7 active torsions:
REMARK  status: ('A' for Active; 'I' for Inactive)
REMARK       I    between atoms: N_2  and  C_1 
REMARK    1  A    between atoms: C_5  and  N_2 
REMARK    2  A    between atoms: N_4  and  C_9 
REMARK    3  A    between atoms: C_16  and  N_4 
REMARK    4  A    between atoms: O_6  and  C_8 
REMARK    5  A    between atoms: C_10  and  O_6 
REMARK    6  A    between atoms: C_7  and  C_10 
REMARK    7  A    between atoms: C_9  and  C_7 
ROOT
ATOM      1  C   UNL d   1      52.994  33.627  53.567  0.00  0.00     0.085 A 
ATOM      2  C   UNL d   1      51.569  34.051  52.857  0.00  0.00     0.100 A 
ATOM      3  C   UNL d   1      52.892  34.389  53.274  0.00  0.00     0.021 A 
ATOM      4  C   UNL d   1      52.388  33.070  53.508  0.00  0.00     0.021 A 
ATOM      5  C   UNL d   1      51.673  33.282  53.152  0.00  0.00     0.026 A 
ATOM      6  C   UNL d   1      52.181  34.602  52.919  0.00  0.00     0.026 A 
ENDROOT
BRANCH   2   7
ATOM      7  O   UNL d   1      50.859  34.264  52.502  0.00  0.00    -0.302 OA
BRANCH   7   8
ATOM      8  C   UNL d   1      50.229  34.525  52.965  0.00  0.00     0.166 C 
BRANCH   8   9
ATOM      9  C   UNL d   1      49.535  34.777  52.595  0.00  0.00     0.239 C 
ATOM     10  O   UNL d   1      49.353  34.492  51.844  0.00  0.00    -0.283 OA
BRANCH   9  11
ATOM     11  C   UNL d   1      49.030  35.306  52.968  0.00  0.00     0.143 C 
BRANCH  11  12
ATOM     12  N   UNL d   1      48.335  35.549  52.593  0.00  0.00    -0.241 NA
BRANCH  12  13
ATOM     13  C   UNL d   1      47.860  36.116  52.942  0.00  0.00     0.082 C 
ATOM     14  C   UNL d   1      47.270  36.486  52.491  0.00  0.00     0.021 C 
ATOM     15  C   UNL d   1      47.967  36.316  53.734  0.00  0.00     0.021 C 
ENDBRANCH  12  13
ENDBRANCH  11  12
ENDBRANCH   9  11
ENDBRANCH   8   9
ENDBRANCH   7   8
ENDBRANCH   2   7
BRANCH   1  16
ATOM     16  N   UNL d   1      53.704  33.414  53.921  0.00  0.00    -0.208 NA
ATOM     17  C   UNL d   1      53.858  33.630  54.709  0.00  0.00     0.279 C 
ATOM     18  O   UNL d   1      53.299  34.055  55.127  0.00  0.00    -0.265 OA
ATOM     19  C   UNL d   1      54.575  33.410  55.055  0.00  0.00     0.068 C 
ENDBRANCH   1  16
TORSDOF 7
ENDMDL
MODEL 4
REMARK VINA RESULT:      -6.2      1.051      4.908
REMARK  7 active torsions:
REMARK  status: ('A' for Active; 'I' for Inactive)
REMARK       I    between atoms: N_2  and  C_1 
REMARK    1  A    between atoms: C_5  and  N_2 
REMARK    2  A    between atoms: N_4  and  C_9 
REMARK    3  A    between atoms: C_16  and  N_4 
REMARK    4  A    between atoms: O_6  and  C_8 
REMARK    5  A    between atoms: C_10  and  O_6 
REMARK    6  A    between atoms: C_7  and  C_10 
REMARK    7  A    between atoms: C_9  and  C_7 
ROOT
ATOM      1  C   UNL d   1      50.704  34.304  53.056  0.00  0.00     0.085 A 
ATOM      2  C   UNL d   1      52.048  33.354  52.987  0.00  0.00     0.100 A 
ATOM      3  C   UNL d   1      51.430  34.633  52.852  0.00  0.00     0.021 A 
ATOM      4  C   UNL d   1      50.641  33.499  53.228  0.00  0.00     0.021 A 
ATOM      5  C   UNL d   1      51.315  33.022  53.193  0.00  0.00     0.026 A 
ATOM      6  C   UNL d   1      52.101  34.161  52.817  0.00  0.00     0.026 A 
ENDROOT
BRANCH   2   7
ATOM      7  O   UNL d   1      52.719  32.882  52.953  0.00  0.00    -0.302 OA
BRANCH   7   8
ATOM      8  C   UNL d   1      52.903  32.379  53.579  0.00  0.00     0.166 C 
BRANCH   8   9
ATOM      9  C   UNL d   1      53.509  31.826  53.487  0.00  0.00     0.239 C 
ATOM     10  O   UNL d   1      54.293  32.077  53.530  0.00  0.00    -0.283 OA
BRANCH   9  11
ATOM     11  C   UNL d   1      53.338  31.034  53.355  0.00  0.00     0.143 C 
BRANCH  11  12
ATOM     12  N   UNL d   1      53.595  30.460  53.890  0.00  0.00    -0.241 NA
BRANCH  12  13
ATOM     13  C   UNL d   1      53.292  29.701  53.851  0.00  0.00     0.082 C 
ATOM     14  C   UNL d   1      53.388  29.191  54.497  0.00  0.00     0.021 C 
ATOM     15  C   UNL d   1      52.896  29.447  53.174  0.00  0.00     0.021 C 
ENDBRANCH  12  13
ENDBRANCH  11  12
ENDBRANCH   9  11
ENDBRANCH   8   9
ENDBRANCH   7   8
ENDBRANCH   2   7
BRANCH   1  16
ATOM     16  N   UNL d   1      50.032  34.776  53.091  0.00  0.00    -0.208 NA
ATOM     17  C   UNL d   1      49.511  34.809  52.443  0.00  0.00     0.279 C 
ATOM     18  O   UNL d   1      49.672  34.368  51.774  0.00  0.00    -0.265 OA
ATOM     19  C   UNL d   1      48.840  35.287  52.489  0.00  0.00     0.068 C 
ENDBRANCH   1  16
TORSDOF 7
ENDMDL
MODEL 5
REMARK VINA RESULT:      -6.0      1.962      4.926
REMARK  7 active torsions:
REMARK  status: ('A' for Active; 'I' for Inactive)
REMARK       I    between atoms: N_2  and  C_1 
REMARK    1  A    between atoms: C_5  and  N_2 
REMARK    2  A    between atoms: N_4  and  C_9 
REMARK    3  A    between atoms: C_16  and  N_4 
REMARK    4  A    between atoms: O_6  and  C_8 
REMARK    5  A    between atoms: C_10  and  O_6 
REMARK    6  A    between atoms: C_7  and  C_10 
REMARK    7  A    between atoms: C_9  and  C_7 
ROOT
ATOM      1  C   UNL d   1      50.350  34.326  52.679  0.00  0.00     0.085 A 
ATOM      2  C   UNL d   1      51.733  33.434  52.762  0.00  0.00     0.100 A 
ATOM      3  C   UNL d   1      50.995  34.523  52.208  0.00  0.00     0.021 A 
ATOM      4  C   UNL d   1      50.388  33.682  53.196  0.00  0.00     0.021 A 
ATOM      5  C   UNL d   1      51.081  33.235  53.237  0.00  0.00     0.026 A 
ATOM      6  C   UNL d   1      51.685  34.080  52.248  0.00  0.00     0.026 A 
ENDROOT
BRANCH   2   7
ATOM      7  O   UNL d   1      52.423  32.990  52.801  0.00  0.00    -0.302 OA
BRANCH   7   8
ATOM      8  C   UNL d   1      52.787  32.857  53.528  0.00  0.00     0.166 C 
BRANCH   8   9
ATOM      9  C   UNL d   1      53.560  32.569  53.545  0.00  0.00     0.239 C 
ATOM     10  O   UNL d   1      53.722  31.830  53.220  0.00  0.00    -0.283 OA
BRANCH   9  11
ATOM     11  C   UNL d   1      54.165  33.012  53.881  0.00  0.00     0.143 C 
BRANCH  11  12
ATOM     12  N   UNL d   1      54.427  32.842  54.646  0.00  0.00    -0.241 NA
BRANCH  12  13
ATOM     13  C   UNL d   1      54.871  33.392  55.057  0.00  0.00     0.082 C 
ATOM     14  C   UNL d   1      55.479  33.798  54.665  0.00  0.00     0.021 C 
ATOM     15  C   UNL d   1      54.715  33.540  55.852  0.00  0.00     0.021 C 
ENDBRANCH  12  13
ENDBRANCH  11  12
ENDBRANCH   9  11
ENDBRANCH   8   9
ENDBRANCH   7   8
ENDBRANCH   2   7
BRANCH   1  16
ATOM     16  N   UNL d   1      49.659  34.770  52.640  0.00  0.00    -0.208 NA
ATOM     17  C   UNL d   1      49.174  34.726  51.966  0.00  0.00     0.279 C 
ATOM     18  O   UNL d   1      49.388  34.239  51.345  0.00  0.00    -0.265 OA
ATOM     19  C   UNL d   1      48.483  35.176  51.937  0.00  0.00     0.068 C 
ENDBRANCH   1  16
TORSDOF 7
ENDMDL
MODEL 6
REMARK VINA RESULT:      -4.5      9.337      9.975
REMARK  7 active torsions:
REMARK  status: ('A' for Active; 'I' for Inactive)
REMARK       I    between atoms: N_2  and  C_1 
REMARK    1  A    between atoms: C_5  and  N_2 
REMARK    2  A    between atoms: N_4  and  C_9 
REMARK    3  A    between atoms: C_16  and  N_4 
REMARK    4  A    between atoms: O_6  and  C_8 
REMARK    5  A    between atoms: C_10  and  O_6 
REMARK    6  A    between atoms: C_7  and  C_10 
REMARK    7  A    between atoms: C_9  and  C_7 
ROOT
ATOM      1  C   UNL d   1      44.513  27.619  56.899  0.00  0.00     0.085 A 
ATOM      2  C   UNL d   1      44.832  29.045  57.659  0.00  0.00     0.100 A 
ATOM      3  C   UNL d   1      44.419  27.680  57.714  0.00  0.00     0.021 A 
ATOM      4  C   UNL d   1      44.766  28.267  56.455  0.00  0.00     0.021 A 
ATOM      5  C   UNL d   1      44.926  28.983  56.836  0.00  0.00     0.026 A 
ATOM      6  C   UNL d   1      44.578  28.391  58.095  0.00  0.00     0.026 A 
ENDROOT
BRANCH   2   7
ATOM      7  O   UNL d   1      44.991  29.755  58.040  0.00  0.00    -0.302 OA
BRANCH   7   8
ATOM      8  C   UNL d   1      44.859  29.829  58.849  0.00  0.00     0.166 C 
BRANCH   8   9
ATOM      9  C   UNL d   1      44.951  30.567  59.207  0.00  0.00     0.239 C 
ATOM     10  O   UNL d   1      45.387  31.150  58.822  0.00  0.00    -0.283 OA
BRANCH   9  11
ATOM     11  C   UNL d   1      44.614  30.723  59.940  0.00  0.00     0.143 C 
BRANCH  11  12
ATOM     12  N   UNL d   1      45.089  30.766  60.614  0.00  0.00    -0.241 NA
BRANCH  12  13
ATOM     13  C   UNL d   1      44.744  30.803  61.355  0.00  0.00     0.082 C 
ATOM     14  C   UNL d   1      44.315  31.479  61.571  0.00  0.00     0.021 C 
ATOM     15  C   UNL d   1      44.824  30.174  61.880  0.00  0.00     0.021 C 
ENDBRANCH  12  13
ENDBRANCH  11  12
ENDBRANCH   9  11
ENDBRANCH   8   9
ENDBRANCH   7   8
ENDBRANCH   2   7
BRANCH   1  16
ATOM     16  N   UNL d   1      44.353  26.908  56.518  0.00  0.00    -0.208 NA
ATOM     17  C   UNL d   1      44.963  26.355  56.396  0.00  0.00     0.279 C 
ATOM     18  O   UNL d   1      45.719  26.524  56.657  0.00  0.00    -0.265 OA
ATOM     19  C   UNL d   1      44.791  25.644  56.013  0.00  0.00     0.068 C 
ENDBRANCH   1  16
TORSDOF 7
ENDMDL
MODEL 7
REMARK VINA RESULT:      -4.3      9.366     10.611
REMARK  7 active torsions:
REMARK  status: ('A' for Active; 'I' for Inactive)
REMARK       I    between atoms: N_2  and  C_1 
REMARK    1  A    between atoms: C_5  and  N_2 
REMARK    2  A    between atoms: N_4  and  C_9 
REMARK    3  A    between atoms: C_16  and  N_4 
REMARK    4  A    between atoms: O_6  and  C_8 
REMARK    5  A    between atoms: C_10  and  O_6 
REMARK    6  A    between atoms: C_7  and  C_10 
REMARK    7  A    between atoms: C_9  and  C_7 
ROOT
ATOM      1  C   UNL d   1      44.578  30.534  59.865  0.00  0.00     0.085 A 
ATOM      2  C   UNL d   1      44.969  29.596  58.568  0.00  0.00     0.100 A 
ATOM      3  C   UNL d   1      44.314  29.756  59.826  0.00  0.00     0.021 A 
ATOM      4  C   UNL d   1      45.039  30.852  59.258  0.00  0.00     0.021 A 
ATOM      5  C   UNL d   1      45.235  30.382  58.607  0.00  0.00     0.026 A 
ATOM      6  C   UNL d   1      44.508  29.286  59.180  0.00  0.00     0.026 A 
ENDROOT
BRANCH   2   7
ATOM      7  O   UNL d   1      45.163  29.127  57.922  0.00  0.00    -0.302 OA
BRANCH   7   8
ATOM      8  C   UNL d   1      45.081  28.308  57.967  0.00  0.00     0.166 C 
BRANCH   8   9
ATOM      9  C   UNL d   1      45.162  27.857  57.281  0.00  0.00     0.239 C 
ATOM     10  O   UNL d   1      45.635  28.139  56.668  0.00  0.00    -0.283 OA
BRANCH   9  11
ATOM     11  C   UNL d   1      44.778  27.135  57.205  0.00  0.00     0.143 C 
BRANCH  11  12
ATOM     12  N   UNL d   1      45.128  26.523  56.776  0.00  0.00    -0.241 NA
BRANCH  12  13
ATOM     13  C   UNL d   1      44.732  25.813  56.681  0.00  0.00     0.082 C 
ATOM     14  C   UNL d   1      44.548  25.550  55.916  0.00  0.00     0.021 C 
ATOM     15  C   UNL d   1      44.520  25.365  57.339  0.00  0.00     0.021 C 
ENDBRANCH  12  13
ENDBRANCH  11  12
ENDBRANCH   9  11
ENDBRANCH   8   9
ENDBRANCH   7   8
ENDBRANCH   2   7
BRANCH   1  16
ATOM     16  N   UNL d   1      44.384  31.004  60.511  0.00  0.00    -0.208 NA
ATOM     17  C   UNL d   1      44.734  30.858  61.252  0.00  0.00     0.279 C 
ATOM     18  O   UNL d   1      45.270  30.247  61.332  0.00  0.00    -0.265 OA
ATOM     19  C   UNL d   1      44.531  31.336  61.893  0.00  0.00     0.068 C 
ENDBRANCH   1  16
TORSDOF 7
ENDMDL
MODEL 8
REMARK VINA RESULT:      -4.0      9.601     10.909
REMARK  7 active torsions:
REMARK  status: ('A' for Active; 'I' for Inactive)
REMARK       I    between atoms: N_2  and  C_1 
REMARK    1  A    between atoms: C_5  and  N_2 
REMARK    2  A    between atoms: N_4  and  C_9 
REMARK    3  A    between atoms: C_16  and  N_4 
REMARK    4  A    between atoms: O_6  and  C_8 
REMARK    5  A    between atoms: C_10  and  O_6 
REMARK    6  A    between atoms: C_7  and  C_10 
REMARK    7  A    between atoms: C_9  and  C_7 
ROOT
ATOM      1  C   UNL d   1      44.724  28.585  58.361  0.00  0.00     0.085 A 
ATOM      2  C   UNL d   1      44.919  27.450  57.184  0.00  0.00     0.100 A 
ATOM      3  C   UNL d   1      45.185  27.919  58.505  0.00  0.00     0.021 A 
ATOM      4  C   UNL d   1      44.357  28.692  57.629  0.00  0.00     0.021 A 
ATOM      5  C   UNL d   1      44.454  28.123  57.039  0.00  0.00     0.026 A 
ATOM      6  C   UNL d   1      45.283  27.351  57.919  0.00  0.00     0.026 A 
ENDROOT
BRANCH   2   7
ATOM      7  O   UNL d   1      45.016  26.882  56.598  0.00  0.00    -0.302 OA
BRANCH   7   8
ATOM      8  C   UNL d   1      44.656  26.145  56.672  0.00  0.00     0.166 C 
BRANCH   8   9
ATOM      9  C   UNL d   1      44.644  25.635  56.024  0.00  0.00     0.239 C 
ATOM     10  O   UNL d   1      44.314  25.893  55.315  0.00  0.00    -0.283 OA
BRANCH   9  11
ATOM     11  C   UNL d   1      44.957  24.877  56.080  0.00  0.00     0.143 C 
BRANCH  11  12
ATOM     12  N   UNL d   1      44.462  24.219  56.018  0.00  0.00    -0.241 NA
BRANCH  12  13
ATOM     13  C   UNL d   1      44.768  23.467  56.119  0.00  0.00     0.082 C 
ATOM     14  C   UNL d   1      44.512  23.007  56.759  0.00  0.00     0.021 C 
ATOM     15  C   UNL d   1      45.325  23.172  55.588  0.00  0.00     0.021 C 
ENDBRANCH  12  13
ENDBRANCH  11  12
ENDBRANCH   9  11
ENDBRANCH   8   9
ENDBRANCH   7   8
ENDBRANCH   2   7
BRANCH   1  16
ATOM     16  N   UNL d   1      44.627  29.153  58.947  0.00  0.00    -0.208 NA
ATOM     17  C   UNL d   1      45.138  29.808  58.983  0.00  0.00     0.279 C 
ATOM     18  O   UNL d   1      45.737  29.883  58.432  0.00  0.00    -0.265 OA
ATOM     19  C   UNL d   1      45.030  30.372  59.576  0.00  0.00     0.068 C 
ENDBRANCH   1  16
TORSDOF 7
ENDMDL
MODEL 9
REMARK VINA RESULT:      -3.7      9.921     11.109
REMARK  7 active torsions:
REMARK  status: ('A' for Active; 'I' for Inactive)
REMARK       I    between atoms: N_2  and  C_1 
REMARK    1  A    between atoms: C_5  and  N_2 
REMARK    2  A    between atoms: N_4  and  C_9 
REMARK    3  A    between atoms: C_16  and  N_4 
REMARK    4  A    between atoms: O_6  and  C_8 
REMARK    5  A    between atoms: C_10  and  O_6 
REMARK    6  A    between atoms: C_7  and  C_10 
REMARK    7  A    between atoms: C_9  and  C_7 
ROOT
ATOM      1  C   UNL d   1      44.815  23.096  52.893  0.00  0.00     0.085 A 
ATOM      2  C   UNL d   1      44.587  23.745  54.390  0.00  0.00     0.100 A 
ATOM      3  C   UNL d   1      45.085  22.697  53.560  0.00  0.00     0.021 A 
ATOM      4  C   UNL d   1      44.428  23.822  52.967  0.00  0.00     0.021 A 
ATOM      5  C   UNL d   1      44.314  24.148  53.717  0.00  0.00     0.026 A 
ATOM      6  C   UNL d   1      44.973  23.019  54.307  0.00  0.00     0.026 A 
ENDROOT
BRANCH   2   7
ATOM      7  O   UNL d   1      44.475  24.067  55.138  0.00  0.00    -0.302 OA
BRANCH   7   8
ATOM      8  C   UNL d   1      44.898  24.736  55.367  0.00  0.00     0.166 C 
BRANCH   8   9
ATOM      9  C   UNL d   1      44.773  25.054  56.118  0.00  0.00     0.239 C 
ATOM     10  O   UNL d   1      44.638  24.546  56.753  0.00  0.00    -0.283 OA
BRANCH   9  11
ATOM     11  C   UNL d   1      44.783  25.866  56.237  0.00  0.00     0.143 C 
BRANCH  11  12
ATOM     12  N   UNL d   1      45.152  26.184  56.903  0.00  0.00    -0.241 NA
BRANCH  12  13
ATOM     13  C   UNL d   1      45.161  26.993  57.019  0.00  0.00     0.082 C 
ATOM     14  C   UNL d   1      45.581  27.308  57.661  0.00  0.00     0.021 C 
ATOM     15  C   UNL d   1      44.756  27.490  56.502  0.00  0.00     0.021 C 
ENDBRANCH  12  13
ENDBRANCH  11  12
ENDBRANCH   9  11
ENDBRANCH   8   9
ENDBRANCH   7   8
ENDBRANCH   2   7
BRANCH   1  16
ATOM     16  N   UNL d   1      44.927  22.774  52.146  0.00  0.00    -0.208 NA
ATOM     17  C   UNL d   1      45.635  22.915  51.733  0.00  0.00     0.279 C 
ATOM     18  O   UNL d   1      46.217  23.376  52.076  0.00  0.00    -0.265 OA
ATOM     19  C   UNL d   1      45.737  22.586  50.983  0.00  0.00     0.068 C 
ENDBRANCH   1  16
TORSDOF 7
ENDMDL
