MODEL 1
REMARK VINA RESULT:      13.6      0.000      0.000
REMARK  0 active torsions:
REMARK  status: ('A' for Active; 'I' for Inactive)
ROOT
ATOM      1  N   UNL d   1     -57.686 -98.759 -44.645  0.00  0.00    -0.187 N 
ATOM      2  C   UNL d   1     -57.778 -98.761 -43.825  0.00  0.00     0.200 A 
ATOM      3  N   UNL d   1     -58.530 -98.762 -43.487  0.00  0.00    -0.181 NA
ATOM      4  N   UNL d   1     -58.365 -98.757 -45.136  0.00  0.00    -0.157 NA
ATOM      5  C   UNL d   1     -56.878 -98.758 -44.812  0.00  0.00     0.194 A 
ATOM      6  C   UNL d   1     -59.200 -98.760 -43.968  0.00  0.00     0.300 A 
ATOM      7  C   UNL d   1     -59.116 -98.758 -44.798  0.00  0.00     0.159 A 
ATOM      8  S   UNL d   1     -57.025 -98.762 -43.487  0.00  0.00    -0.045 SA
ATOM      9  C   UNL d   1     -56.465 -98.761 -44.103  0.00  0.00     0.079 A 
ATOM     10  O   UNL d   1     -59.952 -98.761 -43.629  0.00  0.00    -0.263 OA
ATOM     11  N   UNL d   1     -56.544 -98.756 -45.565  0.00  0.00    -0.126 N 
ATOM     12  C   UNL d   1     -59.786 -98.756 -45.279  0.00  0.00     0.028 C 
ENDROOT
TORSDOF 0
ENDMDL
MODEL 2
REMARK VINA RESULT:      15.2      1.531      2.718
REMARK  0 active torsions:
REMARK  status: ('A' for Active; 'I' for Inactive)
ROOT
ATOM      1  N   UNL d   1     -58.489 -98.755 -43.835  0.00  0.00    -0.187 N 
ATOM      2  C   UNL d   1     -58.680 -98.755 -44.637  0.00  0.00     0.200 A 
ATOM      3  N   UNL d   1     -58.087 -98.755 -45.210  0.00  0.00    -0.181 NA
ATOM      4  N   UNL d   1     -57.685 -98.755 -43.601  0.00  0.00    -0.157 NA
ATOM      5  C   UNL d   1     -59.194 -98.755 -43.404  0.00  0.00     0.194 A 
ATOM      6  C   UNL d   1     -57.294 -98.755 -44.983  0.00  0.00     0.300 A 
ATOM      7  C   UNL d   1     -57.092 -98.755 -44.174  0.00  0.00     0.159 A 
ATOM      8  S   UNL d   1     -59.503 -98.755 -44.701  0.00  0.00    -0.045 SA
ATOM      9  C   UNL d   1     -59.822 -98.755 -43.932  0.00  0.00     0.079 A 
ATOM     10  O   UNL d   1     -56.700 -98.755 -45.556  0.00  0.00    -0.263 OA
ATOM     11  N   UNL d   1     -59.254 -98.755 -42.582  0.00  0.00    -0.126 N 
ATOM     12  C   UNL d   1     -56.299 -98.755 -43.947  0.00  0.00     0.028 C 
ENDROOT
TORSDOF 0
ENDMDL
