MODEL 1
REMARK VINA RESULT:       6.1      0.000      0.000
REMARK  1 active torsions:
REMARK  status: ('A' for Active; 'I' for Inactive)
REMARK    1  A    between atoms: O_8  and  C_4 
ROOT
ATOM      1  C   UNL d   1     -51.414  23.991  33.313  0.00  0.00     0.021 A 
ATOM      2  C   UNL d   1     -51.824  24.706  33.313  0.00  0.00     0.024 A 
ATOM      3  C   UNL d   1     -50.588  23.976  33.311  0.00  0.00     0.103 A 
ATOM      4  C   UNL d   1     -51.412  25.415  33.312  0.00  0.00     0.094 A 
ATOM      5  C   UNL d   1     -50.170  24.688  33.310  0.00  0.00     0.023 A 
ATOM      6  C   UNL d   1     -50.580  25.404  33.310  0.00  0.00     0.026 A 
ATOM      7  N   UNL d   1     -50.187  23.250  33.311  0.00  0.00    -0.148 N 
ATOM      8  C   UNL d   1     -51.828  23.280  33.314  0.00  0.00     0.002 A 
ATOM      9  C   UNL d   1     -52.646  24.708  33.314  0.00  0.00     0.002 A 
ATOM     10  C   UNL d   1     -52.655  23.280  33.316  0.00  0.00     0.000 A 
ATOM     11  C   UNL d   1     -53.065  23.996  33.316  0.00  0.00     0.000 A 
ENDROOT
BRANCH   4  12
ATOM     12  O   UNL d   1     -51.825  26.134  33.312  0.00  0.00    -0.328 OA
ATOM     13  C   UNL d   1     -51.414  26.843  33.306  0.00  0.00     0.181 C 
ENDBRANCH   4  12
TORSDOF 1
ENDMDL
MODEL 2
REMARK VINA RESULT:       6.1      0.917      2.158
REMARK  1 active torsions:
REMARK  status: ('A' for Active; 'I' for Inactive)
REMARK    1  A    between atoms: O_8  and  C_4 
ROOT
ATOM      1  C   UNL d   1     -50.987  25.037  33.308  0.00  0.00     0.021 A 
ATOM      2  C   UNL d   1     -51.803  24.911  33.310  0.00  0.00     0.024 A 
ATOM      3  C   UNL d   1     -50.461  24.400  33.308  0.00  0.00     0.103 A 
ATOM      4  C   UNL d   1     -52.100  24.149  33.311  0.00  0.00     0.094 A 
ATOM      5  C   UNL d   1     -50.758  23.629  33.309  0.00  0.00     0.023 A 
ATOM      6  C   UNL d   1     -51.573  23.504  33.310  0.00  0.00     0.026 A 
ATOM      7  N   UNL d   1     -49.644  24.539  33.307  0.00  0.00    -0.148 N 
ATOM      8  C   UNL d   1     -50.689  25.804  33.308  0.00  0.00     0.002 A 
ATOM      9  C   UNL d   1     -52.316  25.554  33.310  0.00  0.00     0.002 A 
ATOM     10  C   UNL d   1     -51.204  26.450  33.308  0.00  0.00     0.000 A 
ATOM     11  C   UNL d   1     -52.020  26.325  33.309  0.00  0.00     0.000 A 
ENDROOT
BRANCH   4  12
ATOM     12  O   UNL d   1     -52.920  24.023  33.312  0.00  0.00    -0.328 OA
ATOM     13  C   UNL d   1     -53.218  23.260  33.341  0.00  0.00     0.181 C 
ENDBRANCH   4  12
TORSDOF 1
ENDMDL
MODEL 3
REMARK VINA RESULT:       9.0      1.337      2.519
REMARK  1 active torsions:
REMARK  status: ('A' for Active; 'I' for Inactive)
REMARK    1  A    between atoms: O_8  and  C_4 
ROOT
ATOM      1  C   UNL d   1     -51.990  24.956  33.308  0.00  0.00     0.021 A 
ATOM      2  C   UNL d   1     -51.171  24.855  33.307  0.00  0.00     0.024 A 
ATOM      3  C   UNL d   1     -52.497  24.304  33.308  0.00  0.00     0.103 A 
ATOM      4  C   UNL d   1     -50.851  24.101  33.308  0.00  0.00     0.094 A 
ATOM      5  C   UNL d   1     -52.178  23.542  33.309  0.00  0.00     0.023 A 
ATOM      6  C   UNL d   1     -51.359  23.441  33.308  0.00  0.00     0.026 A 
ATOM      7  N   UNL d   1     -53.318  24.419  33.309  0.00  0.00    -0.148 N 
ATOM      8  C   UNL d   1     -52.311  25.714  33.307  0.00  0.00     0.002 A 
ATOM      9  C   UNL d   1     -50.677  25.512  33.306  0.00  0.00     0.002 A 
ATOM     10  C   UNL d   1     -51.815  26.375  33.306  0.00  0.00     0.000 A 
ATOM     11  C   UNL d   1     -50.996  26.274  33.306  0.00  0.00     0.000 A 
ENDROOT
BRANCH   4  12
ATOM     12  O   UNL d   1     -50.029  23.999  33.307  0.00  0.00    -0.328 OA
ATOM     13  C   UNL d   1     -49.706  23.256  33.431  0.00  0.00     0.181 C 
ENDBRANCH   4  12
TORSDOF 1
ENDMDL
