MODEL 1
REMARK VINA RESULT:      22.9      0.000      0.000
REMARK  3 active torsions:
REMARK  status: ('A' for Active; 'I' for Inactive)
REMARK    1  A    between atoms: N_5  and  S_1 
REMARK    2  A    between atoms: C_6  and  S_1 
REMARK    3  A    between atoms: C_2  and  C_9 
ROOT
ATOM      1  C   UNL d   1      45.290 -14.893  44.341  0.00  0.00     0.104 A 
ATOM      2  C   UNL d   1      45.282 -16.293  44.064  0.00  0.00     0.025 A 
ATOM      3  C   UNL d   1      45.611 -15.550  43.953  0.00  0.00     0.015 A 
ATOM      4  C   UNL d   1      44.634 -14.988  44.840  0.00  0.00     0.013 A 
ATOM      5  C   UNL d   1      44.626 -16.388  44.564  0.00  0.00     0.002 A 
ATOM      6  C   UNL d   1      44.301 -15.731  44.953  0.00  0.00     0.001 A 
ENDROOT
BRANCH   2   7
ATOM      7  C   UNL d   1      45.604 -16.950  43.677  0.00  0.00     0.111 A 
ATOM      8  N   UNL d   1      45.790 -16.988  42.883  0.00  0.00    -0.239 NA
ATOM      9  C   UNL d   1      46.094 -17.738  42.733  0.00  0.00     0.088 A 
ATOM     10  C   UNL d   1      46.371 -18.094  42.051  0.00  0.00     0.020 A 
ATOM     11  C   UNL d   1      46.094 -18.161  43.442  0.00  0.00     0.049 A 
ATOM     12  C   UNL d   1      46.647 -18.865  42.066  0.00  0.00     0.002 A 
ATOM     13  C   UNL d   1      46.646 -19.288  42.775  0.00  0.00     0.001 A 
ATOM     14  C   UNL d   1      46.366 -18.928  43.465  0.00  0.00     0.008 A 
ATOM     15  S   UNL d   1      45.789 -17.670  44.028  0.00  0.00    -0.066 SA
ENDBRANCH   2   7
BRANCH   1  16
ATOM     16  S   UNL d   1      45.619 -14.146  44.231  0.00  0.00     0.271 S 
ATOM     17  O   UNL d   1      44.920 -13.763  44.244  0.00  0.00    -0.200 OA
ATOM     18  O   UNL d   1      46.440 -14.633  44.219  0.00  0.00    -0.200 OA
BRANCH  16  19
ATOM     19  N   UNL d   1      45.821 -13.358  44.127  0.00  0.00    -0.229 N 
ATOM     20  C   UNL d   1      46.266 -12.888  44.647  0.00  0.00     0.092 A 
ATOM     21  C   UNL d   1      46.332 -12.132  44.318  0.00  0.00     0.021 A 
ATOM     22  C   UNL d   1      45.934 -12.125  43.601  0.00  0.00     0.021 A 
ATOM     23  C   UNL d   1      45.619 -12.879  43.482  0.00  0.00     0.092 A 
ENDBRANCH  16  19
ENDBRANCH   1  16
TORSDOF 3
ENDMDL
