MODEL 1
REMARK VINA RESULT:     -10.6      0.000      0.000
REMARK  8 active torsions:
REMARK  status: ('A' for Active; 'I' for Inactive)
REMARK    1  A    between atoms: N_5  and  S_1 
REMARK    2  A    between atoms: C_8  and  S_1 
REMARK    3  A    between atoms: C_2  and  N_10 
REMARK    4  A    between atoms: C_9  and  N_5 
REMARK    5  A    between atoms: C_13  and  C_9 
REMARK    6  A    between atoms: N_10  and  O_14 
REMARK    7  A    between atoms: C_17  and  C_13 
REMARK    8  A    between atoms: O_14  and  C_17 
ROOT
ATOM      1  C   UNL d   1      51.205  34.053  52.515  0.00  0.00     0.193 C 
ENDROOT
BRANCH   1   2
ATOM      2  O   UNL d   1      51.691  33.618  53.021  0.00  0.00    -0.206 OA
BRANCH   2   3
ATOM      3  N   UNL d   1      52.467  33.427  52.789  0.00  0.00    -0.126 NA
BRANCH   3   4
ATOM      4  C   UNL d   1      52.943  32.965  53.281  0.00  0.00     0.108 A 
ATOM      5  C   UNL d   1      53.431  33.243  53.894  0.00  0.00     0.020 A 
ATOM      6  C   UNL d   1      53.801  32.590  54.232  0.00  0.00     0.002 A 
ATOM      7  C   UNL d   1      53.573  33.999  54.171  0.00  0.00     0.002 A 
ATOM      8  C   UNL d   1      54.326  32.702  54.865  0.00  0.00     0.000 A 
ATOM      9  C   UNL d   1      53.554  31.914  53.844  0.00  0.00     0.002 A 
ATOM     10  C   UNL d   1      54.471  33.461  55.146  0.00  0.00     0.000 A 
ATOM     11  C   UNL d   1      54.095  34.116  54.800  0.00  0.00     0.000 A 
ATOM     12  C   UNL d   1      53.022  32.140  53.252  0.00  0.00     0.020 A 
ATOM     13  C   UNL d   1      53.737  31.120  53.943  0.00  0.00     0.000 A 
ATOM     14  C   UNL d   1      52.675  31.576  52.763  0.00  0.00     0.002 A 
ATOM     15  C   UNL d   1      52.863  30.774  52.867  0.00  0.00     0.000 A 
ATOM     16  C   UNL d   1      53.395  30.551  53.459  0.00  0.00     0.000 A 
ENDBRANCH   3   4
ENDBRANCH   2   3
ENDBRANCH   1   2
BRANCH   1  17
ATOM     17  C   UNL d   1      50.426  34.208  52.726  0.00  0.00     0.240 C 
ATOM     18  O   UNL d   1      50.108  33.870  53.409  0.00  0.00    -0.283 OA
BRANCH  17  19
ATOM     19  C   UNL d   1      49.677  34.554  52.634  0.00  0.00     0.136 C 
BRANCH  19  20
ATOM     20  N   UNL d   1      49.366  34.644  51.871  0.00  0.00    -0.225 N 
ATOM     21  C   UNL d   1      49.651  34.427  51.132  0.00  0.00     0.111 C 
BRANCH  20  22
ATOM     22  S   UNL d   1      48.634  35.014  51.765  0.00  0.00     0.272 S 
ATOM     23  O   UNL d   1      48.777  34.694  51.010  0.00  0.00    -0.200 OA
ATOM     24  O   UNL d   1      48.314  35.400  52.418  0.00  0.00    -0.200 OA
BRANCH  22  25
ATOM     25  C   UNL d   1      47.944  35.442  51.909  0.00  0.00     0.104 A 
ATOM     26  C   UNL d   1      47.961  36.089  52.423  0.00  0.00     0.013 A 
ATOM     27  C   UNL d   1      47.274  36.515  52.567  0.00  0.00     0.007 A 
ATOM     28  C   UNL d   1      46.563  36.295  52.197  0.00  0.00     0.035 A 
ATOM     29  C   UNL d   1      46.599  35.636  51.688  0.00  0.00     0.007 A 
ATOM     30 BR   UNL d   1      45.862  36.707  52.326  0.00  0.00    -0.049 Br
ATOM     31  C   UNL d   1      47.268  35.186  51.520  0.00  0.00     0.013 A 
ENDBRANCH  22  25
ENDBRANCH  20  22
ENDBRANCH  19  20
ENDBRANCH  17  19
ENDBRANCH   1  17
TORSDOF 8
ENDMDL
MODEL 2
REMARK VINA RESULT:     -10.6      0.092      1.682
REMARK  8 active torsions:
REMARK  status: ('A' for Active; 'I' for Inactive)
REMARK    1  A    between atoms: N_5  and  S_1 
REMARK    2  A    between atoms: C_8  and  S_1 
REMARK    3  A    between atoms: C_2  and  N_10 
REMARK    4  A    between atoms: C_9  and  N_5 
REMARK    5  A    between atoms: C_13  and  C_9 
REMARK    6  A    between atoms: N_10  and  O_14 
REMARK    7  A    between atoms: C_17  and  C_13 
REMARK    8  A    between atoms: O_14  and  C_17 
ROOT
ATOM      1  C   UNL d   1      51.269  34.042  52.576  0.00  0.00     0.193 C 
ENDROOT
BRANCH   1   2
ATOM      2  O   UNL d   1      51.743  33.586  53.075  0.00  0.00    -0.206 OA
BRANCH   2   3
ATOM      3  N   UNL d   1      52.518  33.390  52.845  0.00  0.00    -0.126 NA
BRANCH   3   4
ATOM      4  C   UNL d   1      52.988  32.920  53.336  0.00  0.00     0.108 A 
ATOM      5  C   UNL d   1      53.060  32.092  53.301  0.00  0.00     0.020 A 
ATOM      6  C   UNL d   1      53.585  31.864  53.893  0.00  0.00     0.002 A 
ATOM      7  C   UNL d   1      52.715  31.540  52.808  0.00  0.00     0.002 A 
ATOM      8  C   UNL d   1      53.765  31.059  53.990  0.00  0.00     0.000 A 
ATOM      9  C   UNL d   1      53.839  32.530  54.294  0.00  0.00     0.002 A 
ATOM     10  C   UNL d   1      53.419  30.501  53.495  0.00  0.00     0.000 A 
ATOM     11  C   UNL d   1      52.890  30.738  52.900  0.00  0.00     0.000 A 
ATOM     12  C   UNL d   1      53.473  33.188  53.954  0.00  0.00     0.020 A 
ATOM     13  C   UNL d   1      54.355  32.633  54.924  0.00  0.00     0.000 A 
ATOM     14  C   UNL d   1      53.620  33.945  54.241  0.00  0.00     0.002 A 
ATOM     15  C   UNL d   1      54.143  34.046  54.878  0.00  0.00     0.000 A 
ATOM     16  C   UNL d   1      54.508  33.386  55.217  0.00  0.00     0.000 A 
ENDBRANCH   3   4
ENDBRANCH   2   3
ENDBRANCH   1   2
BRANCH   1  17
ATOM     17  C   UNL d   1      50.473  34.149  52.750  0.00  0.00     0.240 C 
ATOM     18  O   UNL d   1      50.122  33.718  53.361  0.00  0.00    -0.283 OA
BRANCH  17  19
ATOM     19  C   UNL d   1      49.721  34.486  52.652  0.00  0.00     0.136 C 
BRANCH  19  20
ATOM     20  N   UNL d   1      49.438  34.621  51.884  0.00  0.00    -0.225 N 
ATOM     21  C   UNL d   1      49.741  34.432  51.145  0.00  0.00     0.111 C 
BRANCH  20  22
ATOM     22  S   UNL d   1      48.719  35.015  51.773  0.00  0.00     0.272 S 
ATOM     23  O   UNL d   1      48.899  34.760  51.001  0.00  0.00    -0.200 OA
ATOM     24  O   UNL d   1      48.369  35.347  52.440  0.00  0.00    -0.200 OA
BRANCH  22  25
ATOM     25  C   UNL d   1      48.029  35.442  51.918  0.00  0.00     0.104 A 
ATOM     26  C   UNL d   1      48.040  36.071  52.454  0.00  0.00     0.013 A 
ATOM     27  C   UNL d   1      47.354  36.497  52.599  0.00  0.00     0.007 A 
ATOM     28  C   UNL d   1      46.649  36.296  52.207  0.00  0.00     0.035 A 
ATOM     29  C   UNL d   1      46.690  35.655  51.677  0.00  0.00     0.007 A 
ATOM     30 BR   UNL d   1      45.948  36.709  52.336  0.00  0.00    -0.049 Br
ATOM     31  C   UNL d   1      47.359  35.205  51.506  0.00  0.00     0.013 A 
ENDBRANCH  22  25
ENDBRANCH  20  22
ENDBRANCH  19  20
ENDBRANCH  17  19
ENDBRANCH   1  17
TORSDOF 8
ENDMDL
MODEL 3
REMARK VINA RESULT:      -9.6      2.273      6.480
REMARK  8 active torsions:
REMARK  status: ('A' for Active; 'I' for Inactive)
REMARK    1  A    between atoms: N_5  and  S_1 
REMARK    2  A    between atoms: C_8  and  S_1 
REMARK    3  A    between atoms: C_2  and  N_10 
REMARK    4  A    between atoms: C_9  and  N_5 
REMARK    5  A    between atoms: C_13  and  C_9 
REMARK    6  A    between atoms: N_10  and  O_14 
REMARK    7  A    between atoms: C_17  and  C_13 
REMARK    8  A    between atoms: O_14  and  C_17 
ROOT
ATOM      1  C   UNL d   1      49.797  35.033  52.622  0.00  0.00     0.193 C 
ENDROOT
BRANCH   1   2
ATOM      2  O   UNL d   1      49.045  35.195  52.925  0.00  0.00    -0.206 OA
BRANCH   2   3
ATOM      3  N   UNL d   1      48.669  35.913  52.738  0.00  0.00    -0.126 NA
BRANCH   3   4
ATOM      4  C   UNL d   1      47.863  36.008  52.890  0.00  0.00     0.108 A 
ATOM      5  C   UNL d   1      47.524  36.255  53.608  0.00  0.00     0.020 A 
ATOM      6  C   UNL d   1      46.707  36.271  53.505  0.00  0.00     0.002 A 
ATOM      7  C   UNL d   1      47.862  36.462  54.323  0.00  0.00     0.002 A 
ATOM      8  C   UNL d   1      46.221  36.500  54.138  0.00  0.00     0.000 A 
ATOM      9  C   UNL d   1      46.532  36.039  52.740  0.00  0.00     0.002 A 
ATOM     10  C   UNL d   1      46.559  36.708  54.857  0.00  0.00     0.000 A 
ATOM     11  C   UNL d   1      47.384  36.690  54.955  0.00  0.00     0.000 A 
ATOM     12  C   UNL d   1      47.244  35.875  52.354  0.00  0.00     0.020 A 
ATOM     13  C   UNL d   1      45.822  35.953  52.337  0.00  0.00     0.000 A 
ATOM     14  C   UNL d   1      47.247  35.626  51.569  0.00  0.00     0.002 A 
ATOM     15  C   UNL d   1      46.528  35.540  51.165  0.00  0.00     0.000 A 
ATOM     16  C   UNL d   1      45.817  35.705  51.554  0.00  0.00     0.000 A 
ENDBRANCH   3   4
ENDBRANCH   2   3
ENDBRANCH   1   2
BRANCH   1  17
ATOM     17  C   UNL d   1      50.256  34.441  52.960  0.00  0.00     0.240 C 
ATOM     18  O   UNL d   1      49.916  33.715  53.157  0.00  0.00    -0.283 OA
BRANCH  17  19
ATOM     19  C   UNL d   1      50.958  34.111  53.255  0.00  0.00     0.136 C 
BRANCH  19  20
ATOM     20  N   UNL d   1      51.670  34.256  52.855  0.00  0.00    -0.225 N 
ATOM     21  C   UNL d   1      51.832  34.449  52.074  0.00  0.00     0.111 C 
BRANCH  20  22
ATOM     22  S   UNL d   1      52.388  34.213  53.262  0.00  0.00     0.272 S 
ATOM     23  O   UNL d   1      52.564  34.759  52.658  0.00  0.00    -0.200 OA
ATOM     24  O   UNL d   1      52.418  33.709  53.913  0.00  0.00    -0.200 OA
BRANCH  22  25
ATOM     25  C   UNL d   1      52.966  34.003  53.812  0.00  0.00     0.104 A 
ATOM     26  C   UNL d   1      53.331  33.264  53.763  0.00  0.00     0.013 A 
ATOM     27  C   UNL d   1      53.906  33.054  54.309  0.00  0.00     0.007 A 
ATOM     28  C   UNL d   1      54.122  33.585  54.911  0.00  0.00     0.035 A 
ATOM     29  C   UNL d   1      53.725  34.318  54.917  0.00  0.00     0.007 A 
ATOM     30 BR   UNL d   1      54.696  33.398  55.470  0.00  0.00    -0.049 Br
ATOM     31  C   UNL d   1      53.144  34.562  54.386  0.00  0.00     0.013 A 
ENDBRANCH  22  25
ENDBRANCH  20  22
ENDBRANCH  19  20
ENDBRANCH  17  19
ENDBRANCH   1  17
TORSDOF 8
ENDMDL
MODEL 4
REMARK VINA RESULT:      -9.5      2.225      6.611
REMARK  8 active torsions:
REMARK  status: ('A' for Active; 'I' for Inactive)
REMARK    1  A    between atoms: N_5  and  S_1 
REMARK    2  A    between atoms: C_8  and  S_1 
REMARK    3  A    between atoms: C_2  and  N_10 
REMARK    4  A    between atoms: C_9  and  N_5 
REMARK    5  A    between atoms: C_13  and  C_9 
REMARK    6  A    between atoms: N_10  and  O_14 
REMARK    7  A    between atoms: C_17  and  C_13 
REMARK    8  A    between atoms: O_14  and  C_17 
ROOT
ATOM      1  C   UNL d   1      49.769  34.926  52.628  0.00  0.00     0.193 C 
ENDROOT
BRANCH   1   2
ATOM      2  O   UNL d   1      49.027  35.111  52.942  0.00  0.00    -0.206 OA
BRANCH   2   3
ATOM      3  N   UNL d   1      48.696  35.862  52.808  0.00  0.00    -0.126 NA
BRANCH   3   4
ATOM      4  C   UNL d   1      47.893  35.990  52.953  0.00  0.00     0.108 A 
ATOM      5  C   UNL d   1      47.274  35.895  52.406  0.00  0.00     0.020 A 
ATOM      6  C   UNL d   1      46.571  36.084  52.791  0.00  0.00     0.002 A 
ATOM      7  C   UNL d   1      47.276  35.664  51.622  0.00  0.00     0.002 A 
ATOM      8  C   UNL d   1      45.854  36.038  52.376  0.00  0.00     0.000 A 
ATOM      9  C   UNL d   1      46.740  36.293  53.564  0.00  0.00     0.002 A 
ATOM     10  C   UNL d   1      45.853  35.806  51.587  0.00  0.00     0.000 A 
ATOM     11  C   UNL d   1      46.566  35.617  51.204  0.00  0.00     0.000 A 
ATOM     12  C   UNL d   1      47.558  36.237  53.671  0.00  0.00     0.020 A 
ATOM     13  C   UNL d   1      46.263  36.529  54.190  0.00  0.00     0.000 A 
ATOM     14  C   UNL d   1      47.898  36.415  54.398  0.00  0.00     0.002 A 
ATOM     15  C   UNL d   1      47.414  36.653  55.029  0.00  0.00     0.000 A 
ATOM     16  C   UNL d   1      46.596  36.708  54.919  0.00  0.00     0.000 A 
ENDBRANCH   3   4
ENDBRANCH   2   3
ENDBRANCH   1   2
BRANCH   1  17
ATOM     17  C   UNL d   1      50.192  34.287  52.923  0.00  0.00     0.240 C 
ATOM     18  O   UNL d   1      49.840  33.541  52.965  0.00  0.00    -0.283 OA
BRANCH  17  19
ATOM     19  C   UNL d   1      50.858  33.911  53.247  0.00  0.00     0.136 C 
BRANCH  19  20
ATOM     20  N   UNL d   1      51.585  33.973  52.854  0.00  0.00    -0.225 N 
ATOM     21  C   UNL d   1      51.784  34.249  52.106  0.00  0.00     0.111 C 
BRANCH  20  22
ATOM     22  S   UNL d   1      52.280  33.729  53.230  0.00  0.00     0.272 S 
ATOM     23  O   UNL d   1      52.275  33.251  52.548  0.00  0.00    -0.200 OA
ATOM     24  O   UNL d   1      52.466  34.097  53.943  0.00  0.00    -0.200 OA
BRANCH  22  25
ATOM     25  C   UNL d   1      52.894  33.665  53.776  0.00  0.00     0.104 A 
ATOM     26  C   UNL d   1      53.120  34.323  54.221  0.00  0.00     0.013 A 
ATOM     27  C   UNL d   1      53.731  34.260  54.765  0.00  0.00     0.007 A 
ATOM     28  C   UNL d   1      54.123  33.534  54.869  0.00  0.00     0.035 A 
ATOM     29  C   UNL d   1      53.858  32.901  54.396  0.00  0.00     0.007 A 
ATOM     30 BR   UNL d   1      54.738  33.447  55.408  0.00  0.00    -0.049 Br
ATOM     31  C   UNL d   1      53.249  32.927  53.841  0.00  0.00     0.013 A 
ENDBRANCH  22  25
ENDBRANCH  20  22
ENDBRANCH  19  20
ENDBRANCH  17  19
ENDBRANCH   1  17
TORSDOF 8
ENDMDL
