MODEL 1
REMARK VINA RESULT:      -5.4      0.000      0.000
REMARK  2 active torsions:
REMARK  status: ('A' for Active; 'I' for Inactive)
REMARK    1  A    between atoms: C_6  and  C_4 
REMARK    2  A    between atoms: C_7  and  C_5 
ROOT
ATOM      1  O   UNL d   1      57.148  -0.132  31.081  0.00  0.00    -0.268 OA
ATOM      2  N   UNL d   1      58.194   0.660  31.357  0.00  0.00    -0.121 NA
ATOM      3  N   UNL d   1      57.720   0.620  32.037  0.00  0.00    -0.121 NA
ATOM      4  C   UNL d   1      57.076   0.132  31.863  0.00  0.00     0.204 A 
ATOM      5  C   UNL d   1      57.844   0.202  30.778  0.00  0.00     0.204 A 
ENDROOT
BRANCH   4   6
ATOM      6  C   UNL d   1      56.458  -0.066  32.382  0.00  0.00     0.046 A 
ATOM      7  C   UNL d   1      56.277  -0.854  32.530  0.00  0.00     0.024 A 
ATOM      8  C   UNL d   1      55.669  -1.044  33.039  0.00  0.00     0.099 A 
ATOM      9  N   UNL d   1      55.235  -0.446  33.407  0.00  0.00    -0.242 NA
ATOM     10  C   UNL d   1      55.408   0.342  33.266  0.00  0.00     0.099 A 
ATOM     11  C   UNL d   1      56.024   0.531  32.749  0.00  0.00     0.024 A 
ENDBRANCH   4   6
BRANCH   5  12
ATOM     12  C   UNL d   1      58.132   0.084  30.006  0.00  0.00     0.043 A 
ATOM     13  C   UNL d   1      58.513  -0.618  29.810  0.00  0.00     0.004 A 
ATOM     14  C   UNL d   1      58.796  -0.733  29.050  0.00  0.00     0.000 A 
ATOM     15  C   UNL d   1      58.698  -0.141  28.482  0.00  0.00     0.000 A 
ATOM     16  C   UNL d   1      58.317   0.562  28.677  0.00  0.00     0.000 A 
ATOM     17  C   UNL d   1      58.032   0.676  29.443  0.00  0.00     0.004 A 
ENDBRANCH   5  12
TORSDOF 2
ENDMDL
MODEL 2
REMARK VINA RESULT:      -5.3      1.118      1.688
REMARK  2 active torsions:
REMARK  status: ('A' for Active; 'I' for Inactive)
REMARK    1  A    between atoms: C_6  and  C_4 
REMARK    2  A    between atoms: C_7  and  C_5 
ROOT
ATOM      1  O   UNL d   1      56.736   0.102  32.169  0.00  0.00    -0.268 OA
ATOM      2  N   UNL d   1      56.714  -1.189  31.812  0.00  0.00    -0.121 NA
ATOM      3  N   UNL d   1      56.259  -1.110  32.502  0.00  0.00    -0.121 NA
ATOM      4  C   UNL d   1      56.275  -0.313  32.718  0.00  0.00     0.204 A 
ATOM      5  C   UNL d   1      57.002  -0.451  31.612  0.00  0.00     0.204 A 
ENDROOT
BRANCH   4   6
ATOM      6  C   UNL d   1      55.895   0.022  33.377  0.00  0.00     0.046 A 
ATOM      7  C   UNL d   1      56.335   0.351  33.988  0.00  0.00     0.024 A 
ATOM      8  C   UNL d   1      55.959   0.679  34.632  0.00  0.00     0.099 A 
ATOM      9  N   UNL d   1      55.135   0.682  34.672  0.00  0.00    -0.242 NA
ATOM     10  C   UNL d   1      54.686   0.357  34.068  0.00  0.00     0.099 A 
ATOM     11  C   UNL d   1      55.071   0.025  33.417  0.00  0.00     0.024 A 
ENDBRANCH   4   6
BRANCH   5  12
ATOM     12  C   UNL d   1      57.485  -0.274  30.957  0.00  0.00     0.043 A 
ATOM     13  C   UNL d   1      57.593   0.507  30.724  0.00  0.00     0.004 A 
ATOM     14  C   UNL d   1      58.069   0.679  30.079  0.00  0.00     0.000 A 
ATOM     15  C   UNL d   1      58.438   0.067  29.666  0.00  0.00     0.000 A 
ATOM     16  C   UNL d   1      58.329  -0.715  29.899  0.00  0.00     0.000 A 
ATOM     17  C   UNL d   1      57.850  -0.887  30.548  0.00  0.00     0.004 A 
ENDBRANCH   5  12
TORSDOF 2
ENDMDL
MODEL 3
REMARK VINA RESULT:      -5.0      0.893      1.310
REMARK  2 active torsions:
REMARK  status: ('A' for Active; 'I' for Inactive)
REMARK    1  A    between atoms: C_6  and  C_4 
REMARK    2  A    between atoms: C_7  and  C_5 
ROOT
ATOM      1  O   UNL d   1      57.906  -0.321  30.907  0.00  0.00    -0.268 OA
ATOM      2  N   UNL d   1      57.535   0.653  30.065  0.00  0.00    -0.121 NA
ATOM      3  N   UNL d   1      57.009   0.660  30.707  0.00  0.00    -0.121 NA
ATOM      4  C   UNL d   1      57.241   0.058  31.224  0.00  0.00     0.204 A 
ATOM      5  C   UNL d   1      58.079   0.056  30.190  0.00  0.00     0.204 A 
ENDROOT
BRANCH   4   6
ATOM      6  C   UNL d   1      56.873  -0.138  31.942  0.00  0.00     0.046 A 
ATOM      7  C   UNL d   1      56.864   0.398  32.565  0.00  0.00     0.024 A 
ATOM      8  C   UNL d   1      56.502   0.201  33.268  0.00  0.00     0.099 A 
ATOM      9  N   UNL d   1      56.143  -0.536  33.357  0.00  0.00    -0.242 NA
ATOM     10  C   UNL d   1      56.146  -1.078  32.742  0.00  0.00     0.099 A 
ATOM     11  C   UNL d   1      56.514  -0.876  32.031  0.00  0.00     0.024 A 
ENDBRANCH   4   6
BRANCH   5  12
ATOM     12  C   UNL d   1      58.708  -0.147  29.683  0.00  0.00     0.043 A 
ATOM     13  C   UNL d   1      59.372   0.336  29.635  0.00  0.00     0.004 A 
ATOM     14  C   UNL d   1      59.990   0.134  29.137  0.00  0.00     0.000 A 
ATOM     15  C   UNL d   1      59.943  -0.554  28.683  0.00  0.00     0.000 A 
ATOM     16  C   UNL d   1      59.279  -1.038  28.731  0.00  0.00     0.000 A 
ATOM     17  C   UNL d   1      58.657  -0.834  29.234  0.00  0.00     0.004 A 
ENDBRANCH   5  12
TORSDOF 2
ENDMDL
MODEL 4
REMARK VINA RESULT:      -3.1      9.590      9.891
REMARK  2 active torsions:
REMARK  status: ('A' for Active; 'I' for Inactive)
REMARK    1  A    between atoms: C_6  and  C_4 
REMARK    2  A    between atoms: C_7  and  C_5 
ROOT
ATOM      1  O   UNL d   1      58.930  -9.086  33.600  0.00  0.00    -0.268 OA
ATOM      2  N   UNL d   1      59.864  -9.818  32.975  0.00  0.00    -0.121 NA
ATOM      3  N   UNL d   1      60.176  -9.581  33.707  0.00  0.00    -0.121 NA
ATOM      4  C   UNL d   1      59.598  -9.131  34.089  0.00  0.00     0.204 A 
ATOM      5  C   UNL d   1      59.107  -9.516  32.913  0.00  0.00     0.204 A 
ENDROOT
BRANCH   4   6
ATOM      6  C   UNL d   1      59.668  -8.779  34.838  0.00  0.00     0.046 A 
ATOM      7  C   UNL d   1      60.121  -8.099  34.937  0.00  0.00     0.024 A 
ATOM      8  C   UNL d   1      60.187  -7.757  35.673  0.00  0.00     0.099 A 
ATOM      9  N   UNL d   1      59.801  -8.091  36.321  0.00  0.00    -0.242 NA
ATOM     10  C   UNL d   1      59.348  -8.768  36.234  0.00  0.00     0.099 A 
ATOM     11  C   UNL d   1      59.282  -9.113  35.486  0.00  0.00     0.024 A 
ENDBRANCH   4   6
BRANCH   5  12
ATOM     12  C   UNL d   1      58.590  -9.618  32.268  0.00  0.00     0.043 A 
ATOM     13  C   UNL d   1      58.890  -9.688  31.506  0.00  0.00     0.004 A 
ATOM     14  C   UNL d   1      58.381  -9.789  30.872  0.00  0.00     0.000 A 
ATOM     15  C   UNL d   1      57.566  -9.818  31.002  0.00  0.00     0.000 A 
ATOM     16  C   UNL d   1      57.265  -9.747  31.765  0.00  0.00     0.000 A 
ATOM     17  C   UNL d   1      57.779  -9.646  32.402  0.00  0.00     0.004 A 
ENDBRANCH   5  12
TORSDOF 2
ENDMDL
