MODEL 1
REMARK VINA RESULT:     -10.3      0.000      0.000
REMARK  6 active torsions:
REMARK  status: ('A' for Active; 'I' for Inactive)
REMARK    1  A    between atoms: C_10  and  C_2 
REMARK    2  A    between atoms: C_14  and  N_3 
REMARK    3  A    between atoms: C_15  and  C_4 
REMARK    4  A    between atoms: N_5  and  C_9 
REMARK       I    between atoms: C_7  and  N_8 
REMARK    5  A    between atoms: C_13  and  C_7 
REMARK    6  A    between atoms: N_8  and  C_10 
ROOT
ATOM      1  N   UNL d   1      52.651  34.453  54.032  0.00  0.00    -0.165 NA
ATOM      2  C   UNL d   1      53.043  33.227  53.399  0.00  0.00     0.071 A 
ATOM      3  N   UNL d   1      51.832  33.919  53.034  0.00  0.00    -0.228 N 
ATOM      4  C   UNL d   1      53.180  33.815  53.939  0.00  0.00     0.105 A 
ATOM      5  C   UNL d   1      52.361  33.281  52.942  0.00  0.00     0.105 A 
ENDROOT
BRANCH   2   6
ATOM      6  C   UNL d   1      53.579  32.579  53.305  0.00  0.00     0.168 C 
BRANCH   6   7
ATOM      7  N   UNL d   1      53.315  31.834  53.064  0.00  0.00    -0.362 NA
ATOM      8  C   UNL d   1      53.052  31.096  52.821  0.00  0.00     0.328 C 
ATOM      9  O   UNL d   1      52.713  30.994  52.075  0.00  0.00    -0.251 OA
BRANCH   8  10
ATOM     10  C   UNL d   1      53.128  30.450  53.328  0.00  0.00     0.070 A 
ATOM     11  C   UNL d   1      52.452  30.054  53.592  0.00  0.00     0.008 A 
ATOM     12  C   UNL d   1      52.525  29.402  54.103  0.00  0.00     0.024 A 
ATOM     13  C   UNL d   1      53.268  29.155  54.344  0.00  0.00     0.127 A 
ATOM     14  C   UNL d   1      53.947  29.547  54.084  0.00  0.00     0.024 A 
ATOM     15  C   UNL d   1      53.871  30.204  53.568  0.00  0.00     0.008 A 
BRANCH  13  16
ATOM     16  N   UNL d   1      53.344  28.507  54.853  0.00  0.00    -0.114 N 
ATOM     17  O   UNL d   1      53.588  27.782  54.545  0.00  0.00    -0.532 OA
ATOM     18  O   UNL d   1      53.177  28.585  55.655  0.00  0.00    -0.532 OA
ENDBRANCH  13  16
ENDBRANCH   8  10
ENDBRANCH   6   7
ENDBRANCH   2   6
BRANCH   4  19
ATOM     19  C   UNL d   1      53.868  33.765  54.405  0.00  0.00     0.019 A 
ATOM     20  C   UNL d   1      53.791  33.477  55.170  0.00  0.00     0.002 A 
ATOM     21  C   UNL d   1      54.469  33.425  55.637  0.00  0.00     0.000 A 
ATOM     22  C   UNL d   1      55.220  33.666  55.323  0.00  0.00     0.000 A 
ATOM     23  C   UNL d   1      55.280  33.950  54.559  0.00  0.00     0.000 A 
ATOM     24  C   UNL d   1      54.617  34.005  54.092  0.00  0.00     0.002 A 
ENDBRANCH   4  19
BRANCH   3  25
ATOM     25  C   UNL d   1      51.114  34.149  52.682  0.00  0.00     0.083 A 
ATOM     26  C   UNL d   1      50.459  34.388  53.159  0.00  0.00     0.019 A 
ATOM     27  C   UNL d   1      49.744  34.616  52.814  0.00  0.00     0.002 A 
ATOM     28  C   UNL d   1      49.682  34.607  51.997  0.00  0.00     0.000 A 
ATOM     29  C   UNL d   1      50.341  34.367  51.531  0.00  0.00     0.002 A 
ATOM     30  C   UNL d   1      51.054  34.139  51.872  0.00  0.00     0.019 A 
ENDBRANCH   3  25
TORSDOF 6
ENDMDL
MODEL 2
REMARK VINA RESULT:      -8.8      0.507      3.313
REMARK  6 active torsions:
REMARK  status: ('A' for Active; 'I' for Inactive)
REMARK    1  A    between atoms: C_10  and  C_2 
REMARK    2  A    between atoms: C_14  and  N_3 
REMARK    3  A    between atoms: C_15  and  C_4 
REMARK    4  A    between atoms: N_5  and  C_9 
REMARK       I    between atoms: C_7  and  N_8 
REMARK    5  A    between atoms: C_13  and  C_7 
REMARK    6  A    between atoms: N_8  and  C_10 
ROOT
ATOM      1  N   UNL d   1      52.564  34.499  53.644  0.00  0.00    -0.165 NA
ATOM      2  C   UNL d   1      52.439  33.101  53.347  0.00  0.00     0.071 A 
ATOM      3  N   UNL d   1      53.542  33.620  54.116  0.00  0.00    -0.228 N 
ATOM      4  C   UNL d   1      52.160  33.860  53.292  0.00  0.00     0.105 A 
ATOM      5  C   UNL d   1      53.138  32.981  53.764  0.00  0.00     0.105 A 
ENDROOT
BRANCH   2   6
ATOM      6  C   UNL d   1      52.029  32.453  52.990  0.00  0.00     0.168 C 
BRANCH   6   7
ATOM      7  N   UNL d   1      52.423  31.756  52.784  0.00  0.00    -0.362 NA
ATOM      8  C   UNL d   1      52.815  31.065  52.576  0.00  0.00     0.328 C 
ATOM      9  O   UNL d   1      53.099  30.957  51.809  0.00  0.00    -0.251 OA
BRANCH   8  10
ATOM     10  C   UNL d   1      52.925  30.475  53.141  0.00  0.00     0.070 A 
ATOM     11  C   UNL d   1      53.681  30.327  53.438  0.00  0.00     0.008 A 
ATOM     12  C   UNL d   1      53.796  29.732  54.008  0.00  0.00     0.024 A 
ATOM     13  C   UNL d   1      53.157  29.294  54.273  0.00  0.00     0.127 A 
ATOM     14  C   UNL d   1      52.397  29.437  53.980  0.00  0.00     0.024 A 
ATOM     15  C   UNL d   1      52.285  30.038  53.405  0.00  0.00     0.008 A 
BRANCH  13  16
ATOM     16  N   UNL d   1      53.267  28.702  54.840  0.00  0.00    -0.114 N 
ATOM     17  O   UNL d   1      53.001  28.829  55.610  0.00  0.00    -0.532 OA
ATOM     18  O   UNL d   1      53.637  27.995  54.638  0.00  0.00    -0.532 OA
ENDBRANCH  13  16
ENDBRANCH   8  10
ENDBRANCH   6   7
ENDBRANCH   2   6
BRANCH   4  19
ATOM     19  C   UNL d   1      51.453  33.987  52.870  0.00  0.00     0.019 A 
ATOM     20  C   UNL d   1      50.748  33.954  53.290  0.00  0.00     0.002 A 
ATOM     21  C   UNL d   1      50.044  34.079  52.880  0.00  0.00     0.000 A 
ATOM     22  C   UNL d   1      50.061  34.235  52.046  0.00  0.00     0.000 A 
ATOM     23  C   UNL d   1      50.771  34.264  51.643  0.00  0.00     0.000 A 
ATOM     24  C   UNL d   1      51.470  34.143  52.039  0.00  0.00     0.002 A 
ENDBRANCH   4  19
BRANCH   3  25
ATOM     25  C   UNL d   1      54.238  33.706  54.564  0.00  0.00     0.083 A 
ATOM     26  C   UNL d   1      54.215  33.660  55.408  0.00  0.00     0.019 A 
ATOM     27  C   UNL d   1      54.903  33.744  55.856  0.00  0.00     0.002 A 
ATOM     28  C   UNL d   1      55.612  33.874  55.466  0.00  0.00     0.000 A 
ATOM     29  C   UNL d   1      55.624  33.919  54.625  0.00  0.00     0.002 A 
ATOM     30  C   UNL d   1      54.940  33.835  54.176  0.00  0.00     0.019 A 
ENDBRANCH   3  25
TORSDOF 6
ENDMDL
