MODEL 1
REMARK VINA RESULT:      51.1      0.000      0.000
REMARK  1 active torsions:
REMARK  status: ('A' for Active; 'I' for Inactive)
REMARK    1  A    between atoms: N_3  and  C_1 
ROOT
ATOM      1  C   UNL d   1     -54.758-101.666 -41.360  0.00  0.00     0.110 A 
ATOM      2  C   UNL d   1     -54.740-101.218 -40.655  0.00  0.00     0.212 A 
ATOM      3  C   UNL d   1     -54.747-101.606 -39.927  0.00  0.00     0.046 A 
ATOM      4  C   UNL d   1     -54.782-102.495 -41.323  0.00  0.00     0.056 A 
ATOM      5  S   UNL d   1     -54.788-102.875 -40.580  0.00  0.00    -0.085 SA
ATOM      6  C   UNL d   1     -54.770-102.431 -39.889  0.00  0.00     0.033 A 
ATOM      7  C   UNL d   1     -54.729-101.169 -39.229  0.00  0.00     0.004 A 
ATOM      8  O   UNL d   1     -54.716-100.398 -40.689  0.00  0.00    -0.285 OA
ATOM      9  C   UNL d   1     -54.777-102.812 -39.159  0.00  0.00     0.007 A 
ATOM     10  C   UNL d   1     -54.735-101.543 -38.505  0.00  0.00     0.000 A 
ATOM     11  C   UNL d   1     -54.760-102.378 -38.467  0.00  0.00     0.001 A 
ATOM     12  C   UNL d   1     -54.718-101.112 -37.807  0.00  0.00     0.000 C 
ENDROOT
BRANCH   1  13
ATOM     13  N   UNL d   1     -54.751-101.286 -42.095  0.00  0.00    -0.301 N 
ATOM     14  C   UNL d   1     -54.762-101.723 -42.782  0.00  0.00     0.080 A 
ATOM     15  C   UNL d   1     -54.756-101.347 -43.521  0.00  0.00     0.018 A 
ATOM     16  C   UNL d   1     -54.767-101.787 -44.212  0.00  0.00     0.002 A 
ATOM     17  C   UNL d   1     -54.739-100.526 -43.558  0.00  0.00     0.003 A 
ATOM     18  C   UNL d   1     -54.760-101.411 -44.946  0.00  0.00     0.000 A 
ATOM     19  C   UNL d   1     -54.743-100.586 -44.983  0.00  0.00     0.000 A 
ATOM     20  C   UNL d   1     -54.732-100.141 -44.286  0.00  0.00     0.000 A 
ATOM     21  C   UNL d   1     -54.728-100.070 -42.856  0.00  0.00     0.019 A 
ATOM     22  C   UNL d   1     -54.734-100.458 -42.132  0.00  0.00     0.080 A 
ENDBRANCH   1  13
TORSDOF 1
ENDMDL
