MODEL 1
REMARK VINA RESULT:       6.0      0.000      0.000
REMARK  2 active torsions:
REMARK  status: ('A' for Active; 'I' for Inactive)
REMARK    1  A    between atoms: C_5  and  C_1 
REMARK    2  A    between atoms: N_7  and  C_3 
REMARK       I    between atoms: C_8  and  N_7 
ROOT
ATOM      1  C   UNL d   1      44.550 -15.569  36.635  0.00  0.00     0.231 A 
ATOM      2  O   UNL d   1      43.787 -15.251  36.597  0.00  0.00    -0.252 OA
ATOM      3  C   UNL d   1      43.267 -15.865  36.421  0.00  0.00     0.297 A 
ATOM      4  N   UNL d   1      44.492 -16.371  36.483  0.00  0.00    -0.117 NA
ATOM      5  N   UNL d   1      43.701 -16.553  36.351  0.00  0.00    -0.101 NA
ENDROOT
BRANCH   1   6
ATOM      6  C   UNL d   1      45.241 -15.143  36.798  0.00  0.00     0.168 A 
ATOM      7  O   UNL d   1      45.966 -15.443  36.560  0.00  0.00    -0.297 OA
ATOM      8  C   UNL d   1      46.647 -15.024  36.720  0.00  0.00     0.149 A 
ATOM      9  C   UNL d   1      46.609 -14.309  37.117  0.00  0.00     0.149 A 
ATOM     10  O   UNL d   1      45.889 -14.000  37.360  0.00  0.00    -0.299 OA
ATOM     11  C   UNL d   1      45.205 -14.420  37.200  0.00  0.00     0.151 A 
ENDBRANCH   1   6
BRANCH   3  12
ATOM     12  N   UNL d   1      42.452 -15.786  36.333  0.00  0.00    -0.165 NA
ATOM     13  C   UNL d   1      42.008 -15.423  36.912  0.00  0.00     0.282 C 
ATOM     14  O   UNL d   1      42.371 -15.127  37.600  0.00  0.00    -0.265 OA
ATOM     15  C   UNL d   1      41.190 -15.345  36.822  0.00  0.00     0.068 C 
ENDBRANCH   3  12
TORSDOF 2
ENDMDL
MODEL 2
REMARK VINA RESULT:       7.3      7.514      8.078
REMARK  2 active torsions:
REMARK  status: ('A' for Active; 'I' for Inactive)
REMARK    1  A    between atoms: C_5  and  C_1 
REMARK    2  A    between atoms: N_7  and  C_3 
REMARK       I    between atoms: C_8  and  N_7 
ROOT
ATOM      1  C   UNL d   1      45.284 -14.397  44.500  0.00  0.00     0.231 A 
ATOM      2  O   UNL d   1      45.874 -14.974  44.546  0.00  0.00    -0.252 OA
ATOM      3  C   UNL d   1      45.528 -15.667  44.828  0.00  0.00     0.297 A 
ATOM      4  N   UNL d   1      44.584 -14.737  44.753  0.00  0.00    -0.117 NA
ATOM      5  N   UNL d   1      44.734 -15.519  44.955  0.00  0.00    -0.101 NA
ENDROOT
BRANCH   1   6
ATOM      6  C   UNL d   1      45.393 -13.617  44.243  0.00  0.00     0.168 A 
ATOM      7  O   UNL d   1      45.128 -13.396  43.499  0.00  0.00    -0.297 OA
ATOM      8  C   UNL d   1      45.235 -12.628  43.246  0.00  0.00     0.149 A 
ATOM      9  C   UNL d   1      45.604 -12.080  43.729  0.00  0.00     0.149 A 
ATOM     10  O   UNL d   1      45.873 -12.291  44.475  0.00  0.00    -0.299 OA
ATOM     11  C   UNL d   1      45.766 -13.062  44.730  0.00  0.00     0.151 A 
ENDBRANCH   1   6
BRANCH   3  12
ATOM     12  N   UNL d   1      45.923 -16.377  44.955  0.00  0.00    -0.165 NA
ATOM     13  C   UNL d   1      45.857 -16.987  44.420  0.00  0.00     0.282 C 
ATOM     14  O   UNL d   1      45.389 -16.901  43.736  0.00  0.00    -0.265 OA
ATOM     15  C   UNL d   1      46.254 -17.701  44.549  0.00  0.00     0.068 C 
ENDBRANCH   3  12
TORSDOF 2
ENDMDL
MODEL 3
REMARK VINA RESULT:       8.7      0.910      3.467
REMARK  2 active torsions:
REMARK  status: ('A' for Active; 'I' for Inactive)
REMARK    1  A    between atoms: C_5  and  C_1 
REMARK    2  A    between atoms: N_7  and  C_3 
REMARK       I    between atoms: C_8  and  N_7 
ROOT
ATOM      1  C   UNL d   1      43.907 -15.789  36.520  0.00  0.00     0.231 A 
ATOM      2  O   UNL d   1      44.423 -15.145  36.469  0.00  0.00    -0.252 OA
ATOM      3  C   UNL d   1      45.193 -15.434  36.520  0.00  0.00     0.297 A 
ATOM      4  N   UNL d   1      44.362 -16.465  36.602  0.00  0.00    -0.117 NA
ATOM      5  N   UNL d   1      45.154 -16.246  36.602  0.00  0.00    -0.101 NA
ENDROOT
BRANCH   1   6
ATOM      6  C   UNL d   1      43.081 -15.748  36.493  0.00  0.00     0.168 A 
ATOM      7  O   UNL d   1      42.708 -15.025  36.601  0.00  0.00    -0.297 OA
ATOM      8  C   UNL d   1      41.895 -14.983  36.575  0.00  0.00     0.149 A 
ATOM      9  C   UNL d   1      41.450 -15.657  36.440  0.00  0.00     0.149 A 
ATOM     10  O   UNL d   1      41.812 -16.385  36.330  0.00  0.00    -0.299 OA
ATOM     11  C   UNL d   1      42.629 -16.428  36.357  0.00  0.00     0.151 A 
ENDBRANCH   1   6
BRANCH   3  12
ATOM     12  N   UNL d   1      45.875 -14.975  36.492  0.00  0.00    -0.165 NA
ATOM     13  C   UNL d   1      45.958 -14.329  36.981  0.00  0.00     0.282 C 
ATOM     14  O   UNL d   1      45.354 -14.124  37.516  0.00  0.00    -0.265 OA
ATOM     15  C   UNL d   1      46.644 -13.869  36.952  0.00  0.00     0.068 C 
ENDBRANCH   3  12
TORSDOF 2
ENDMDL
