MODEL 1
REMARK VINA RESULT:      -4.5      0.000      0.000
REMARK  3 active torsions:
REMARK  status: ('A' for Active; 'I' for Inactive)
REMARK       I    between atoms: N_2  and  C_1 
REMARK    1  A    between atoms: C_3  and  C_1 
REMARK    2  A    between atoms: C_6  and  N_2 
REMARK    3  A    between atoms: C_5  and  C_4 
ROOT
ATOM      1  C   UNL d   1      56.498   0.003  32.157  0.00  0.00     0.279 C 
ATOM      2  N   UNL d   1      57.098   0.575  32.176  0.00  0.00    -0.207 NA
ATOM      3  O   UNL d   1      56.473  -0.545  31.543  0.00  0.00    -0.265 OA
ENDROOT
BRANCH   1   4
ATOM      4  C   UNL d   1      55.929  -0.014  32.756  0.00  0.00     0.064 A 
ATOM      5  C   UNL d   1      55.724  -0.729  33.104  0.00  0.00     0.069 A 
ATOM      6  C   UNL d   1      55.154  -0.759  33.705  0.00  0.00     0.006 A 
ATOM      7  C   UNL d   1      54.798  -0.054  33.945  0.00  0.00     0.000 A 
ATOM      8  C   UNL d   1      55.002   0.661  33.597  0.00  0.00     0.000 A 
ATOM      9  C   UNL d   1      55.566   0.682  33.004  0.00  0.00     0.005 A 
BRANCH   5  10
ATOM     10  C   UNL d   1      56.088  -1.430  32.855  0.00  0.00     0.211 C 
ATOM     11  O   UNL d   1      55.897  -1.759  32.119  0.00  0.00    -0.644 OA
ATOM     12  O   UNL d   1      56.642  -1.800  33.343  0.00  0.00    -0.644 OA
ENDBRANCH   5  10
ENDBRANCH   1   4
BRANCH   2  13
ATOM     13  C   UNL d   1      57.670   0.597  31.581  0.00  0.00     0.095 A 
ATOM     14  C   UNL d   1      58.466   0.650  31.775  0.00  0.00     0.075 A 
ATOM     15 CL   UNL d   1      58.695   0.682  32.566  0.00  0.00    -0.081 Cl
ATOM     16  C   UNL d   1      59.032   0.671  31.183  0.00  0.00     0.013 A 
ATOM     17  C   UNL d   1      58.805   0.639  30.386  0.00  0.00     0.001 A 
ATOM     18  C   UNL d   1      58.004   0.586  30.195  0.00  0.00     0.002 A 
ATOM     19  C   UNL d   1      57.436   0.565  30.794  0.00  0.00     0.020 A 
ENDBRANCH   2  13
TORSDOF 3
ENDMDL
MODEL 2
REMARK VINA RESULT:      -3.7      1.433      3.519
REMARK  3 active torsions:
REMARK  status: ('A' for Active; 'I' for Inactive)
REMARK       I    between atoms: N_2  and  C_1 
REMARK    1  A    between atoms: C_3  and  C_1 
REMARK    2  A    between atoms: C_6  and  N_2 
REMARK    3  A    between atoms: C_5  and  C_4 
ROOT
ATOM      1  C   UNL d   1      55.639   0.064  33.101  0.00  0.00     0.279 C 
ATOM      2  N   UNL d   1      55.832   0.495  33.782  0.00  0.00    -0.207 NA
ATOM      3  O   UNL d   1      54.905  -0.304  33.042  0.00  0.00    -0.265 OA
ENDROOT
BRANCH   1   4
ATOM      4  C   UNL d   1      56.186   0.006  32.484  0.00  0.00     0.064 A 
ATOM      5  C   UNL d   1      56.469  -0.731  32.259  0.00  0.00     0.069 A 
ATOM      6  C   UNL d   1      57.018  -0.802  31.641  0.00  0.00     0.006 A 
ATOM      7  C   UNL d   1      57.272  -0.116  31.260  0.00  0.00     0.000 A 
ATOM      8  C   UNL d   1      56.989   0.621  31.485  0.00  0.00     0.000 A 
ATOM      9  C   UNL d   1      56.447   0.682  32.096  0.00  0.00     0.005 A 
BRANCH   5  10
ATOM     10  C   UNL d   1      56.207  -1.414  32.649  0.00  0.00     0.211 C 
ATOM     11  O   UNL d   1      55.443  -1.704  32.508  0.00  0.00    -0.644 OA
ATOM     12  O   UNL d   1      56.709  -1.802  33.177  0.00  0.00    -0.644 OA
ENDBRANCH   5  10
ENDBRANCH   1   4
BRANCH   2  13
ATOM     13  C   UNL d   1      55.289   0.556  34.402  0.00  0.00     0.095 A 
ATOM     14  C   UNL d   1      55.553   0.615  35.177  0.00  0.00     0.075 A 
ATOM     15 CL   UNL d   1      56.361   0.614  35.338  0.00  0.00    -0.081 Cl
ATOM     16  C   UNL d   1      55.013   0.676  35.791  0.00  0.00     0.013 A 
ATOM     17  C   UNL d   1      54.199   0.678  35.633  0.00  0.00     0.001 A 
ATOM     18  C   UNL d   1      53.937   0.618  34.853  0.00  0.00     0.002 A 
ATOM     19  C   UNL d   1      54.484   0.557  34.236  0.00  0.00     0.020 A 
ENDBRANCH   2  13
TORSDOF 3
ENDMDL
MODEL 3
REMARK VINA RESULT:      -3.5      1.643      3.770
REMARK  3 active torsions:
REMARK  status: ('A' for Active; 'I' for Inactive)
REMARK       I    between atoms: N_2  and  C_1 
REMARK    1  A    between atoms: C_3  and  C_1 
REMARK    2  A    between atoms: C_6  and  N_2 
REMARK    3  A    between atoms: C_5  and  C_4 
ROOT
ATOM      1  C   UNL d   1      57.724  -0.513  30.504  0.00  0.00     0.279 C 
ATOM      2  N   UNL d   1      57.618   0.035  31.117  0.00  0.00    -0.207 NA
ATOM      3  O   UNL d   1      57.416  -1.274  30.576  0.00  0.00    -0.265 OA
ENDROOT
BRANCH   1   4
ATOM      4  C   UNL d   1      58.137  -0.293  29.824  0.00  0.00     0.064 A 
ATOM      5  C   UNL d   1      58.631  -0.834  29.453  0.00  0.00     0.069 A 
ATOM      6  C   UNL d   1      59.051  -0.624  28.770  0.00  0.00     0.006 A 
ATOM      7  C   UNL d   1      58.961   0.140  28.471  0.00  0.00     0.000 A 
ATOM      8  C   UNL d   1      58.467   0.681  28.841  0.00  0.00     0.000 A 
ATOM      9  C   UNL d   1      58.055   0.466  29.516  0.00  0.00     0.005 A 
BRANCH   5  10
ATOM     10  C   UNL d   1      58.714  -1.598  29.761  0.00  0.00     0.211 C 
ATOM     11  O   UNL d   1      58.155  -2.183  29.579  0.00  0.00    -0.644 OA
ATOM     12  O   UNL d   1      59.355  -1.775  30.251  0.00  0.00    -0.644 OA
ENDBRANCH   5  10
ENDBRANCH   1   4
BRANCH   2  13
ATOM     13  C   UNL d   1      57.206  -0.181  31.800  0.00  0.00     0.095 A 
ATOM     14  C   UNL d   1      57.413   0.142  32.526  0.00  0.00     0.075 A 
ATOM     15 CL   UNL d   1      58.033   0.682  32.574  0.00  0.00    -0.081 Cl
ATOM     16  C   UNL d   1      57.003  -0.072  33.202  0.00  0.00     0.013 A 
ATOM     17  C   UNL d   1      56.378  -0.616  33.157  0.00  0.00     0.001 A 
ATOM     18  C   UNL d   1      56.173  -0.938  32.426  0.00  0.00     0.002 A 
ATOM     19  C   UNL d   1      56.588  -0.719  31.746  0.00  0.00     0.020 A 
ENDBRANCH   2  13
TORSDOF 3
ENDMDL
MODEL 4
REMARK VINA RESULT:      -3.3      2.098      4.097
REMARK  3 active torsions:
REMARK  status: ('A' for Active; 'I' for Inactive)
REMARK       I    between atoms: N_2  and  C_1 
REMARK    1  A    between atoms: C_3  and  C_1 
REMARK    2  A    between atoms: C_6  and  N_2 
REMARK    3  A    between atoms: C_5  and  C_4 
ROOT
ATOM      1  C   UNL d   1      57.982  -0.572  30.561  0.00  0.00     0.279 C 
ATOM      2  N   UNL d   1      57.422  -0.916  31.066  0.00  0.00    -0.207 NA
ATOM      3  O   UNL d   1      58.247   0.195  30.705  0.00  0.00    -0.265 OA
ENDROOT
BRANCH   1   4
ATOM      4  C   UNL d   1      58.273  -1.000  29.918  0.00  0.00     0.064 A 
ATOM      5  C   UNL d   1      58.512  -0.604  29.240  0.00  0.00     0.069 A 
ATOM      6  C   UNL d   1      58.805  -1.023  28.587  0.00  0.00     0.006 A 
ATOM      7  C   UNL d   1      58.851  -1.846  28.634  0.00  0.00     0.000 A 
ATOM      8  C   UNL d   1      58.611  -2.241  29.312  0.00  0.00     0.000 A 
ATOM      9  C   UNL d   1      58.322  -1.820  29.953  0.00  0.00     0.005 A 
BRANCH   5  10
ATOM     10  C   UNL d   1      58.463   0.222  29.202  0.00  0.00     0.211 C 
ATOM     11  O   UNL d   1      57.763   0.585  28.948  0.00  0.00    -0.644 OA
ATOM     12  O   UNL d   1      59.114   0.682  29.419  0.00  0.00    -0.644 OA
ENDBRANCH   5  10
ENDBRANCH   1   4
BRANCH   2  13
ATOM     13  C   UNL d   1      57.128  -0.492  31.711  0.00  0.00     0.095 A 
ATOM     14  C   UNL d   1      56.540  -0.816  32.184  0.00  0.00     0.075 A 
ATOM     15 CL   UNL d   1      56.242  -1.565  32.014  0.00  0.00    -0.081 Cl
ATOM     16  C   UNL d   1      56.249  -0.395  32.824  0.00  0.00     0.013 A 
ATOM     17  C   UNL d   1      56.548   0.360  32.997  0.00  0.00     0.001 A 
ATOM     18  C   UNL d   1      57.139   0.682  32.520  0.00  0.00     0.002 A 
ATOM     19  C   UNL d   1      57.429   0.254  31.875  0.00  0.00     0.020 A 
ENDBRANCH   2  13
TORSDOF 3
ENDMDL
MODEL 5
REMARK VINA RESULT:      -2.6      3.273      4.474
REMARK  3 active torsions:
REMARK  status: ('A' for Active; 'I' for Inactive)
REMARK       I    between atoms: N_2  and  C_1 
REMARK    1  A    between atoms: C_3  and  C_1 
REMARK    2  A    between atoms: C_6  and  N_2 
REMARK    3  A    between atoms: C_5  and  C_4 
ROOT
ATOM      1  C   UNL d   1      58.954  -1.165  29.780  0.00  0.00     0.279 C 
ATOM      2  N   UNL d   1      58.714  -1.941  29.615  0.00  0.00    -0.207 NA
ATOM      3  O   UNL d   1      59.720  -0.925  29.596  0.00  0.00    -0.265 OA
ENDROOT
BRANCH   1   4
ATOM      4  C   UNL d   1      58.422  -0.637  30.127  0.00  0.00     0.064 A 
ATOM      5  C   UNL d   1      58.380   0.137  29.854  0.00  0.00     0.069 A 
ATOM      6  C   UNL d   1      57.850   0.677  30.194  0.00  0.00     0.006 A 
ATOM      7  C   UNL d   1      57.368   0.419  30.812  0.00  0.00     0.000 A 
ATOM      8  C   UNL d   1      57.411  -0.354  31.085  0.00  0.00     0.000 A 
ATOM      9  C   UNL d   1      57.936  -0.881  30.743  0.00  0.00     0.005 A 
BRANCH   5  10
ATOM     10  C   UNL d   1      58.868   0.385  29.233  0.00  0.00     0.211 C 
ATOM     11  O   UNL d   1      59.648   0.621  29.386  0.00  0.00    -0.644 OA
ATOM     12  O   UNL d   1      58.576   0.397  28.460  0.00  0.00    -0.644 OA
ENDBRANCH   5  10
ENDBRANCH   1   4
BRANCH   2  13
ATOM     13  C   UNL d   1      59.242  -2.474  29.268  0.00  0.00     0.095 A 
ATOM     14  C   UNL d   1      58.959  -3.098  28.816  0.00  0.00     0.075 A 
ATOM     15 CL   UNL d   1      58.148  -3.194  28.707  0.00  0.00    -0.081 Cl
ATOM     16  C   UNL d   1      59.483  -3.626  28.472  0.00  0.00     0.013 A 
ATOM     17  C   UNL d   1      60.301  -3.533  28.579  0.00  0.00     0.001 A 
ATOM     18  C   UNL d   1      60.581  -2.904  29.034  0.00  0.00     0.002 A 
ATOM     19  C   UNL d   1      60.049  -2.374  29.379  0.00  0.00     0.020 A 
ENDBRANCH   2  13
TORSDOF 3
ENDMDL
