MODEL 1
REMARK VINA RESULT:      63.4      0.000      0.000
REMARK  3 active torsions:
REMARK  status: ('A' for Active; 'I' for Inactive)
REMARK    1  A    between atoms: C_7  and  C_1 
REMARK    2  A    between atoms: C_10  and  C_7 
REMARK    3  A    between atoms: N_8  and  C_9 
ROOT
ATOM      1  C   UNL d   1      60.893  48.653  50.751  0.00  0.00     0.129 A 
ATOM      2  C   UNL d   1      60.089  48.681  50.923  0.00  0.00     0.024 A 
ATOM      3  C   UNL d   1      61.276  47.930  50.701  0.00  0.00     0.050 A 
ATOM      4  C   UNL d   1      60.860  47.226  50.822  0.00  0.00     0.121 A 
ATOM      5  C   UNL d   1      60.054  47.247  50.994  0.00  0.00     0.119 A 
ATOM      6  C   UNL d   1      59.665  47.982  51.046  0.00  0.00     0.028 A 
ATOM      7  O   UNL d   1      61.091  46.433  50.807  0.00  0.00    -0.299 OA
ATOM      8  O   UNL d   1      59.787  46.479  51.086  0.00  0.00    -0.300 OA
ATOM      9  C   UNL d   1      60.428  45.972  50.970  0.00  0.00     0.304 A 
ENDROOT
BRANCH   2  10
ATOM     10  C   UNL d   1      59.710  49.407  50.973  0.00  0.00     0.011 C 
BRANCH  10  11
ATOM     11  C   UNL d   1      58.922  49.477  50.713  0.00  0.00     0.116 A 
ATOM     12  C   UNL d   1      58.760  49.558  49.905  0.00  0.00     0.288 A 
ATOM     13  N   UNL d   1      57.987  49.627  49.645  0.00  0.00    -0.152 NA
ATOM     14  O   UNL d   1      59.387  49.568  49.359  0.00  0.00    -0.265 OA
ATOM     15  C   UNL d   1      57.373  49.617  50.188  0.00  0.00     0.374 A 
ATOM     16  N   UNL d   1      57.535  49.536  50.996  0.00  0.00    -0.152 NA
ATOM     17  O   UNL d   1      56.587  49.687  49.932  0.00  0.00    -0.242 OA
ATOM     18  C   UNL d   1      58.310  49.467  51.255  0.00  0.00     0.288 A 
ATOM     19  O   UNL d   1      58.471  49.387  52.060  0.00  0.00    -0.265 OA
ENDBRANCH  10  11
ENDBRANCH   2  10
BRANCH   1  20
ATOM     20  N   UNL d   1      61.310  49.348  50.631  0.00  0.00    -0.114 N 
ATOM     21  O   UNL d   1      61.713  49.704  51.259  0.00  0.00    -0.532 OA
ATOM     22  O   UNL d   1      61.328  49.693  49.887  0.00  0.00    -0.532 OA
ENDBRANCH   1  20
TORSDOF 3
ENDMDL
MODEL 2
REMARK VINA RESULT:      64.7      1.468      3.589
REMARK  3 active torsions:
REMARK  status: ('A' for Active; 'I' for Inactive)
REMARK    1  A    between atoms: C_7  and  C_1 
REMARK    2  A    between atoms: C_10  and  C_7 
REMARK    3  A    between atoms: N_8  and  C_9 
ROOT
ATOM      1  C   UNL d   1      57.784  49.298  51.554  0.00  0.00     0.129 A 
ATOM      2  C   UNL d   1      58.383  49.571  51.059  0.00  0.00     0.024 A 
ATOM      3  C   UNL d   1      57.034  49.162  51.253  0.00  0.00     0.050 A 
ATOM      4  C   UNL d   1      56.873  49.296  50.453  0.00  0.00     0.121 A 
ATOM      5  C   UNL d   1      57.467  49.568  49.953  0.00  0.00     0.119 A 
ATOM      6  C   UNL d   1      58.230  49.707  50.258  0.00  0.00     0.028 A 
ATOM      7  O   UNL d   1      56.186  49.210  50.003  0.00  0.00    -0.299 OA
ATOM      8  O   UNL d   1      57.157  49.651  49.200  0.00  0.00    -0.300 OA
ATOM      9  C   UNL d   1      56.362  49.429  49.228  0.00  0.00     0.304 A 
ENDROOT
BRANCH   2  10
ATOM     10  C   UNL d   1      59.131  49.706  51.365  0.00  0.00     0.011 C 
BRANCH  10  11
ATOM     11  C   UNL d   1      59.791  49.341  51.011  0.00  0.00     0.116 A 
ATOM     12  C   UNL d   1      59.868  49.337  50.186  0.00  0.00     0.288 A 
ATOM     13  N   UNL d   1      60.515  48.980  49.836  0.00  0.00    -0.152 NA
ATOM     14  O   UNL d   1      59.285  49.698  49.718  0.00  0.00    -0.265 OA
ATOM     15  C   UNL d   1      61.087  48.625  50.303  0.00  0.00     0.374 A 
ATOM     16  N   UNL d   1      61.011  48.629  51.128  0.00  0.00    -0.152 NA
ATOM     17  O   UNL d   1      61.746  48.261  49.953  0.00  0.00    -0.242 OA
ATOM     18  C   UNL d   1      60.362  48.987  51.478  0.00  0.00     0.288 A 
ATOM     19  O   UNL d   1      60.286  48.991  52.299  0.00  0.00    -0.265 OA
ENDBRANCH  10  11
ENDBRANCH   2  10
BRANCH   1  20
ATOM     20  N   UNL d   1      57.940  49.164  52.348  0.00  0.00    -0.114 N 
ATOM     21  O   UNL d   1      58.371  48.499  52.579  0.00  0.00    -0.532 OA
ATOM     22  O   UNL d   1      57.667  49.690  52.915  0.00  0.00    -0.532 OA
ENDBRANCH   1  20
TORSDOF 3
ENDMDL
