MODEL 1
REMARK VINA RESULT:      71.3      0.000      0.000
REMARK  7 active torsions:
REMARK  status: ('A' for Active; 'I' for Inactive)
REMARK    1  A    between atoms: C_10  and  N_1 
REMARK    2  A    between atoms: S_12  and  C_2 
REMARK    3  A    between atoms: S_3  and  N_11 
REMARK    4  A    between atoms: C_7  and  S_3 
REMARK    5  A    between atoms: N_11  and  C_15 
REMARK    6  A    between atoms: C_19  and  S_12 
REMARK    7  A    between atoms: C_15  and  C_19 
ROOT
ATOM      1  C   UNL d   1      58.966  49.224  50.174  0.00  0.00     0.060 C 
ENDROOT
BRANCH   1   2
ATOM      2  C   UNL d   1      59.523  49.336  50.751  0.00  0.00     0.119 C 
BRANCH   2   3
ATOM      3  N   UNL d   1      60.322  49.151  50.614  0.00  0.00    -0.156 NA
BRANCH   3   4
ATOM      4  S   UNL d   1      60.870  49.205  51.229  0.00  0.00     0.285 S 
ATOM      5  O   UNL d   1      60.316  49.664  51.692  0.00  0.00    -0.198 OA
ATOM      6  O   UNL d   1      61.426  48.761  50.798  0.00  0.00    -0.198 OA
BRANCH   4   7
ATOM      7  C   UNL d   1      61.417  49.270  51.868  0.00  0.00     0.105 A 
ATOM      8  C   UNL d   1      61.122  49.388  52.617  0.00  0.00     0.013 A 
ATOM      9  C   UNL d   1      61.639  49.453  53.243  0.00  0.00     0.001 A 
ATOM     10  C   UNL d   1      62.459  49.399  53.116  0.00  0.00     0.000 A 
ATOM     11  C   UNL d   1      62.736  49.282  52.362  0.00  0.00     0.001 A 
ATOM     12  C   UNL d   1      62.990  49.467  53.763  0.00  0.00     0.000 C 
ATOM     13  C   UNL d   1      62.238  49.217  51.741  0.00  0.00     0.013 A 
ENDBRANCH   4   7
ENDBRANCH   3   4
ENDBRANCH   2   3
ENDBRANCH   1   2
BRANCH   1  14
ATOM     14  S   UNL d   1      58.210  49.037  50.357  0.00  0.00    -0.045 SA
BRANCH  14  15
ATOM     15  C   UNL d   1      57.592  49.236  49.855  0.00  0.00     0.219 A 
ATOM     16  N   UNL d   1      56.836  49.240  50.137  0.00  0.00    -0.186 N 
ATOM     17  N   UNL d   1      56.329  49.458  49.520  0.00  0.00    -0.038 NA
ATOM     18  N   UNL d   1      56.798  49.584  48.868  0.00  0.00    -0.022 NA
ATOM     19  N   UNL d   1      57.557  49.453  49.060  0.00  0.00    -0.101 NA
BRANCH  16  20
ATOM     20  C   UNL d   1      56.613  49.056  50.908  0.00  0.00     0.087 A 
ATOM     21  C   UNL d   1      56.390  49.644  51.435  0.00  0.00     0.019 A 
ATOM     22  C   UNL d   1      56.165  49.453  52.214  0.00  0.00     0.002 A 
ATOM     23  C   UNL d   1      56.164  48.668  52.467  0.00  0.00     0.000 A 
ATOM     24  C   UNL d   1      56.390  48.078  51.930  0.00  0.00     0.002 A 
ATOM     25  C   UNL d   1      56.614  48.269  51.153  0.00  0.00     0.019 A 
ENDBRANCH  16  20
ENDBRANCH  14  15
ENDBRANCH   1  14
TORSDOF 7
ENDMDL
