MODEL 1
REMARK VINA RESULT:      -0.7      0.000      0.000
REMARK  7 active torsions:
REMARK  status: ('A' for Active; 'I' for Inactive)
REMARK    1  A    between atoms: C_2  and  S_1 
REMARK    2  A    between atoms: N_5  and  S_1 
REMARK    3  A    between atoms: C_3  and  C_7 
REMARK       I    between atoms: N_8  and  C_3 
REMARK    4  A    between atoms: C_16  and  N_5 
REMARK    5  A    between atoms: C_21  and  N_8 
REMARK    6  A    between atoms: C_15  and  C_16 
REMARK    7  A    between atoms: C_30  and  C_23 
ROOT
ATOM      1  C   UNL d   1     -42.267-122.424 -50.760  0.00  0.00     0.133 A 
ATOM      2  C   UNL d   1     -42.774-123.009 -50.512  0.00  0.00     0.020 A 
ATOM      3  C   UNL d   1     -43.233-122.894 -49.836  0.00  0.00     0.059 A 
ATOM      4  C   UNL d   1     -42.209-121.717 -50.339  0.00  0.00     0.152 A 
ATOM      5  C   UNL d   1     -43.175-122.187 -49.415  0.00  0.00     0.007 A 
ATOM      6  C   UNL d   1     -42.658-121.600 -49.674  0.00  0.00     0.030 A 
ATOM      7  F   UNL d   1     -41.680-121.113 -50.601  0.00  0.00    -0.203 F 
ENDROOT
BRANCH   1   8
ATOM      8  S   UNL d   1     -41.799-122.550 -51.457  0.00  0.00     0.288 S 
ATOM      9  O   UNL d   1     -42.249-121.986 -51.855  0.00  0.00    -0.198 OA
ATOM     10  O   UNL d   1     -41.354-123.120 -51.032  0.00  0.00    -0.198 OA
BRANCH   8  11
ATOM     11  N   UNL d   1     -41.340-122.685 -52.112  0.00  0.00    -0.155 NA
BRANCH  11  12
ATOM     12  C   UNL d   1     -41.495-123.321 -52.617  0.00  0.00     0.139 C 
BRANCH  12  13
ATOM     13  C   UNL d   1     -41.692-123.168 -53.412  0.00  0.00     0.145 A 
ATOM     14  O   UNL d   1     -41.617-122.414 -53.729  0.00  0.00    -0.301 OA
ATOM     15  C   UNL d   1     -41.816-122.275 -54.519  0.00  0.00     0.123 A 
ATOM     16  C   UNL d   1     -41.740-121.515 -54.838  0.00  0.00     0.027 A 
ATOM     17  C   UNL d   1     -42.090-122.895 -54.989  0.00  0.00     0.123 A 
ATOM     18  C   UNL d   1     -41.938-121.377 -55.626  0.00  0.00     0.002 A 
ATOM     19  C   UNL d   1     -42.212-121.997 -56.099  0.00  0.00     0.002 A 
ATOM     20  C   UNL d   1     -42.288-122.756 -55.780  0.00  0.00     0.027 A 
ATOM     21  O   UNL d   1     -42.165-123.649 -54.673  0.00  0.00    -0.301 OA
ATOM     22  C   UNL d   1     -41.966-123.785 -53.886  0.00  0.00     0.149 A 
ENDBRANCH  12  13
ENDBRANCH  11  12
ENDBRANCH   8  11
ENDBRANCH   1   8
BRANCH   3  23
ATOM     23  C   UNL d   1     -43.756-123.487 -49.573  0.00  0.00     0.279 C 
ATOM     24  N   UNL d   1     -43.674-123.816 -48.820  0.00  0.00    -0.208 NA
ATOM     25  O   UNL d   1     -44.357-123.744 -50.067  0.00  0.00    -0.265 OA
BRANCH  24  26
ATOM     26  C   UNL d   1     -43.069-123.558 -48.323  0.00  0.00     0.085 A 
ATOM     27  C   UNL d   1     -42.291-123.605 -48.580  0.00  0.00     0.019 A 
ATOM     28  C   UNL d   1     -41.681-123.344 -48.078  0.00  0.00     0.002 A 
ATOM     29  C   UNL d   1     -41.862-123.042 -47.330  0.00  0.00     0.000 A 
ATOM     30  C   UNL d   1     -42.642-123.001 -47.088  0.00  0.00     0.002 A 
ATOM     31  C   UNL d   1     -43.253-123.262 -47.590  0.00  0.00     0.019 A 
BRANCH  29  32
ATOM     32  C   UNL d   1     -41.264-122.784 -46.833  0.00  0.00     0.000 C 
ATOM     33  C   UNL d   1     -41.123-121.976 -46.742  0.00  0.00     0.000 C 
ENDBRANCH  29  32
ENDBRANCH  24  26
ENDBRANCH   3  23
TORSDOF 7
ENDMDL
