MODEL 1
REMARK VINA RESULT:       0.9      0.000      0.000
REMARK  6 active torsions:
REMARK  status: ('A' for Active; 'I' for Inactive)
REMARK       I    between atoms: C_2  and  N_1 
REMARK    1  A    between atoms: C_8  and  C_2 
REMARK    2  A    between atoms: C_11  and  C_3 
REMARK       I    between atoms: C_4  and  N_6 
REMARK    3  A    between atoms: C_5  and  C_4 
REMARK       I    between atoms: N_7  and  C_5 
REMARK    4  A    between atoms: N_6  and  C_11 
REMARK    5  A    between atoms: C_17  and  N_7 
REMARK    6  A    between atoms: C_20  and  C_17 
ROOT
ATOM      1  C   UNL d   1     -41.650-122.247 -52.412  0.00  0.00     0.146 C 
ENDROOT
BRANCH   1   2
ATOM      2  N   UNL d   1     -42.422-122.030 -52.222  0.00  0.00    -0.199 NA
ATOM      3  C   UNL d   1     -42.618-121.861 -51.443  0.00  0.00     0.337 C 
ATOM      4  O   UNL d   1     -43.391-121.644 -51.253  0.00  0.00    -0.260 OA
BRANCH   3   5
ATOM      5  C   UNL d   1     -42.048-121.905 -50.845  0.00  0.00     0.337 C 
ATOM      6  N   UNL d   1     -42.141-122.423 -50.225  0.00  0.00    -0.202 NA
ATOM      7  O   UNL d   1     -41.383-121.420 -50.882  0.00  0.00    -0.260 OA
BRANCH   6   8
ATOM      8  C   UNL d   1     -41.571-122.466 -49.627  0.00  0.00     0.102 C 
BRANCH   8   9
ATOM      9  C   UNL d   1     -41.752-122.802 -48.900  0.00  0.00     0.019 A 
ATOM     10  C   UNL d   1     -42.479-123.149 -48.762  0.00  0.00     0.002 A 
ATOM     11  C   UNL d   1     -42.669-123.484 -48.044  0.00  0.00     0.011 A 
ATOM     12  C   UNL d   1     -42.102-123.474 -47.429  0.00  0.00     0.058 A 
ATOM     13  C   UNL d   1     -41.366-123.129 -47.552  0.00  0.00     0.011 A 
ATOM     14 CL   UNL d   1     -42.289-123.816 -46.691  0.00  0.00    -0.082 Cl
ATOM     15  C   UNL d   1     -41.185-122.791 -48.284  0.00  0.00     0.002 A 
ENDBRANCH   8   9
ENDBRANCH   6   8
ENDBRANCH   3   5
ENDBRANCH   1   2
BRANCH   1  16
ATOM     16  C   UNL d   1     -41.507-122.752 -53.045  0.00  0.00     0.190 A 
ATOM     17  N   UNL d   1     -41.683-122.592 -53.834  0.00  0.00    -0.250 N 
ATOM     18  C   UNL d   1     -42.031-121.901 -54.131  0.00  0.00     0.266 C 
ATOM     19  C   UNL d   1     -41.447-123.248 -54.274  0.00  0.00     0.112 A 
ATOM     20  O   UNL d   1     -42.238-121.289 -53.623  0.00  0.00    -0.267 OA
ATOM     21  C   UNL d   1     -41.126-123.816 -53.763  0.00  0.00     0.144 A 
ATOM     22  O   UNL d   1     -41.163-123.509 -53.002  0.00  0.00    -0.285 OA
BRANCH  18  23
ATOM     23  C   UNL d   1     -42.174-121.825 -54.954  0.00  0.00     0.057 A 
ATOM     24  C   UNL d   1     -41.573-121.584 -55.454  0.00  0.00     0.006 A 
ATOM     25  C   UNL d   1     -41.715-121.510 -56.265  0.00  0.00     0.012 A 
ATOM     26  C   UNL d   1     -42.461-121.678 -56.568  0.00  0.00     0.058 A 
ATOM     27  C   UNL d   1     -43.068-121.921 -56.060  0.00  0.00     0.012 A 
ATOM     28 CL   UNL d   1     -42.602-121.601 -57.388  0.00  0.00    -0.082 Cl
ATOM     29  C   UNL d   1     -42.921-121.993 -55.262  0.00  0.00     0.006 A 
ENDBRANCH  18  23
ENDBRANCH   1  16
TORSDOF 6
ENDMDL
MODEL 2
REMARK VINA RESULT:       1.7      0.745      6.275
REMARK  6 active torsions:
REMARK  status: ('A' for Active; 'I' for Inactive)
REMARK       I    between atoms: C_2  and  N_1 
REMARK    1  A    between atoms: C_8  and  C_2 
REMARK    2  A    between atoms: C_11  and  C_3 
REMARK       I    between atoms: C_4  and  N_6 
REMARK    3  A    between atoms: C_5  and  C_4 
REMARK       I    between atoms: N_7  and  C_5 
REMARK    4  A    between atoms: N_6  and  C_11 
REMARK    5  A    between atoms: C_17  and  N_7 
REMARK    6  A    between atoms: C_20  and  C_17 
ROOT
ATOM      1  C   UNL d   1     -41.942-122.273 -51.529  0.00  0.00     0.146 C 
ENDROOT
BRANCH   1   2
ATOM      2  N   UNL d   1     -41.680-123.006 -51.798  0.00  0.00    -0.199 NA
ATOM      3  C   UNL d   1     -41.386-123.080 -52.560  0.00  0.00     0.337 C 
ATOM      4  O   UNL d   1     -41.123-123.814 -52.830  0.00  0.00    -0.260 OA
BRANCH   3   5
ATOM      5  C   UNL d   1     -41.350-122.424 -53.064  0.00  0.00     0.337 C 
ATOM      6  N   UNL d   1     -41.536-122.500 -53.852  0.00  0.00    -0.202 NA
ATOM      7  O   UNL d   1     -41.124-121.691 -52.761  0.00  0.00    -0.260 OA
BRANCH   6   8
ATOM      8  C   UNL d   1     -41.501-121.844 -54.355  0.00  0.00     0.102 C 
BRANCH   8   9
ATOM      9  C   UNL d   1     -41.923-121.833 -55.059  0.00  0.00     0.019 A 
ATOM     10  C   UNL d   1     -41.548-121.729 -55.778  0.00  0.00     0.002 A 
ATOM     11  C   UNL d   1     -41.957-121.717 -56.482  0.00  0.00     0.011 A 
ATOM     12  C   UNL d   1     -42.789-121.813 -56.470  0.00  0.00     0.058 A 
ATOM     13  C   UNL d   1     -43.181-121.919 -55.754  0.00  0.00     0.011 A 
ATOM     14 CL   UNL d   1     -43.215-121.802 -57.186  0.00  0.00    -0.082 Cl
ATOM     15  C   UNL d   1     -42.754-121.930 -55.047  0.00  0.00     0.002 A 
ENDBRANCH   8   9
ENDBRANCH   6   8
ENDBRANCH   3   5
ENDBRANCH   1   2
BRANCH   1  16
ATOM     16  C   UNL d   1     -42.583-122.228 -51.015  0.00  0.00     0.190 A 
ATOM     17  N   UNL d   1     -42.593-122.494 -50.236  0.00  0.00    -0.250 N 
ATOM     18  C   UNL d   1     -41.965-122.852 -49.830  0.00  0.00     0.266 C 
ATOM     19  C   UNL d   1     -43.343-122.338 -49.934  0.00  0.00     0.112 A 
ATOM     20  O   UNL d   1     -41.244-122.973 -50.205  0.00  0.00    -0.267 OA
ATOM     21  C   UNL d   1     -43.803-121.976 -50.521  0.00  0.00     0.144 A 
ATOM     22  O   UNL d   1     -43.332-121.907 -51.192  0.00  0.00    -0.285 OA
BRANCH  18  23
ATOM     23  C   UNL d   1     -42.065-123.093 -49.033  0.00  0.00     0.057 A 
ATOM     24  C   UNL d   1     -41.482-122.935 -48.481  0.00  0.00     0.006 A 
ATOM     25  C   UNL d   1     -41.582-123.173 -47.696  0.00  0.00     0.012 A 
ATOM     26  C   UNL d   1     -42.267-123.568 -47.471  0.00  0.00     0.058 A 
ATOM     27  C   UNL d   1     -42.856-123.727 -48.031  0.00  0.00     0.012 A 
ATOM     28 CL   UNL d   1     -42.366-123.808 -46.676  0.00  0.00    -0.082 Cl
ATOM     29  C   UNL d   1     -42.751-123.490 -48.804  0.00  0.00     0.006 A 
ENDBRANCH  18  23
ENDBRANCH   1  16
TORSDOF 6
ENDMDL
