MODEL 1
REMARK VINA RESULT:      -8.0      0.000      0.000
REMARK  2 active torsions:
REMARK  status: ('A' for Active; 'I' for Inactive)
REMARK    1  A    between atoms: N_5  and  C_1 
REMARK       I    between atoms: C_4  and  N_5 
REMARK    2  A    between atoms: C_7  and  C_4 
ROOT
ATOM      1  C   UNL d   1     -49.537  12.377  23.018  0.00  0.00     0.060 A 
ATOM      2  C   UNL d   1     -49.950  13.750  23.211  0.00  0.00     0.123 A 
ATOM      3  C   UNL d   1     -49.664  13.036  23.507  0.00  0.00     0.032 A 
ATOM      4  C   UNL d   1     -50.118  13.820  22.398  0.00  0.00     0.123 A 
ATOM      5  O   UNL d   1     -50.072  14.393  23.697  0.00  0.00    -0.301 OA
ATOM      6  O   UNL d   1     -50.400  14.517  22.090  0.00  0.00    -0.301 OA
ATOM      7  C   UNL d   1     -49.704  12.446  22.214  0.00  0.00     0.007 A 
ATOM      8  C   UNL d   1     -49.996  13.174  21.903  0.00  0.00     0.027 A 
ATOM      9  C   UNL d   1     -50.357  15.112  23.413  0.00  0.00     0.149 A 
ATOM     10  C   UNL d   1     -50.527  15.186  22.598  0.00  0.00     0.149 A 
ENDROOT
BRANCH   1  11
ATOM     11  C   UNL d   1     -49.254  11.676  23.325  0.00  0.00     0.281 C 
ATOM     12  N   UNL d   1     -48.435  11.548  23.286  0.00  0.00    -0.187 NA
ATOM     13  O   UNL d   1     -49.728  11.039  23.694  0.00  0.00    -0.265 OA
BRANCH  12  14
ATOM     14  C   UNL d   1     -47.935  12.138  22.937  0.00  0.00     0.194 A 
ATOM     15  N   UNL d   1     -47.890  12.335  22.135  0.00  0.00    -0.107 NA
ATOM     16  O   UNL d   1     -47.331  12.938  22.044  0.00  0.00    -0.210 OA
ATOM     17  C   UNL d   1     -47.022  13.122  22.798  0.00  0.00     0.128 A 
ATOM     18  C   UNL d   1     -47.405  12.617  23.346  0.00  0.00     0.068 A 
ATOM     19  C   UNL d   1     -46.451  13.691  22.958  0.00  0.00     0.029 C 
ENDBRANCH  12  14
ENDBRANCH   1  11
TORSDOF 2
ENDMDL
MODEL 2
REMARK VINA RESULT:      -8.0      1.075      2.804
REMARK  2 active torsions:
REMARK  status: ('A' for Active; 'I' for Inactive)
REMARK    1  A    between atoms: N_5  and  C_1 
REMARK       I    between atoms: C_4  and  N_5 
REMARK    2  A    between atoms: C_7  and  C_4 
ROOT
ATOM      1  C   UNL d   1     -49.187  12.141  23.024  0.00  0.00     0.060 A 
ATOM      2  C   UNL d   1     -47.859  12.706  23.124  0.00  0.00     0.123 A 
ATOM      3  C   UNL d   1     -48.541  12.406  23.475  0.00  0.00     0.032 A 
ATOM      4  C   UNL d   1     -47.808  12.748  22.294  0.00  0.00     0.123 A 
ATOM      5  O   UNL d   1     -47.230  12.964  23.573  0.00  0.00    -0.301 OA
ATOM      6  O   UNL d   1     -47.141  13.042  21.933  0.00  0.00    -0.301 OA
ATOM      7  C   UNL d   1     -49.136  12.183  22.203  0.00  0.00     0.007 A 
ATOM      8  C   UNL d   1     -48.441  12.489  21.837  0.00  0.00     0.027 A 
ATOM      9  C   UNL d   1     -46.541  13.266  23.235  0.00  0.00     0.149 A 
ATOM     10  C   UNL d   1     -46.486  13.310  22.403  0.00  0.00     0.149 A 
ENDROOT
BRANCH   1  11
ATOM     11  C   UNL d   1     -49.857  11.846  23.384  0.00  0.00     0.281 C 
ATOM     12  N   UNL d   1     -50.495  12.367  23.485  0.00  0.00    -0.187 NA
ATOM     13  O   UNL d   1     -49.974  11.030  23.679  0.00  0.00    -0.265 OA
BRANCH  12  14
ATOM     14  C   UNL d   1     -50.427  13.169  23.214  0.00  0.00     0.194 A 
ATOM     15  N   UNL d   1     -50.440  13.428  22.430  0.00  0.00    -0.107 NA
ATOM     16  O   UNL d   1     -50.357  14.251  22.424  0.00  0.00    -0.210 OA
ATOM     17  C   UNL d   1     -50.292  14.511  23.214  0.00  0.00     0.128 A 
ATOM     18  C   UNL d   1     -50.337  13.829  23.698  0.00  0.00     0.068 A 
ATOM     19  C   UNL d   1     -50.201  15.291  23.459  0.00  0.00     0.029 C 
ENDBRANCH  12  14
ENDBRANCH   1  11
TORSDOF 2
ENDMDL
MODEL 3
REMARK VINA RESULT:      -7.9      1.274      1.418
REMARK  2 active torsions:
REMARK  status: ('A' for Active; 'I' for Inactive)
REMARK    1  A    between atoms: N_5  and  C_1 
REMARK       I    between atoms: C_4  and  N_5 
REMARK    2  A    between atoms: C_7  and  C_4 
ROOT
ATOM      1  C   UNL d   1     -48.222  12.378  22.995  0.00  0.00     0.060 A 
ATOM      2  C   UNL d   1     -48.815  13.697  22.981  0.00  0.00     0.123 A 
ATOM      3  C   UNL d   1     -48.535  13.039  23.389  0.00  0.00     0.032 A 
ATOM      4  C   UNL d   1     -48.788  13.707  22.148  0.00  0.00     0.123 A 
ATOM      5  O   UNL d   1     -49.120  14.342  23.374  0.00  0.00    -0.301 OA
ATOM      6  O   UNL d   1     -49.062  14.349  21.731  0.00  0.00    -0.301 OA
ATOM      7  C   UNL d   1     -48.196  12.387  22.171  0.00  0.00     0.007 A 
ATOM      8  C   UNL d   1     -48.481  13.058  21.746  0.00  0.00     0.027 A 
ATOM      9  C   UNL d   1     -49.405  15.007  22.978  0.00  0.00     0.149 A 
ATOM     10  C   UNL d   1     -49.379  15.020  22.143  0.00  0.00     0.149 A 
ENDROOT
BRANCH   1  11
ATOM     11  C   UNL d   1     -47.948  11.733  23.412  0.00  0.00     0.281 C 
ATOM     12  N   UNL d   1     -47.138  11.713  23.592  0.00  0.00    -0.187 NA
ATOM     13  O   UNL d   1     -48.422  11.052  23.692  0.00  0.00    -0.265 OA
BRANCH  12  14
ATOM     14  C   UNL d   1     -46.638  12.351  23.340  0.00  0.00     0.194 A 
ATOM     15  N   UNL d   1     -46.566  13.093  23.698  0.00  0.00    -0.107 NA
ATOM     16  O   UNL d   1     -46.018  13.539  23.269  0.00  0.00    -0.210 OA
ATOM     17  C   UNL d   1     -45.742  13.073  22.635  0.00  0.00     0.128 A 
ATOM     18  C   UNL d   1     -46.134  12.335  22.689  0.00  0.00     0.068 A 
ATOM     19  C   UNL d   1     -45.190  13.304  22.071  0.00  0.00     0.029 C 
ENDBRANCH  12  14
ENDBRANCH   1  11
TORSDOF 2
ENDMDL
MODEL 4
REMARK VINA RESULT:      -7.7      1.434      3.218
REMARK  2 active torsions:
REMARK  status: ('A' for Active; 'I' for Inactive)
REMARK    1  A    between atoms: N_5  and  C_1 
REMARK       I    between atoms: C_4  and  N_5 
REMARK    2  A    between atoms: C_7  and  C_4 
ROOT
ATOM      1  C   UNL d   1     -49.074  14.259  22.239  0.00  0.00     0.060 A 
ATOM      2  C   UNL d   1     -47.811  13.835  22.801  0.00  0.00     0.123 A 
ATOM      3  C   UNL d   1     -48.524  14.245  22.861  0.00  0.00     0.032 A 
ATOM      4  C   UNL d   1     -47.632  13.422  22.101  0.00  0.00     0.123 A 
ATOM      5  O   UNL d   1     -47.275  13.826  23.415  0.00  0.00    -0.301 OA
ATOM      6  O   UNL d   1     -46.933  13.013  22.028  0.00  0.00    -0.301 OA
ATOM      7  C   UNL d   1     -48.897  13.849  21.547  0.00  0.00     0.007 A 
ATOM      8  C   UNL d   1     -48.169  13.428  21.479  0.00  0.00     0.027 A 
ATOM      9  C   UNL d   1     -46.559  13.421  23.370  0.00  0.00     0.149 A 
ATOM     10  C   UNL d   1     -46.375  13.004  22.669  0.00  0.00     0.149 A 
ENDROOT
BRANCH   1  11
ATOM     11  C   UNL d   1     -49.777  14.668  22.311  0.00  0.00     0.281 C 
ATOM     12  N   UNL d   1     -50.458  14.227  22.485  0.00  0.00    -0.187 NA
ATOM     13  O   UNL d   1     -49.888  15.532  22.223  0.00  0.00    -0.265 OA
BRANCH  12  14
ATOM     14  C   UNL d   1     -50.399  13.386  22.579  0.00  0.00     0.194 A 
ATOM     15  N   UNL d   1     -50.299  12.827  21.977  0.00  0.00    -0.107 NA
ATOM     16  O   UNL d   1     -50.270  12.076  22.320  0.00  0.00    -0.210 OA
ATOM     17  C   UNL d   1     -50.352  12.162  23.146  0.00  0.00     0.128 A 
ATOM     18  C   UNL d   1     -50.432  12.982  23.296  0.00  0.00     0.068 A 
ATOM     19  C   UNL d   1     -50.353  11.552  23.697  0.00  0.00     0.029 C 
ENDBRANCH  12  14
ENDBRANCH   1  11
TORSDOF 2
ENDMDL
MODEL 5
REMARK VINA RESULT:      -7.7      1.349      2.185
REMARK  2 active torsions:
REMARK  status: ('A' for Active; 'I' for Inactive)
REMARK    1  A    between atoms: N_5  and  C_1 
REMARK       I    between atoms: C_4  and  N_5 
REMARK    2  A    between atoms: C_7  and  C_4 
ROOT
ATOM      1  C   UNL d   1     -48.725  14.249  22.407  0.00  0.00     0.060 A 
ATOM      2  C   UNL d   1     -49.717  13.408  23.040  0.00  0.00     0.123 A 
ATOM      3  C   UNL d   1     -49.164  14.018  23.073  0.00  0.00     0.032 A 
ATOM      4  C   UNL d   1     -49.843  13.006  22.322  0.00  0.00     0.123 A 
ATOM      5  O   UNL d   1     -50.144  13.186  23.698  0.00  0.00    -0.301 OA
ATOM      6  O   UNL d   1     -50.385  12.402  22.273  0.00  0.00    -0.301 OA
ATOM      7  C   UNL d   1     -48.850  13.852  21.696  0.00  0.00     0.007 A 
ATOM      8  C   UNL d   1     -49.414  13.225  21.655  0.00  0.00     0.027 A 
ATOM      9  C   UNL d   1     -50.700  12.578  23.679  0.00  0.00     0.149 A 
ATOM     10  C   UNL d   1     -50.829  12.172  22.960  0.00  0.00     0.149 A 
ENDROOT
BRANCH   1  11
ATOM     11  C   UNL d   1     -48.181  14.855  22.454  0.00  0.00     0.281 C 
ATOM     12  N   UNL d   1     -47.387  14.646  22.575  0.00  0.00    -0.187 NA
ATOM     13  O   UNL d   1     -48.349  15.712  22.389  0.00  0.00    -0.265 OA
BRANCH  12  14
ATOM     14  C   UNL d   1     -47.177  13.826  22.644  0.00  0.00     0.194 A 
ATOM     15  N   UNL d   1     -47.159  13.267  22.035  0.00  0.00    -0.107 NA
ATOM     16  O   UNL d   1     -46.924  12.541  22.351  0.00  0.00    -0.210 OA
ATOM     17  C   UNL d   1     -46.792  12.644  23.169  0.00  0.00     0.128 A 
ATOM     18  C   UNL d   1     -46.953  13.448  23.340  0.00  0.00     0.068 A 
ATOM     19  C   UNL d   1     -46.551  12.061  23.696  0.00  0.00     0.029 C 
ENDBRANCH  12  14
ENDBRANCH   1  11
TORSDOF 2
ENDMDL
MODEL 6
REMARK VINA RESULT:      -7.2      1.520      3.024
REMARK  2 active torsions:
REMARK  status: ('A' for Active; 'I' for Inactive)
REMARK    1  A    between atoms: N_5  and  C_1 
REMARK       I    between atoms: C_4  and  N_5 
REMARK    2  A    between atoms: C_7  and  C_4 
ROOT
ATOM      1  C   UNL d   1     -47.948  13.625  22.460  0.00  0.00     0.060 A 
ATOM      2  C   UNL d   1     -48.813  12.623  23.041  0.00  0.00     0.123 A 
ATOM      3  C   UNL d   1     -48.233  13.203  23.116  0.00  0.00     0.032 A 
ATOM      4  C   UNL d   1     -49.126  12.448  22.289  0.00  0.00     0.123 A 
ATOM      5  O   UNL d   1     -49.088  12.212  23.690  0.00  0.00    -0.301 OA
ATOM      6  O   UNL d   1     -49.698  11.878  22.199  0.00  0.00    -0.301 OA
ATOM      7  C   UNL d   1     -48.257  13.453  21.716  0.00  0.00     0.007 A 
ATOM      8  C   UNL d   1     -48.851  12.860  21.632  0.00  0.00     0.027 A 
ATOM      9  C   UNL d   1     -49.667  11.629  23.629  0.00  0.00     0.149 A 
ATOM     10  C   UNL d   1     -49.984  11.451  22.876  0.00  0.00     0.149 A 
ENDROOT
BRANCH   1  11
ATOM     11  C   UNL d   1     -47.374  14.199  22.549  0.00  0.00     0.281 C 
ATOM     12  N   UNL d   1     -47.629  14.985  22.621  0.00  0.00    -0.187 NA
ATOM     13  O   UNL d   1     -46.508  14.069  22.575  0.00  0.00    -0.265 OA
BRANCH  12  14
ATOM     14  C   UNL d   1     -48.460  15.158  22.600  0.00  0.00     0.194 A 
ATOM     15  N   UNL d   1     -48.953  15.135  21.937  0.00  0.00    -0.107 NA
ATOM     16  O   UNL d   1     -49.717  15.344  22.172  0.00  0.00    -0.210 OA
ATOM     17  C   UNL d   1     -49.705  15.501  22.992  0.00  0.00     0.128 A 
ATOM     18  C   UNL d   1     -48.916  15.382  23.248  0.00  0.00     0.068 A 
ATOM     19  C   UNL d   1     -50.349  15.728  23.449  0.00  0.00     0.029 C 
ENDBRANCH  12  14
ENDBRANCH   1  11
TORSDOF 2
ENDMDL
MODEL 7
REMARK VINA RESULT:      -5.9      1.117      2.111
REMARK  2 active torsions:
REMARK  status: ('A' for Active; 'I' for Inactive)
REMARK    1  A    between atoms: N_5  and  C_1 
REMARK       I    between atoms: C_4  and  N_5 
REMARK    2  A    between atoms: C_7  and  C_4 
ROOT
ATOM      1  C   UNL d   1     -47.660  13.402  22.813  0.00  0.00     0.060 A 
ATOM      2  C   UNL d   1     -48.669  14.408  23.056  0.00  0.00     0.123 A 
ATOM      3  C   UNL d   1     -48.084  13.896  23.328  0.00  0.00     0.032 A 
ATOM      4  C   UNL d   1     -48.845  14.436  22.242  0.00  0.00     0.123 A 
ATOM      5  O   UNL d   1     -49.082  14.891  23.567  0.00  0.00    -0.301 OA
ATOM      6  O   UNL d   1     -49.420  14.936  21.958  0.00  0.00    -0.301 OA
ATOM      7  C   UNL d   1     -47.833  13.429  22.008  0.00  0.00     0.007 A 
ATOM      8  C   UNL d   1     -48.431  13.951  21.722  0.00  0.00     0.027 A 
ATOM      9  C   UNL d   1     -49.670  15.407  23.307  0.00  0.00     0.149 A 
ATOM     10  C   UNL d   1     -49.850  15.438  22.492  0.00  0.00     0.149 A 
ENDROOT
BRANCH   1  11
ATOM     11  C   UNL d   1     -47.082  12.899  23.097  0.00  0.00     0.281 C 
ATOM     12  N   UNL d   1     -47.304  12.116  23.254  0.00  0.00    -0.187 NA
ATOM     13  O   UNL d   1     -46.245  13.103  23.253  0.00  0.00    -0.265 OA
BRANCH  12  14
ATOM     14  C   UNL d   1     -48.106  11.872  23.118  0.00  0.00     0.194 A 
ATOM     15  N   UNL d   1     -48.447  11.683  22.389  0.00  0.00    -0.107 NA
ATOM     16  O   UNL d   1     -49.237  11.477  22.515  0.00  0.00    -0.210 OA
ATOM     17  C   UNL d   1     -49.395  11.537  23.333  0.00  0.00     0.128 A 
ATOM     18  C   UNL d   1     -48.683  11.784  23.698  0.00  0.00     0.068 A 
ATOM     19  C   UNL d   1     -50.115  11.381  23.698  0.00  0.00     0.029 C 
ENDBRANCH  12  14
ENDBRANCH   1  11
TORSDOF 2
ENDMDL
