MODEL 1
REMARK VINA RESULT:      -6.6      0.000      0.000
REMARK  4 active torsions:
REMARK  status: ('A' for Active; 'I' for Inactive)
REMARK    1  A    between atoms: C_4  and  C_1 
REMARK       I    between atoms: N_9  and  C_4 
REMARK    2  A    between atoms: C_7  and  C_13 
REMARK    3  A    between atoms: C_12  and  N_9 
REMARK    4  A    between atoms: C_13  and  C_12 
ROOT
ATOM      1  C   UNL d   1     -46.555  12.444  23.505  0.00  0.00     0.302 C 
ATOM      2  O   UNL d   1     -46.154  13.122  23.698  0.00  0.00    -0.263 OA
ATOM      3  N   UNL d   1     -47.347  12.492  23.233  0.00  0.00    -0.205 NA
ENDROOT
BRANCH   3   4
ATOM      4  C   UNL d   1     -47.700  13.226  23.168  0.00  0.00     0.102 C 
BRANCH   4   5
ATOM      5  C   UNL d   1     -48.429  13.307  22.783  0.00  0.00     0.021 C 
BRANCH   5   6
ATOM      6  C   UNL d   1     -48.828  14.024  22.798  0.00  0.00     0.002 A 
ATOM      7  C   UNL d   1     -49.441  14.143  23.351  0.00  0.00     0.000 A 
ATOM      8  C   UNL d   1     -49.848  14.859  23.376  0.00  0.00     0.000 A 
ATOM      9  C   UNL d   1     -49.654  15.468  22.851  0.00  0.00     0.000 A 
ATOM     10  C   UNL d   1     -49.052  15.350  22.308  0.00  0.00     0.000 A 
ATOM     11  C   UNL d   1     -48.641  14.628  22.284  0.00  0.00     0.000 A 
ENDBRANCH   5   6
ENDBRANCH   4   5
ENDBRANCH   3   4
BRANCH   1  12
ATOM     12  C   UNL d   1     -46.194  11.706  23.573  0.00  0.00     0.158 A 
ATOM     13  O   UNL d   1     -45.387  11.519  23.584  0.00  0.00    -0.296 OA
ATOM     14  C   UNL d   1     -45.299  10.698  23.662  0.00  0.00     0.134 A 
ATOM     15 BR   UNL d   1     -44.578  10.289  23.696  0.00  0.00    -0.022 Br
ATOM     16  C   UNL d   1     -46.059  10.378  23.698  0.00  0.00     0.034 A 
ATOM     17  C   UNL d   1     -46.605  10.986  23.644  0.00  0.00     0.032 A 
ENDBRANCH   1  12
TORSDOF 4
ENDMDL
MODEL 2
REMARK VINA RESULT:      -6.2      2.737      4.737
REMARK  4 active torsions:
REMARK  status: ('A' for Active; 'I' for Inactive)
REMARK    1  A    between atoms: C_4  and  C_1 
REMARK       I    between atoms: N_9  and  C_4 
REMARK    2  A    between atoms: C_7  and  C_13 
REMARK    3  A    between atoms: C_12  and  N_9 
REMARK    4  A    between atoms: C_13  and  C_12 
ROOT
ATOM      1  C   UNL d   1     -49.041  14.087  22.290  0.00  0.00     0.302 C 
ATOM      2  O   UNL d   1     -49.004  13.697  21.580  0.00  0.00    -0.263 OA
ATOM      3  N   UNL d   1     -48.352  14.155  22.764  0.00  0.00    -0.205 NA
ENDROOT
BRANCH   3   4
ATOM      4  C   UNL d   1     -47.654  13.824  22.498  0.00  0.00     0.102 C 
BRANCH   4   5
ATOM      5  C   UNL d   1     -46.961  13.891  22.947  0.00  0.00     0.021 C 
BRANCH   5   6
ATOM      6  C   UNL d   1     -46.317  13.408  22.790  0.00  0.00     0.002 A 
ATOM      7  C   UNL d   1     -46.287  12.642  23.121  0.00  0.00     0.000 A 
ATOM      8  C   UNL d   1     -45.646  12.147  22.971  0.00  0.00     0.000 A 
ATOM      9  C   UNL d   1     -45.024  12.404  22.491  0.00  0.00     0.000 A 
ATOM     10  C   UNL d   1     -45.054  13.155  22.166  0.00  0.00     0.000 A 
ATOM     11  C   UNL d   1     -45.701  13.654  22.318  0.00  0.00     0.000 A 
ENDBRANCH   5   6
ENDBRANCH   4   5
ENDBRANCH   3   4
BRANCH   1  12
ATOM     12  C   UNL d   1     -49.748  14.419  22.553  0.00  0.00     0.158 A 
ATOM     13  O   UNL d   1     -49.866  15.016  23.115  0.00  0.00    -0.296 OA
ATOM     14  C   UNL d   1     -50.679  15.161  23.191  0.00  0.00     0.134 A 
ATOM     15 BR   UNL d   1     -51.028  15.718  23.698  0.00  0.00    -0.022 Br
ATOM     16  C   UNL d   1     -51.064  14.648  22.670  0.00  0.00     0.034 A 
ATOM     17  C   UNL d   1     -50.503  14.196  22.282  0.00  0.00     0.032 A 
ENDBRANCH   1  12
TORSDOF 4
ENDMDL
MODEL 3
REMARK VINA RESULT:      -5.8      8.714      9.664
REMARK  4 active torsions:
REMARK  status: ('A' for Active; 'I' for Inactive)
REMARK    1  A    between atoms: C_4  and  C_1 
REMARK       I    between atoms: N_9  and  C_4 
REMARK    2  A    between atoms: C_7  and  C_13 
REMARK    3  A    between atoms: C_12  and  N_9 
REMARK    4  A    between atoms: C_13  and  C_12 
ROOT
ATOM      1  C   UNL d   1     -40.369  14.486  18.305  0.00  0.00     0.302 C 
ATOM      2  O   UNL d   1     -40.487  13.684  18.306  0.00  0.00    -0.263 OA
ATOM      3  N   UNL d   1     -40.019  14.856  18.972  0.00  0.00    -0.205 NA
ENDROOT
BRANCH   3   4
ATOM      4  C   UNL d   1     -39.804  14.396  19.612  0.00  0.00     0.102 C 
BRANCH   4   5
ATOM      5  C   UNL d   1     -39.416  14.737  20.260  0.00  0.00     0.021 C 
BRANCH   5   6
ATOM      6  C   UNL d   1     -39.129  14.264  20.866  0.00  0.00     0.002 A 
ATOM      7  C   UNL d   1     -39.591  14.148  21.551  0.00  0.00     0.000 A 
ATOM      8  C   UNL d   1     -39.313  13.676  22.167  0.00  0.00     0.000 A 
ATOM      9  C   UNL d   1     -38.573  13.311  22.113  0.00  0.00     0.000 A 
ATOM     10  C   UNL d   1     -38.120  13.426  21.440  0.00  0.00     0.000 A 
ATOM     11  C   UNL d   1     -38.400  13.903  20.819  0.00  0.00     0.000 A 
ENDBRANCH   5   6
ENDBRANCH   4   5
ENDBRANCH   3   4
BRANCH   1  12
ATOM     12  C   UNL d   1     -40.588  14.945  17.656  0.00  0.00     0.158 A 
ATOM     13  O   UNL d   1     -41.347  15.135  17.384  0.00  0.00    -0.296 OA
ATOM     14  C   UNL d   1     -41.282  15.613  16.709  0.00  0.00     0.134 A 
ATOM     15 BR   UNL d   1     -41.916  15.922  16.271  0.00  0.00    -0.022 Br
ATOM     16  C   UNL d   1     -40.476  15.717  16.565  0.00  0.00     0.034 A 
ATOM     17  C   UNL d   1     -40.051  15.313  17.137  0.00  0.00     0.032 A 
ENDBRANCH   1  12
TORSDOF 4
ENDMDL
MODEL 4
REMARK VINA RESULT:      -5.7      2.672      4.259
REMARK  4 active torsions:
REMARK  status: ('A' for Active; 'I' for Inactive)
REMARK    1  A    between atoms: C_4  and  C_1 
REMARK       I    between atoms: N_9  and  C_4 
REMARK    2  A    between atoms: C_7  and  C_13 
REMARK    3  A    between atoms: C_12  and  N_9 
REMARK    4  A    between atoms: C_13  and  C_12 
ROOT
ATOM      1  C   UNL d   1     -48.587  11.908  23.245  0.00  0.00     0.302 C 
ATOM      2  O   UNL d   1     -48.386  11.139  23.405  0.00  0.00    -0.263 OA
ATOM      3  N   UNL d   1     -47.984  12.480  23.126  0.00  0.00    -0.205 NA
ENDROOT
BRANCH   3   4
ATOM      4  C   UNL d   1     -47.202  12.247  23.174  0.00  0.00     0.102 C 
BRANCH   4   5
ATOM      5  C   UNL d   1     -46.605  12.809  23.287  0.00  0.00     0.021 C 
BRANCH   5   6
ATOM      6  C   UNL d   1     -45.901  12.755  22.868  0.00  0.00     0.002 A 
ATOM      7  C   UNL d   1     -45.706  13.347  22.313  0.00  0.00     0.000 A 
ATOM      8  C   UNL d   1     -45.002  13.303  21.887  0.00  0.00     0.000 A 
ATOM      9  C   UNL d   1     -44.480  12.673  22.005  0.00  0.00     0.000 A 
ATOM     10  C   UNL d   1     -44.673  12.093  22.550  0.00  0.00     0.000 A 
ATOM     11  C   UNL d   1     -45.383  12.136  22.980  0.00  0.00     0.000 A 
ENDBRANCH   5   6
ENDBRANCH   4   5
ENDBRANCH   3   4
BRANCH   1  12
ATOM     12  C   UNL d   1     -49.377  12.138  23.198  0.00  0.00     0.158 A 
ATOM     13  O   UNL d   1     -49.708  12.796  22.820  0.00  0.00    -0.296 OA
ATOM     14  C   UNL d   1     -50.530  12.788  22.928  0.00  0.00     0.134 A 
ATOM     15 BR   UNL d   1     -51.063  13.353  22.635  0.00  0.00    -0.022 Br
ATOM     16  C   UNL d   1     -50.706  12.119  23.378  0.00  0.00     0.034 A 
ATOM     17  C   UNL d   1     -50.010  11.721  23.544  0.00  0.00     0.032 A 
ENDBRANCH   1  12
TORSDOF 4
ENDMDL
MODEL 5
REMARK VINA RESULT:      -5.3      9.213     10.351
REMARK  4 active torsions:
REMARK  status: ('A' for Active; 'I' for Inactive)
REMARK    1  A    between atoms: C_4  and  C_1 
REMARK       I    between atoms: N_9  and  C_4 
REMARK    2  A    between atoms: C_7  and  C_13 
REMARK    3  A    between atoms: C_12  and  N_9 
REMARK    4  A    between atoms: C_13  and  C_12 
ROOT
ATOM      1  C   UNL d   1     -40.305  14.432  18.659  0.00  0.00     0.302 C 
ATOM      2  O   UNL d   1     -40.874  14.189  18.135  0.00  0.00    -0.263 OA
ATOM      3  N   UNL d   1     -39.501  14.456  18.418  0.00  0.00    -0.205 NA
ENDROOT
BRANCH   3   4
ATOM      4  C   UNL d   1     -39.309  14.233  17.656  0.00  0.00     0.102 C 
BRANCH   4   5
ATOM      5  C   UNL d   1     -38.516  14.201  17.418  0.00  0.00     0.021 C 
BRANCH   5   6
ATOM      6  C   UNL d   1     -38.326  14.109  16.624  0.00  0.00     0.002 A 
ATOM      7  C   UNL d   1     -38.221  14.784  16.145  0.00  0.00     0.000 A 
ATOM      8  C   UNL d   1     -38.030  14.703  15.348  0.00  0.00     0.000 A 
ATOM      9  C   UNL d   1     -37.940  13.953  15.013  0.00  0.00     0.000 A 
ATOM     10  C   UNL d   1     -38.043  13.291  15.485  0.00  0.00     0.000 A 
ATOM     11  C   UNL d   1     -38.236  13.372  16.289  0.00  0.00     0.000 A 
ENDBRANCH   5   6
ENDBRANCH   4   5
ENDBRANCH   3   4
BRANCH   1  12
ATOM     12  C   UNL d   1     -40.505  14.656  19.426  0.00  0.00     0.158 A 
ATOM     13  O   UNL d   1     -40.333  15.361  19.825  0.00  0.00    -0.296 OA
ATOM     14  C   UNL d   1     -40.653  15.326  20.590  0.00  0.00     0.134 A 
ATOM     15 BR   UNL d   1     -40.602  15.922  21.165  0.00  0.00    -0.022 Br
ATOM     16  C   UNL d   1     -41.025  14.592  20.661  0.00  0.00     0.034 A 
ATOM     17  C   UNL d   1     -40.937  14.182  19.957  0.00  0.00     0.032 A 
ENDBRANCH   1  12
TORSDOF 4
ENDMDL
MODEL 6
REMARK VINA RESULT:      -5.3      9.076      9.809
REMARK  4 active torsions:
REMARK  status: ('A' for Active; 'I' for Inactive)
REMARK    1  A    between atoms: C_4  and  C_1 
REMARK       I    between atoms: N_9  and  C_4 
REMARK    2  A    between atoms: C_7  and  C_13 
REMARK    3  A    between atoms: C_12  and  N_9 
REMARK    4  A    between atoms: C_13  and  C_12 
ROOT
ATOM      1  C   UNL d   1     -39.488  14.212  17.638  0.00  0.00     0.302 C 
ATOM      2  O   UNL d   1     -40.117  13.732  17.814  0.00  0.00    -0.263 OA
ATOM      3  N   UNL d   1     -39.348  14.900  18.099  0.00  0.00    -0.205 NA
ENDROOT
BRANCH   3   4
ATOM      4  C   UNL d   1     -39.853  15.072  18.718  0.00  0.00     0.102 C 
BRANCH   4   5
ATOM      5  C   UNL d   1     -39.682  15.694  19.237  0.00  0.00     0.021 C 
BRANCH   5   6
ATOM      6  C   UNL d   1     -40.092  15.769  19.944  0.00  0.00     0.002 A 
ATOM      7  C   UNL d   1     -40.923  15.845  19.931  0.00  0.00     0.000 A 
ATOM      8  C   UNL d   1     -41.346  15.921  20.634  0.00  0.00     0.000 A 
ATOM      9  C   UNL d   1     -40.952  15.922  21.361  0.00  0.00     0.000 A 
ATOM     10  C   UNL d   1     -40.136  15.846  21.372  0.00  0.00     0.000 A 
ATOM     11  C   UNL d   1     -39.709  15.770  20.663  0.00  0.00     0.000 A 
ENDBRANCH   5   6
ENDBRANCH   4   5
ENDBRANCH   3   4
BRANCH   1  12
ATOM     12  C   UNL d   1     -38.981  14.034  17.013  0.00  0.00     0.158 A 
ATOM     13  O   UNL d   1     -38.800  14.487  16.344  0.00  0.00    -0.296 OA
ATOM     14  C   UNL d   1     -38.260  14.071  15.871  0.00  0.00     0.134 A 
ATOM     15 BR   UNL d   1     -37.940  14.335  15.152  0.00  0.00    -0.022 Br
ATOM     16  C   UNL d   1     -38.109  13.355  16.254  0.00  0.00     0.034 A 
ATOM     17  C   UNL d   1     -38.544  13.329  16.947  0.00  0.00     0.032 A 
ENDBRANCH   1  12
TORSDOF 4
ENDMDL
MODEL 7
REMARK VINA RESULT:      -5.2      8.559      8.978
REMARK  4 active torsions:
REMARK  status: ('A' for Active; 'I' for Inactive)
REMARK    1  A    between atoms: C_4  and  C_1 
REMARK       I    between atoms: N_9  and  C_4 
REMARK    2  A    between atoms: C_7  and  C_13 
REMARK    3  A    between atoms: C_12  and  N_9 
REMARK    4  A    between atoms: C_13  and  C_12 
ROOT
ATOM      1  C   UNL d   1     -38.778  14.364  20.681  0.00  0.00     0.302 C 
ATOM      2  O   UNL d   1     -38.336  15.009  20.464  0.00  0.00    -0.263 OA
ATOM      3  N   UNL d   1     -39.440  14.138  20.217  0.00  0.00    -0.205 NA
ENDROOT
BRANCH   3   4
ATOM      4  C   UNL d   1     -39.626  14.576  19.552  0.00  0.00     0.102 C 
BRANCH   4   5
ATOM      5  C   UNL d   1     -40.325  14.426  19.135  0.00  0.00     0.021 C 
BRANCH   5   6
ATOM      6  C   UNL d   1     -40.459  14.784  18.409  0.00  0.00     0.002 A 
ATOM      7  C   UNL d   1     -40.818  15.537  18.382  0.00  0.00     0.000 A 
ATOM      8  C   UNL d   1     -40.958  15.907  17.659  0.00  0.00     0.000 A 
ATOM      9  C   UNL d   1     -40.744  15.536  16.951  0.00  0.00     0.000 A 
ATOM     10  C   UNL d   1     -40.392  14.797  16.979  0.00  0.00     0.000 A 
ATOM     11  C   UNL d   1     -40.251  14.424  17.709  0.00  0.00     0.000 A 
ENDBRANCH   5   6
ENDBRANCH   4   5
ENDBRANCH   3   4
BRANCH   1  12
ATOM     12  C   UNL d   1     -38.586  13.927  21.352  0.00  0.00     0.158 A 
ATOM     13  O   UNL d   1     -38.900  13.979  22.116  0.00  0.00    -0.296 OA
ATOM     14  C   UNL d   1     -38.528  13.420  22.603  0.00  0.00     0.134 A 
ATOM     15 BR   UNL d   1     -38.685  13.296  23.408  0.00  0.00    -0.022 Br
ATOM     16  C   UNL d   1     -37.979  13.021  22.133  0.00  0.00     0.034 A 
ATOM     17  C   UNL d   1     -38.011  13.325  21.373  0.00  0.00     0.032 A 
ENDBRANCH   1  12
TORSDOF 4
ENDMDL
