MODEL 1
REMARK VINA RESULT:      -6.7      0.000      0.000
REMARK  5 active torsions:
REMARK  status: ('A' for Active; 'I' for Inactive)
REMARK    1  A    between atoms: C_6  and  N_2 
REMARK    2  A    between atoms: C_7  and  C_6 
REMARK    3  A    between atoms: C_8  and  C_7 
REMARK       I    between atoms: N_10  and  C_8 
REMARK    4  A    between atoms: C_12  and  N_10 
REMARK    5  A    between atoms: C_13  and  C_12 
ROOT
ATOM      1  C   UNL d   1     -47.085  13.568  22.198  0.00  0.00     0.088 C 
ENDROOT
BRANCH   1   2
ATOM      2  N   UNL d   1     -47.868  13.717  22.402  0.00  0.00    -0.268 N 
ATOM      3  C   UNL d   1     -48.169  14.428  22.683  0.00  0.00     0.296 A 
ATOM      4  S   UNL d   1     -49.007  14.304  22.813  0.00  0.00    -0.025 SA
ATOM      5  O   UNL d   1     -47.737  15.118  22.811  0.00  0.00    -0.259 OA
ATOM      6  C   UNL d   1     -49.173  13.554  22.613  0.00  0.00     0.050 A 
ATOM      7  C   UNL d   1     -49.894  13.144  22.630  0.00  0.00     0.008 A 
ATOM      8  C   UNL d   1     -48.487  13.174  22.357  0.00  0.00     0.073 A 
ATOM      9  C   UNL d   1     -49.925  12.350  22.390  0.00  0.00     0.001 A 
ATOM     10  C   UNL d   1     -49.233  11.980  22.136  0.00  0.00     0.002 A 
ATOM     11  C   UNL d   1     -48.517  12.393  22.120  0.00  0.00     0.018 A 
ENDBRANCH   1   2
BRANCH   1  12
ATOM     12  C   UNL d   1     -46.504  13.544  22.778  0.00  0.00     0.082 C 
BRANCH  12  13
ATOM     13  C   UNL d   1     -45.767  13.211  22.619  0.00  0.00     0.281 C 
ATOM     14  N   UNL d   1     -45.580  12.459  22.892  0.00  0.00    -0.206 NA
ATOM     15  O   UNL d   1     -45.212  13.637  22.181  0.00  0.00    -0.265 OA
BRANCH  14  16
ATOM     16  C   UNL d   1     -44.846  12.131  22.732  0.00  0.00     0.102 C 
BRANCH  16  17
ATOM     17  C   UNL d   1     -44.649  11.401  23.051  0.00  0.00     0.019 A 
ATOM     18  C   UNL d   1     -43.856  11.144  23.052  0.00  0.00     0.002 A 
ATOM     19  C   UNL d   1     -43.664  10.404  23.377  0.00  0.00     0.000 A 
ATOM     20  C   UNL d   1     -44.249   9.923  23.697  0.00  0.00     0.000 A 
ATOM     21  C   UNL d   1     -45.042  10.179  23.697  0.00  0.00     0.000 A 
ATOM     22  C   UNL d   1     -45.247  10.914  23.377  0.00  0.00     0.002 A 
ENDBRANCH  16  17
ENDBRANCH  14  16
ENDBRANCH  12  13
ENDBRANCH   1  12
TORSDOF 5
ENDMDL
MODEL 2
REMARK VINA RESULT:      -6.5      1.830      4.644
REMARK  5 active torsions:
REMARK  status: ('A' for Active; 'I' for Inactive)
REMARK    1  A    between atoms: C_6  and  N_2 
REMARK    2  A    between atoms: C_7  and  C_6 
REMARK    3  A    between atoms: C_8  and  C_7 
REMARK       I    between atoms: N_10  and  C_8 
REMARK    4  A    between atoms: C_12  and  N_10 
REMARK    5  A    between atoms: C_13  and  C_12 
ROOT
ATOM      1  C   UNL d   1     -46.924  13.451  22.474  0.00  0.00     0.088 C 
ENDROOT
BRANCH   1   2
ATOM      2  N   UNL d   1     -46.651  12.754  22.817  0.00  0.00    -0.268 N 
ATOM      3  C   UNL d   1     -45.866  12.556  22.955  0.00  0.00     0.296 A 
ATOM      4  S   UNL d   1     -45.870  11.780  23.318  0.00  0.00    -0.025 SA
ATOM      5  O   UNL d   1     -45.211  13.024  22.774  0.00  0.00    -0.259 OA
ATOM      6  C   UNL d   1     -46.625  11.548  23.383  0.00  0.00     0.050 A 
ATOM      7  C   UNL d   1     -46.945  10.848  23.692  0.00  0.00     0.008 A 
ATOM      8  C   UNL d   1     -47.124  12.132  23.081  0.00  0.00     0.073 A 
ATOM      9  C   UNL d   1     -47.767  10.735  23.698  0.00  0.00     0.001 A 
ATOM     10  C   UNL d   1     -48.257  11.325  23.393  0.00  0.00     0.002 A 
ATOM     11  C   UNL d   1     -47.934  12.021  23.086  0.00  0.00     0.018 A 
ENDBRANCH   1   2
BRANCH   1  12
ATOM     12  C   UNL d   1     -46.872  14.161  22.883  0.00  0.00     0.082 C 
BRANCH  12  13
ATOM     13  C   UNL d   1     -47.362  14.794  22.688  0.00  0.00     0.281 C 
ATOM     14  N   UNL d   1     -48.134  14.827  22.968  0.00  0.00    -0.206 NA
ATOM     15  O   UNL d   1     -47.075  15.399  22.206  0.00  0.00    -0.265 OA
BRANCH  14  16
ATOM     16  C   UNL d   1     -48.618  15.458  22.772  0.00  0.00     0.102 C 
BRANCH  16  17
ATOM     17  C   UNL d   1     -49.427  15.407  22.904  0.00  0.00     0.019 A 
ATOM     18  C   UNL d   1     -49.770  15.791  23.559  0.00  0.00     0.002 A 
ATOM     19  C   UNL d   1     -50.589  15.734  23.685  0.00  0.00     0.000 A 
ATOM     20  C   UNL d   1     -51.064  15.303  23.172  0.00  0.00     0.000 A 
ATOM     21  C   UNL d   1     -50.722  14.918  22.516  0.00  0.00     0.000 A 
ATOM     22  C   UNL d   1     -49.907  14.966  22.378  0.00  0.00     0.002 A 
ENDBRANCH  16  17
ENDBRANCH  14  16
ENDBRANCH  12  13
ENDBRANCH   1  12
TORSDOF 5
ENDMDL
MODEL 3
REMARK VINA RESULT:      -6.5      7.642      8.852
REMARK  5 active torsions:
REMARK  status: ('A' for Active; 'I' for Inactive)
REMARK    1  A    between atoms: C_6  and  N_2 
REMARK    2  A    between atoms: C_7  and  C_6 
REMARK    3  A    between atoms: C_8  and  C_7 
REMARK       I    between atoms: N_10  and  C_8 
REMARK    4  A    between atoms: C_12  and  N_10 
REMARK    5  A    between atoms: C_13  and  C_12 
ROOT
ATOM      1  C   UNL d   1     -40.349  14.366  18.604  0.00  0.00     0.088 C 
ENDROOT
BRANCH   1   2
ATOM      2  N   UNL d   1     -40.041  14.583  17.872  0.00  0.00    -0.268 N 
ATOM      3  C   UNL d   1     -40.260  15.239  17.429  0.00  0.00     0.296 A 
ATOM      4  S   UNL d   1     -39.784  15.222  16.717  0.00  0.00    -0.025 SA
ATOM      5  O   UNL d   1     -40.828  15.797  17.641  0.00  0.00    -0.259 OA
ATOM      6  C   UNL d   1     -39.315  14.584  16.755  0.00  0.00     0.050 A 
ATOM      7  C   UNL d   1     -38.749  14.303  16.218  0.00  0.00     0.008 A 
ATOM      8  C   UNL d   1     -39.456  14.175  17.458  0.00  0.00     0.073 A 
ATOM      9  C   UNL d   1     -38.324  13.610  16.387  0.00  0.00     0.001 A 
ATOM     10  C   UNL d   1     -38.473  13.210  17.093  0.00  0.00     0.002 A 
ATOM     11  C   UNL d   1     -39.038  13.493  17.625  0.00  0.00     0.018 A 
ENDBRANCH   1   2
BRANCH   1  12
ATOM     12  C   UNL d   1     -40.204  14.828  19.267  0.00  0.00     0.082 C 
BRANCH  12  13
ATOM     13  C   UNL d   1     -40.384  14.547  20.021  0.00  0.00     0.281 C 
ATOM     14  N   UNL d   1     -39.823  14.570  20.621  0.00  0.00    -0.206 NA
ATOM     15  O   UNL d   1     -41.134  14.239  20.174  0.00  0.00    -0.265 OA
BRANCH  14  16
ATOM     16  C   UNL d   1     -40.005  14.290  21.369  0.00  0.00     0.102 C 
BRANCH  16  17
ATOM     17  C   UNL d   1     -39.422  14.264  21.947  0.00  0.00     0.019 A 
ATOM     18  C   UNL d   1     -39.198  14.960  22.348  0.00  0.00     0.002 A 
ATOM     19  C   UNL d   1     -38.608  14.926  22.931  0.00  0.00     0.000 A 
ATOM     20  C   UNL d   1     -38.243  14.213  23.117  0.00  0.00     0.000 A 
ATOM     21  C   UNL d   1     -38.467  13.516  22.718  0.00  0.00     0.000 A 
ATOM     22  C   UNL d   1     -39.054  13.536  22.134  0.00  0.00     0.002 A 
ENDBRANCH  16  17
ENDBRANCH  14  16
ENDBRANCH  12  13
ENDBRANCH   1  12
TORSDOF 5
ENDMDL
MODEL 4
REMARK VINA RESULT:      -6.5      1.938      2.693
REMARK  5 active torsions:
REMARK  status: ('A' for Active; 'I' for Inactive)
REMARK    1  A    between atoms: C_6  and  N_2 
REMARK    2  A    between atoms: C_7  and  C_6 
REMARK    3  A    between atoms: C_8  and  C_7 
REMARK       I    between atoms: N_10  and  C_8 
REMARK    4  A    between atoms: C_12  and  N_10 
REMARK    5  A    between atoms: C_13  and  C_12 
ROOT
ATOM      1  C   UNL d   1     -49.009  11.724  22.804  0.00  0.00     0.088 C 
ENDROOT
BRANCH   1   2
ATOM      2  N   UNL d   1     -49.743  12.095  22.771  0.00  0.00    -0.268 N 
ATOM      3  C   UNL d   1     -50.419  11.869  23.180  0.00  0.00     0.296 A 
ATOM      4  S   UNL d   1     -51.033  12.425  22.962  0.00  0.00    -0.025 SA
ATOM      5  O   UNL d   1     -50.479  11.231  23.698  0.00  0.00    -0.259 OA
ATOM      6  C   UNL d   1     -50.719  12.943  22.450  0.00  0.00     0.050 A 
ATOM      7  C   UNL d   1     -51.064  13.591  22.065  0.00  0.00     0.008 A 
ATOM      8  C   UNL d   1     -49.925  12.759  22.317  0.00  0.00     0.073 A 
ATOM      9  C   UNL d   1     -50.611  14.056  21.547  0.00  0.00     0.001 A 
ATOM     10  C   UNL d   1     -49.819  13.863  21.422  0.00  0.00     0.002 A 
ATOM     11  C   UNL d   1     -49.479  13.215  21.808  0.00  0.00     0.018 A 
ENDBRANCH   1   2
BRANCH   1  12
ATOM     12  C   UNL d   1     -48.559  11.759  23.489  0.00  0.00     0.082 C 
BRANCH  12  13
ATOM     13  C   UNL d   1     -47.753  11.583  23.471  0.00  0.00     0.281 C 
ATOM     14  N   UNL d   1     -47.197  12.183  23.390  0.00  0.00    -0.206 NA
ATOM     15  O   UNL d   1     -47.504  10.799  23.533  0.00  0.00    -0.265 OA
BRANCH  14  16
ATOM     16  C   UNL d   1     -46.397  12.005  23.372  0.00  0.00     0.102 C 
BRANCH  16  17
ATOM     17  C   UNL d   1     -45.888  12.463  22.918  0.00  0.00     0.019 A 
ATOM     18  C   UNL d   1     -45.179  12.137  22.626  0.00  0.00     0.002 A 
ATOM     19  C   UNL d   1     -44.670  12.607  22.167  0.00  0.00     0.000 A 
ATOM     20  C   UNL d   1     -44.860  13.389  21.998  0.00  0.00     0.000 A 
ATOM     21  C   UNL d   1     -45.569  13.715  22.289  0.00  0.00     0.000 A 
ATOM     22  C   UNL d   1     -46.086  13.258  22.748  0.00  0.00     0.002 A 
ENDBRANCH  16  17
ENDBRANCH  14  16
ENDBRANCH  12  13
ENDBRANCH   1  12
TORSDOF 5
ENDMDL
MODEL 5
REMARK VINA RESULT:      -6.4      1.448      2.247
REMARK  5 active torsions:
REMARK  status: ('A' for Active; 'I' for Inactive)
REMARK    1  A    between atoms: C_6  and  N_2 
REMARK    2  A    between atoms: C_7  and  C_6 
REMARK    3  A    between atoms: C_8  and  C_7 
REMARK       I    between atoms: N_10  and  C_8 
REMARK    4  A    between atoms: C_12  and  N_10 
REMARK    5  A    between atoms: C_13  and  C_12 
ROOT
ATOM      1  C   UNL d   1     -48.983  14.191  22.587  0.00  0.00     0.088 C 
ENDROOT
BRANCH   1   2
ATOM      2  N   UNL d   1     -49.700  13.974  22.930  0.00  0.00    -0.268 N 
ATOM      3  C   UNL d   1     -50.308  14.483  23.144  0.00  0.00     0.296 A 
ATOM      4  S   UNL d   1     -50.930  13.995  23.474  0.00  0.00    -0.025 SA
ATOM      5  O   UNL d   1     -50.306  15.303  23.054  0.00  0.00    -0.259 OA
ATOM      6  C   UNL d   1     -50.684  13.241  23.448  0.00  0.00     0.050 A 
ATOM      7  C   UNL d   1     -51.064  12.546  23.692  0.00  0.00     0.008 A 
ATOM      8  C   UNL d   1     -49.930  13.204  23.116  0.00  0.00     0.073 A 
ATOM      9  C   UNL d   1     -50.686  11.813  23.604  0.00  0.00     0.001 A 
ATOM     10  C   UNL d   1     -49.931  11.788  23.272  0.00  0.00     0.002 A 
ATOM     11  C   UNL d   1     -49.556  12.483  23.029  0.00  0.00     0.018 A 
ENDBRANCH   1   2
BRANCH   1  12
ATOM     12  C   UNL d   1     -48.384  14.510  23.049  0.00  0.00     0.082 C 
BRANCH  12  13
ATOM     13  C   UNL d   1     -47.624  14.602  22.743  0.00  0.00     0.281 C 
ATOM     14  N   UNL d   1     -47.087  13.980  22.764  0.00  0.00    -0.206 NA
ATOM     15  O   UNL d   1     -47.400  15.324  22.414  0.00  0.00    -0.265 OA
BRANCH  14  16
ATOM     16  C   UNL d   1     -46.332  14.074  22.459  0.00  0.00     0.102 C 
BRANCH  16  17
ATOM     17  C   UNL d   1     -45.809  13.441  22.464  0.00  0.00     0.019 A 
ATOM     18  C   UNL d   1     -45.951  12.784  22.957  0.00  0.00     0.002 A 
ATOM     19  C   UNL d   1     -45.416  12.148  22.956  0.00  0.00     0.000 A 
ATOM     20  C   UNL d   1     -44.750  12.161  22.475  0.00  0.00     0.000 A 
ATOM     21  C   UNL d   1     -44.607  12.818  21.982  0.00  0.00     0.000 A 
ATOM     22  C   UNL d   1     -45.132  13.459  21.973  0.00  0.00     0.002 A 
ENDBRANCH  16  17
ENDBRANCH  14  16
ENDBRANCH  12  13
ENDBRANCH   1  12
TORSDOF 5
ENDMDL
MODEL 6
REMARK VINA RESULT:      -6.1      7.781      9.099
REMARK  5 active torsions:
REMARK  status: ('A' for Active; 'I' for Inactive)
REMARK    1  A    between atoms: C_6  and  N_2 
REMARK    2  A    between atoms: C_7  and  C_6 
REMARK    3  A    between atoms: C_8  and  C_7 
REMARK       I    between atoms: N_10  and  C_8 
REMARK    4  A    between atoms: C_12  and  N_10 
REMARK    5  A    between atoms: C_13  and  C_12 
ROOT
ATOM      1  C   UNL d   1     -40.004  14.302  20.549  0.00  0.00     0.088 C 
ENDROOT
BRANCH   1   2
ATOM      2  N   UNL d   1     -39.682  14.607  21.242  0.00  0.00    -0.268 N 
ATOM      3  C   UNL d   1     -39.834  15.348  21.562  0.00  0.00     0.296 A 
ATOM      4  S   UNL d   1     -39.370  15.403  22.280  0.00  0.00    -0.025 SA
ATOM      5  O   UNL d   1     -40.338  15.917  21.244  0.00  0.00    -0.259 OA
ATOM      6  C   UNL d   1     -38.972  14.723  22.364  0.00  0.00     0.050 A 
ATOM      7  C   UNL d   1     -38.445  14.480  22.956  0.00  0.00     0.008 A 
ATOM      8  C   UNL d   1     -39.148  14.217  21.736  0.00  0.00     0.073 A 
ATOM      9  C   UNL d   1     -38.094  13.729  22.918  0.00  0.00     0.001 A 
ATOM     10  C   UNL d   1     -38.277  13.232  22.285  0.00  0.00     0.002 A 
ATOM     11  C   UNL d   1     -38.804  13.477  21.697  0.00  0.00     0.018 A 
ENDBRANCH   1   2
BRANCH   1  12
ATOM     12  C   UNL d   1     -39.862  14.671  19.830  0.00  0.00     0.082 C 
BRANCH  12  13
ATOM     13  C   UNL d   1     -40.047  14.293  19.121  0.00  0.00     0.281 C 
ATOM     14  N   UNL d   1     -39.489  14.233  18.521  0.00  0.00    -0.206 NA
ATOM     15  O   UNL d   1     -40.799  13.970  19.013  0.00  0.00    -0.265 OA
BRANCH  14  16
ATOM     16  C   UNL d   1     -39.676  13.857  17.818  0.00  0.00     0.102 C 
BRANCH  16  17
ATOM     17  C   UNL d   1     -39.102  13.773  17.236  0.00  0.00     0.019 A 
ATOM     18  C   UNL d   1     -38.559  13.142  17.270  0.00  0.00     0.002 A 
ATOM     19  C   UNL d   1     -37.982  13.064  16.678  0.00  0.00     0.000 A 
ATOM     20  C   UNL d   1     -37.942  13.603  16.058  0.00  0.00     0.000 A 
ATOM     21  C   UNL d   1     -38.485  14.234  16.023  0.00  0.00     0.000 A 
ATOM     22  C   UNL d   1     -39.065  14.324  16.607  0.00  0.00     0.002 A 
ENDBRANCH  16  17
ENDBRANCH  14  16
ENDBRANCH  12  13
ENDBRANCH   1  12
TORSDOF 5
ENDMDL
MODEL 7
REMARK VINA RESULT:      -4.8      8.293      9.762
REMARK  5 active torsions:
REMARK  status: ('A' for Active; 'I' for Inactive)
REMARK    1  A    between atoms: C_6  and  N_2 
REMARK    2  A    between atoms: C_7  and  C_6 
REMARK    3  A    between atoms: C_8  and  C_7 
REMARK       I    between atoms: N_10  and  C_8 
REMARK    4  A    between atoms: C_12  and  N_10 
REMARK    5  A    between atoms: C_13  and  C_12 
ROOT
ATOM      1  C   UNL d   1     -39.635  14.311  18.680  0.00  0.00     0.088 C 
ENDROOT
BRANCH   1   2
ATOM      2  N   UNL d   1     -40.073  14.831  19.144  0.00  0.00    -0.268 N 
ATOM      3  C   UNL d   1     -40.682  15.317  18.883  0.00  0.00     0.296 A 
ATOM      4  S   UNL d   1     -40.959  15.749  19.569  0.00  0.00    -0.025 SA
ATOM      5  O   UNL d   1     -40.963  15.368  18.110  0.00  0.00    -0.259 OA
ATOM      6  C   UNL d   1     -40.525  15.518  20.191  0.00  0.00     0.050 A 
ATOM      7  C   UNL d   1     -40.558  15.757  20.985  0.00  0.00     0.008 A 
ATOM      8  C   UNL d   1     -39.973  14.953  19.953  0.00  0.00     0.073 A 
ATOM      9  C   UNL d   1     -40.035  15.428  21.540  0.00  0.00     0.001 A 
ATOM     10  C   UNL d   1     -39.487  14.864  21.290  0.00  0.00     0.002 A 
ATOM     11  C   UNL d   1     -39.458  14.629  20.498  0.00  0.00     0.018 A 
ENDBRANCH   1   2
BRANCH   1  12
ATOM     12  C   UNL d   1     -39.091  14.598  18.137  0.00  0.00     0.082 C 
BRANCH  12  13
ATOM     13  C   UNL d   1     -38.688  14.083  17.634  0.00  0.00     0.281 C 
ATOM     14  N   UNL d   1     -38.470  14.321  16.879  0.00  0.00    -0.206 NA
ATOM     15  O   UNL d   1     -38.502  13.322  17.893  0.00  0.00    -0.265 OA
BRANCH  14  16
ATOM     16  C   UNL d   1     -38.070  13.807  16.382  0.00  0.00     0.102 C 
BRANCH  16  17
ATOM     17  C   UNL d   1     -38.027  13.968  15.578  0.00  0.00     0.019 A 
ATOM     18  C   UNL d   1     -37.998  14.756  15.309  0.00  0.00     0.002 A 
ATOM     19  C   UNL d   1     -37.954  14.911  14.494  0.00  0.00     0.000 A 
ATOM     20  C   UNL d   1     -37.940  14.294  13.951  0.00  0.00     0.000 A 
ATOM     21  C   UNL d   1     -37.968  13.505  14.219  0.00  0.00     0.000 A 
ATOM     22  C   UNL d   1     -38.012  13.337  15.028  0.00  0.00     0.002 A 
ENDBRANCH  16  17
ENDBRANCH  14  16
ENDBRANCH  12  13
ENDBRANCH   1  12
TORSDOF 5
ENDMDL
MODEL 8
REMARK VINA RESULT:      -4.7      8.025      9.661
REMARK  5 active torsions:
REMARK  status: ('A' for Active; 'I' for Inactive)
REMARK    1  A    between atoms: C_6  and  N_2 
REMARK    2  A    between atoms: C_7  and  C_6 
REMARK    3  A    between atoms: C_8  and  C_7 
REMARK       I    between atoms: N_10  and  C_8 
REMARK    4  A    between atoms: C_12  and  N_10 
REMARK    5  A    between atoms: C_13  and  C_12 
ROOT
ATOM      1  C   UNL d   1     -39.289  14.365  19.748  0.00  0.00     0.088 C 
ENDROOT
BRANCH   1   2
ATOM      2  N   UNL d   1     -39.595  14.914  20.280  0.00  0.00    -0.268 N 
ATOM      3  C   UNL d   1     -40.234  15.413  20.147  0.00  0.00     0.296 A 
ATOM      4  S   UNL d   1     -40.336  15.875  20.861  0.00  0.00    -0.025 SA
ATOM      5  O   UNL d   1     -40.682  15.451  19.456  0.00  0.00    -0.259 OA
ATOM      6  C   UNL d   1     -39.778  15.648  21.377  0.00  0.00     0.050 A 
ATOM      7  C   UNL d   1     -39.623  15.911  22.148  0.00  0.00     0.008 A 
ATOM      8  C   UNL d   1     -39.310  15.057  21.041  0.00  0.00     0.073 A 
ATOM      9  C   UNL d   1     -38.997  15.581  22.581  0.00  0.00     0.001 A 
ATOM     10  C   UNL d   1     -38.536  14.991  22.235  0.00  0.00     0.002 A 
ATOM     11  C   UNL d   1     -38.694  14.731  21.466  0.00  0.00     0.018 A 
ENDBRANCH   1   2
BRANCH   1  12
ATOM     12  C   UNL d   1     -38.949  14.616  19.045  0.00  0.00     0.082 C 
BRANCH  12  13
ATOM     13  C   UNL d   1     -38.609  14.072  18.527  0.00  0.00     0.281 C 
ATOM     14  N   UNL d   1     -38.535  14.246  17.727  0.00  0.00    -0.206 NA
ATOM     15  O   UNL d   1     -38.340  13.347  18.814  0.00  0.00    -0.265 OA
BRANCH  14  16
ATOM     16  C   UNL d   1     -38.197  13.703  17.215  0.00  0.00     0.102 C 
BRANCH  16  17
ATOM     17  C   UNL d   1     -38.112  13.891  16.420  0.00  0.00     0.019 A 
ATOM     18  C   UNL d   1     -38.101  14.688  16.177  0.00  0.00     0.002 A 
ATOM     19  C   UNL d   1     -38.015  14.870  15.371  0.00  0.00     0.000 A 
ATOM     20  C   UNL d   1     -37.940  14.272  14.812  0.00  0.00     0.000 A 
ATOM     21  C   UNL d   1     -37.950  13.475  15.054  0.00  0.00     0.000 A 
ATOM     22  C   UNL d   1     -38.035  13.279  15.855  0.00  0.00     0.002 A 
ENDBRANCH  16  17
ENDBRANCH  14  16
ENDBRANCH  12  13
ENDBRANCH   1  12
TORSDOF 5
ENDMDL
MODEL 9
REMARK VINA RESULT:      -4.5      4.292      6.586
REMARK  5 active torsions:
REMARK  status: ('A' for Active; 'I' for Inactive)
REMARK    1  A    between atoms: C_6  and  N_2 
REMARK    2  A    between atoms: C_7  and  C_6 
REMARK    3  A    between atoms: C_8  and  C_7 
REMARK       I    between atoms: N_10  and  C_8 
REMARK    4  A    between atoms: C_12  and  N_10 
REMARK    5  A    between atoms: C_13  and  C_12 
ROOT
ATOM      1  C   UNL d   1     -41.559  13.839  20.920  0.00  0.00     0.088 C 
ENDROOT
BRANCH   1   2
ATOM      2  N   UNL d   1     -40.968  14.404  21.020  0.00  0.00    -0.268 N 
ATOM      3  C   UNL d   1     -41.004  15.189  20.782  0.00  0.00     0.296 A 
ATOM      4  S   UNL d   1     -40.258  15.547  21.009  0.00  0.00    -0.025 SA
ATOM      5  O   UNL d   1     -41.639  15.550  20.400  0.00  0.00    -0.259 OA
ATOM      6  C   UNL d   1     -39.820  14.987  21.360  0.00  0.00     0.050 A 
ATOM      7  C   UNL d   1     -39.057  15.030  21.684  0.00  0.00     0.008 A 
ATOM      8  C   UNL d   1     -40.236  14.275  21.379  0.00  0.00     0.073 A 
ATOM      9  C   UNL d   1     -38.713  14.357  22.026  0.00  0.00     0.001 A 
ATOM     10  C   UNL d   1     -39.139  13.650  22.039  0.00  0.00     0.002 A 
ATOM     11  C   UNL d   1     -39.899  13.612  21.715  0.00  0.00     0.018 A 
ENDBRANCH   1   2
BRANCH   1  12
ATOM     12  C   UNL d   1     -42.258  13.892  21.347  0.00  0.00     0.082 C 
BRANCH  12  13
ATOM     13  C   UNL d   1     -42.837  13.309  21.276  0.00  0.00     0.281 C 
ATOM     14  N   UNL d   1     -43.542  13.367  21.695  0.00  0.00    -0.206 NA
ATOM     15  O   UNL d   1     -42.707  12.662  20.780  0.00  0.00    -0.265 OA
BRANCH  14  16
ATOM     16  C   UNL d   1     -44.115  12.786  21.622  0.00  0.00     0.102 C 
BRANCH  16  17
ATOM     17  C   UNL d   1     -44.811  12.845  22.053  0.00  0.00     0.019 A 
ATOM     18  C   UNL d   1     -45.295  13.519  21.977  0.00  0.00     0.002 A 
ATOM     19  C   UNL d   1     -45.998  13.571  22.417  0.00  0.00     0.000 A 
ATOM     20  C   UNL d   1     -46.221  12.965  22.925  0.00  0.00     0.000 A 
ATOM     21  C   UNL d   1     -45.737  12.290  23.002  0.00  0.00     0.000 A 
ATOM     22  C   UNL d   1     -45.034  12.225  22.569  0.00  0.00     0.002 A 
ENDBRANCH  16  17
ENDBRANCH  14  16
ENDBRANCH  12  13
ENDBRANCH   1  12
TORSDOF 5
ENDMDL
