MODEL 1
REMARK VINA RESULT:      -2.6      0.000      0.000
REMARK  5 active torsions:
REMARK  status: ('A' for Active; 'I' for Inactive)
REMARK    1  A    between atoms: N_9  and  S_1 
REMARK    2  A    between atoms: C_12  and  S_1 
REMARK    3  A    between atoms: C_6  and  C_15 
REMARK    4  A    between atoms: C_18  and  N_9 
REMARK       I    between atoms: C_16  and  N_17 
REMARK    5  A    between atoms: N_17  and  C_23 
ROOT
ATOM      1  C   UNL d   1      56.852   0.650  33.571  0.00  0.00     0.021 A 
ATOM      2  C   UNL d   1      57.374   0.663  32.231  0.00  0.00     0.094 A 
ATOM      3  C   UNL d   1      56.731   0.668  32.747  0.00  0.00     0.021 A 
ATOM      4  C   UNL d   1      57.619   0.626  33.866  0.00  0.00     0.002 A 
ATOM      5  C   UNL d   1      58.265   0.620  33.362  0.00  0.00     0.002 A 
ATOM      6  C   UNL d   1      58.143   0.639  32.538  0.00  0.00     0.020 A 
ENDROOT
BRANCH   2   7
ATOM      7  N   UNL d   1      57.254   0.681  31.420  0.00  0.00    -0.158 NA
BRANCH   7   8
ATOM      8  S   UNL d   1      57.626   0.129  30.940  0.00  0.00     0.285 S 
ATOM      9  O   UNL d   1      56.952  -0.345  30.976  0.00  0.00    -0.198 OA
ATOM     10  O   UNL d   1      58.305   0.597  30.898  0.00  0.00    -0.198 OA
BRANCH   8  11
ATOM     11  C   UNL d   1      58.002  -0.430  30.454  0.00  0.00     0.105 A 
ATOM     12  C   UNL d   1      57.965  -1.227  30.662  0.00  0.00     0.015 A 
ATOM     13  C   UNL d   1      58.336  -1.804  30.189  0.00  0.00     0.020 A 
ATOM     14  C   UNL d   1      58.745  -1.568  29.504  0.00  0.00     0.085 A 
ATOM     15  C   UNL d   1      58.781  -0.770  29.297  0.00  0.00     0.020 A 
ATOM     16  C   UNL d   1      58.406  -0.200  29.779  0.00  0.00     0.015 A 
BRANCH  14  17
ATOM     17  N   UNL d   1      59.107  -2.121  29.039  0.00  0.00    -0.208 NA
ATOM     18  C   UNL d   1      59.901  -2.286  29.143  0.00  0.00     0.279 C 
ATOM     19  O   UNL d   1      60.334  -1.889  29.722  0.00  0.00    -0.265 OA
ATOM     20  C   UNL d   1      60.266  -2.841  28.677  0.00  0.00     0.068 C 
ENDBRANCH  14  17
ENDBRANCH   8  11
ENDBRANCH   7   8
ENDBRANCH   2   7
BRANCH   1  21
ATOM     21  C   UNL d   1      56.198   0.656  34.076  0.00  0.00     0.102 A 
ATOM     22  N   UNL d   1      55.437   0.664  33.738  0.00  0.00    -0.162 NA
ATOM     23  N   UNL d   1      54.770   0.670  34.242  0.00  0.00    -0.189 N 
ATOM     24  C   UNL d   1      53.971   0.679  34.078  0.00  0.00     0.224 A 
ATOM     25  C   UNL d   1      54.866   0.668  35.070  0.00  0.00     0.187 A 
ATOM     26  N   UNL d   1      53.566   0.682  34.784  0.00  0.00    -0.124 NA
ATOM     27  N   UNL d   1      54.124   0.675  35.389  0.00  0.00    -0.127 NA
ATOM     28  C   UNL d   1      55.641   0.660  35.387  0.00  0.00     0.042 A 
ATOM     29  C   UNL d   1      56.302   0.654  34.885  0.00  0.00     0.024 A 
ENDBRANCH   1  21
TORSDOF 5
ENDMDL
MODEL 2
REMARK VINA RESULT:      -2.5      1.314      5.863
REMARK  5 active torsions:
REMARK  status: ('A' for Active; 'I' for Inactive)
REMARK    1  A    between atoms: N_9  and  S_1 
REMARK    2  A    between atoms: C_12  and  S_1 
REMARK    3  A    between atoms: C_6  and  C_15 
REMARK    4  A    between atoms: C_18  and  N_9 
REMARK       I    between atoms: C_16  and  N_17 
REMARK    5  A    between atoms: N_17  and  C_23 
ROOT
ATOM      1  C   UNL d   1      58.722  -0.830  29.569  0.00  0.00     0.021 A 
ATOM      2  C   UNL d   1      58.429   0.049  30.669  0.00  0.00     0.094 A 
ATOM      3  C   UNL d   1      58.693  -0.681  30.388  0.00  0.00     0.021 A 
ATOM      4  C   UNL d   1      58.486  -0.245  29.042  0.00  0.00     0.002 A 
ATOM      5  C   UNL d   1      58.223   0.482  29.311  0.00  0.00     0.002 A 
ATOM      6  C   UNL d   1      58.193   0.632  30.129  0.00  0.00     0.020 A 
ENDROOT
BRANCH   2   7
ATOM      7  N   UNL d   1      58.400   0.196  31.475  0.00  0.00    -0.158 NA
BRANCH   7   8
ATOM      8  S   UNL d   1      57.688   0.125  31.877  0.00  0.00     0.285 S 
ATOM      9  O   UNL d   1      57.428  -0.413  31.309  0.00  0.00    -0.198 OA
ATOM     10  O   UNL d   1      57.939   0.663  32.451  0.00  0.00    -0.198 OA
BRANCH   8  11
ATOM     11  C   UNL d   1      56.968   0.054  32.285  0.00  0.00     0.105 A 
ATOM     12  C   UNL d   1      56.733   0.665  32.788  0.00  0.00     0.015 A 
ATOM     13  C   UNL d   1      56.015   0.613  33.207  0.00  0.00     0.020 A 
ATOM     14  C   UNL d   1      55.535  -0.060  33.112  0.00  0.00     0.085 A 
ATOM     15  C   UNL d   1      55.770  -0.670  32.609  0.00  0.00     0.020 A 
ATOM     16  C   UNL d   1      56.493  -0.608  32.194  0.00  0.00     0.015 A 
BRANCH  14  17
ATOM     17  N   UNL d   1      54.837  -0.117  33.514  0.00  0.00    -0.208 NA
ATOM     18  C   UNL d   1      54.750   0.251  34.239  0.00  0.00     0.279 C 
ATOM     19  O   UNL d   1      55.374   0.682  34.561  0.00  0.00    -0.265 OA
ATOM     20  C   UNL d   1      54.049   0.194  34.644  0.00  0.00     0.068 C 
ENDBRANCH  14  17
ENDBRANCH   8  11
ENDBRANCH   7   8
ENDBRANCH   2   7
BRANCH   1  21
ATOM     21  C   UNL d   1      58.989  -1.566  29.302  0.00  0.00     0.102 A 
ATOM     22  N   UNL d   1      58.435  -2.182  29.221  0.00  0.00    -0.162 NA
ATOM     23  N   UNL d   1      58.697  -2.929  28.952  0.00  0.00    -0.189 N 
ATOM     24  C   UNL d   1      58.293  -3.626  28.820  0.00  0.00     0.224 A 
ATOM     25  C   UNL d   1      59.499  -3.055  28.767  0.00  0.00     0.187 A 
ATOM     26  N   UNL d   1      58.825  -4.183  28.557  0.00  0.00    -0.124 NA
ATOM     27  N   UNL d   1      59.564  -3.823  28.528  0.00  0.00    -0.127 NA
ATOM     28  C   UNL d   1      60.038  -2.420  28.856  0.00  0.00     0.042 A 
ATOM     29  C   UNL d   1      59.777  -1.679  29.124  0.00  0.00     0.024 A 
ENDBRANCH   1  21
TORSDOF 5
ENDMDL
