MODEL 1
REMARK VINA RESULT:      -8.3      0.000      0.000
REMARK  3 active torsions:
REMARK  status: ('A' for Active; 'I' for Inactive)
REMARK    1  A    between atoms: C_7  and  C_3 
REMARK    2  A    between atoms: C_10  and  C_5 
REMARK    3  A    between atoms: C_9  and  C_7 
ROOT
ATOM      1  C   UNL d   1     -47.343  13.415  22.958  0.00  0.00     0.101 A 
ATOM      2  O   UNL d   1     -48.065  13.441  22.555  0.00  0.00    -0.307 OA
ATOM      3  C   UNL d   1     -48.207  14.219  22.311  0.00  0.00     0.101 A 
ATOM      4  C   UNL d   1     -47.046  14.186  22.957  0.00  0.00     0.027 A 
ATOM      5  C   UNL d   1     -47.571  14.669  22.565  0.00  0.00     0.027 A 
ENDROOT
BRANCH   3   6
ATOM      6  C   UNL d   1     -48.867  14.508  21.886  0.00  0.00     0.036 C 
BRANCH   6   7
ATOM      7  C   UNL d   1     -49.556  14.707  22.296  0.00  0.00     0.091 A 
ATOM      8  C   UNL d   1     -50.299  14.414  22.044  0.00  0.00     0.286 A 
ATOM      9  N   UNL d   1     -50.879  14.700  22.551  0.00  0.00    -0.190 NA
ATOM     10  O   UNL d   1     -50.426  13.914  21.386  0.00  0.00    -0.265 OA
ATOM     11  C   UNL d   1     -50.528  15.152  23.099  0.00  0.00     0.169 A 
ATOM     12  S   UNL d   1     -49.710  15.173  22.964  0.00  0.00    -0.052 SA
ATOM     13  S   UNL d   1     -50.937  15.530  23.698  0.00  0.00    -0.050 SA
ENDBRANCH   6   7
ENDBRANCH   3   6
BRANCH   1  14
ATOM     14  C   UNL d   1     -47.191  12.659  23.203  0.00  0.00     0.033 A 
ATOM     15  C   UNL d   1     -46.403  12.379  23.203  0.00  0.00     0.060 A 
ATOM     16 CL   UNL d   1     -45.788  12.862  22.958  0.00  0.00    -0.082 Cl
ATOM     17  C   UNL d   1     -46.232  11.613  23.449  0.00  0.00     0.011 A 
ATOM     18  C   UNL d   1     -46.850  11.122  23.696  0.00  0.00     0.001 A 
ATOM     19  C   UNL d   1     -47.638  11.402  23.696  0.00  0.00     0.000 A 
ATOM     20  C   UNL d   1     -47.787  12.165  23.449  0.00  0.00     0.003 A 
ENDBRANCH   1  14
TORSDOF 3
ENDMDL
MODEL 2
REMARK VINA RESULT:      -7.9      2.494      4.210
REMARK  3 active torsions:
REMARK  status: ('A' for Active; 'I' for Inactive)
REMARK    1  A    between atoms: C_7  and  C_3 
REMARK    2  A    between atoms: C_10  and  C_5 
REMARK    3  A    between atoms: C_9  and  C_7 
ROOT
ATOM      1  C   UNL d   1     -49.485  12.611  22.851  0.00  0.00     0.101 A 
ATOM      2  O   UNL d   1     -48.815  12.774  23.309  0.00  0.00    -0.307 OA
ATOM      3  C   UNL d   1     -48.308  12.121  23.284  0.00  0.00     0.101 A 
ATOM      4  C   UNL d   1     -49.381  11.851  22.547  0.00  0.00     0.027 A 
ATOM      5  C   UNL d   1     -48.669  11.558  22.810  0.00  0.00     0.027 A 
ENDROOT
BRANCH   3   6
ATOM      6  C   UNL d   1     -47.568  12.035  23.662  0.00  0.00     0.036 C 
BRANCH   6   7
ATOM      7  C   UNL d   1     -46.897  12.370  23.317  0.00  0.00     0.091 A 
ATOM      8  C   UNL d   1     -46.161  11.969  23.342  0.00  0.00     0.286 A 
ATOM      9  N   UNL d   1     -45.598  12.429  22.959  0.00  0.00    -0.190 NA
ATOM     10  O   UNL d   1     -46.026  11.225  23.698  0.00  0.00    -0.265 OA
ATOM     11  C   UNL d   1     -45.953  13.091  22.702  0.00  0.00     0.169 A 
ATOM     12  S   UNL d   1     -46.755  13.079  22.910  0.00  0.00    -0.052 SA
ATOM     13  S   UNL d   1     -45.560  13.680  22.294  0.00  0.00    -0.050 SA
ENDBRANCH   6   7
ENDBRANCH   3   6
BRANCH   1  14
ATOM     14  C   UNL d   1     -49.990  13.243  22.867  0.00  0.00     0.033 A 
ATOM     15  C   UNL d   1     -50.380  13.473  22.164  0.00  0.00     0.060 A 
ATOM     16 CL   UNL d   1     -50.254  13.066  21.464  0.00  0.00    -0.082 Cl
ATOM     17  C   UNL d   1     -50.897  14.113  22.163  0.00  0.00     0.011 A 
ATOM     18  C   UNL d   1     -51.027  14.527  22.868  0.00  0.00     0.001 A 
ATOM     19  C   UNL d   1     -50.637  14.297  23.571  0.00  0.00     0.000 A 
ATOM     20  C   UNL d   1     -50.128  13.659  23.551  0.00  0.00     0.003 A 
ENDBRANCH   1  14
TORSDOF 3
ENDMDL
MODEL 3
REMARK VINA RESULT:      -7.6      2.355      4.195
REMARK  3 active torsions:
REMARK  status: ('A' for Active; 'I' for Inactive)
REMARK    1  A    between atoms: C_7  and  C_3 
REMARK    2  A    between atoms: C_10  and  C_5 
REMARK    3  A    between atoms: C_9  and  C_7 
ROOT
ATOM      1  C   UNL d   1     -49.017  14.471  22.484  0.00  0.00     0.101 A 
ATOM      2  O   UNL d   1     -48.360  14.482  22.986  0.00  0.00    -0.307 OA
ATOM      3  C   UNL d   1     -47.717  14.138  22.595  0.00  0.00     0.101 A 
ATOM      4  C   UNL d   1     -48.768  14.117  21.780  0.00  0.00     0.027 A 
ATOM      5  C   UNL d   1     -47.982  13.917  21.851  0.00  0.00     0.027 A 
ENDROOT
BRANCH   3   6
ATOM      6  C   UNL d   1     -46.941  14.029  22.885  0.00  0.00     0.036 C 
BRANCH   6   7
ATOM      7  C   UNL d   1     -46.682  13.267  23.070  0.00  0.00     0.091 A 
ATOM      8  C   UNL d   1     -45.879  13.053  22.965  0.00  0.00     0.286 A 
ATOM      9  N   UNL d   1     -45.784  12.270  23.193  0.00  0.00    -0.190 NA
ATOM     10  O   UNL d   1     -45.277  13.557  22.676  0.00  0.00    -0.265 OA
ATOM     11  C   UNL d   1     -46.488  11.994  23.432  0.00  0.00     0.169 A 
ATOM     12  S   UNL d   1     -47.061  12.590  23.366  0.00  0.00    -0.052 SA
ATOM     13  S   UNL d   1     -46.603  11.230  23.698  0.00  0.00    -0.050 SA
ENDBRANCH   6   7
ENDBRANCH   3   6
BRANCH   1  14
ATOM     14  C   UNL d   1     -49.653  14.805  22.855  0.00  0.00     0.033 A 
ATOM     15  C   UNL d   1     -50.405  14.447  22.780  0.00  0.00     0.060 A 
ATOM     16 CL   UNL d   1     -50.501  13.765  22.335  0.00  0.00    -0.082 Cl
ATOM     17  C   UNL d   1     -51.063  14.774  23.151  0.00  0.00     0.011 A 
ATOM     18  C   UNL d   1     -50.971  15.463  23.600  0.00  0.00     0.001 A 
ATOM     19  C   UNL d   1     -50.219  15.821  23.675  0.00  0.00     0.000 A 
ATOM     20  C   UNL d   1     -49.579  15.481  23.299  0.00  0.00     0.003 A 
ENDBRANCH   1  14
TORSDOF 3
ENDMDL
MODEL 4
REMARK VINA RESULT:      -7.4      1.024      1.683
REMARK  3 active torsions:
REMARK  status: ('A' for Active; 'I' for Inactive)
REMARK    1  A    between atoms: C_7  and  C_3 
REMARK    2  A    between atoms: C_10  and  C_5 
REMARK    3  A    between atoms: C_9  and  C_7 
ROOT
ATOM      1  C   UNL d   1     -47.646  12.611  23.151  0.00  0.00     0.101 A 
ATOM      2  O   UNL d   1     -48.210  12.888  22.612  0.00  0.00    -0.307 OA
ATOM      3  C   UNL d   1     -48.953  12.593  22.826  0.00  0.00     0.101 A 
ATOM      4  C   UNL d   1     -48.054  12.143  23.696  0.00  0.00     0.027 A 
ATOM      5  C   UNL d   1     -48.843  12.134  23.496  0.00  0.00     0.027 A 
ENDROOT
BRANCH   3   6
ATOM      6  C   UNL d   1     -49.684  12.725  22.444  0.00  0.00     0.036 C 
BRANCH   6   7
ATOM      7  C   UNL d   1     -50.120  13.402  22.629  0.00  0.00     0.091 A 
ATOM      8  C   UNL d   1     -50.730  13.667  22.120  0.00  0.00     0.286 A 
ATOM      9  N   UNL d   1     -51.064  14.345  22.441  0.00  0.00    -0.190 NA
ATOM     10  O   UNL d   1     -50.959  13.299  21.404  0.00  0.00    -0.265 OA
ATOM     11  C   UNL d   1     -50.689  14.508  23.121  0.00  0.00     0.169 A 
ATOM     12  S   UNL d   1     -50.101  13.940  23.260  0.00  0.00    -0.052 SA
ATOM     13  S   UNL d   1     -50.876  15.148  23.594  0.00  0.00    -0.050 SA
ENDBRANCH   6   7
ENDBRANCH   3   6
BRANCH   1  14
ATOM     14  C   UNL d   1     -46.915  12.893  22.953  0.00  0.00     0.033 A 
ATOM     15  C   UNL d   1     -46.264  12.368  22.936  0.00  0.00     0.060 A 
ATOM     16 CL   UNL d   1     -46.363  11.575  23.117  0.00  0.00    -0.082 Cl
ATOM     17  C   UNL d   1     -45.513  12.639  22.737  0.00  0.00     0.011 A 
ATOM     18  C   UNL d   1     -45.409  13.439  22.554  0.00  0.00     0.001 A 
ATOM     19  C   UNL d   1     -46.059  13.964  22.571  0.00  0.00     0.000 A 
ATOM     20  C   UNL d   1     -46.796  13.676  22.771  0.00  0.00     0.003 A 
ENDBRANCH   1  14
TORSDOF 3
ENDMDL
MODEL 5
REMARK VINA RESULT:      -6.2      9.114     10.017
REMARK  3 active torsions:
REMARK  status: ('A' for Active; 'I' for Inactive)
REMARK    1  A    between atoms: C_7  and  C_3 
REMARK    2  A    between atoms: C_10  and  C_5 
REMARK    3  A    between atoms: C_9  and  C_7 
ROOT
ATOM      1  C   UNL d   1     -39.848  14.409  17.523  0.00  0.00     0.101 A 
ATOM      2  O   UNL d   1     -39.945  14.108  18.288  0.00  0.00    -0.307 OA
ATOM      3  C   UNL d   1     -40.588  14.488  18.646  0.00  0.00     0.101 A 
ATOM      4  C   UNL d   1     -40.439  14.977  17.418  0.00  0.00     0.027 A 
ATOM      5  C   UNL d   1     -40.883  15.021  18.099  0.00  0.00     0.027 A 
ENDROOT
BRANCH   3   6
ATOM      6  C   UNL d   1     -40.890  14.364  19.415  0.00  0.00     0.036 C 
BRANCH   6   7
ATOM      7  C   UNL d   1     -40.521  14.727  20.058  0.00  0.00     0.091 A 
ATOM      8  C   UNL d   1     -40.770  14.562  20.840  0.00  0.00     0.286 A 
ATOM      9  N   UNL d   1     -40.307  14.998  21.361  0.00  0.00    -0.190 NA
ATOM     10  O   UNL d   1     -41.387  14.039  21.053  0.00  0.00    -0.265 OA
ATOM     11  C   UNL d   1     -39.788  15.421  20.936  0.00  0.00     0.169 A 
ATOM     12  S   UNL d   1     -39.899  15.272  20.128  0.00  0.00    -0.052 SA
ATOM     13  S   UNL d   1     -39.237  15.922  21.272  0.00  0.00    -0.050 SA
ENDBRANCH   6   7
ENDBRANCH   3   6
BRANCH   1  14
ATOM     14  C   UNL d   1     -39.222  14.046  17.162  0.00  0.00     0.033 A 
ATOM     15  C   UNL d   1     -38.772  14.470  16.600  0.00  0.00     0.060 A 
ATOM     16 CL   UNL d   1     -38.959  15.246  16.414  0.00  0.00    -0.082 Cl
ATOM     17  C   UNL d   1     -38.132  14.115  16.223  0.00  0.00     0.011 A 
ATOM     18  C   UNL d   1     -37.940  13.332  16.407  0.00  0.00     0.001 A 
ATOM     19  C   UNL d   1     -38.391  12.908  16.969  0.00  0.00     0.000 A 
ATOM     20  C   UNL d   1     -39.021  13.278  17.332  0.00  0.00     0.003 A 
ENDBRANCH   1  14
TORSDOF 3
ENDMDL
MODEL 6
REMARK VINA RESULT:      -5.9      8.807      9.776
REMARK  3 active torsions:
REMARK  status: ('A' for Active; 'I' for Inactive)
REMARK    1  A    between atoms: C_7  and  C_3 
REMARK    2  A    between atoms: C_10  and  C_5 
REMARK    3  A    between atoms: C_9  and  C_7 
ROOT
ATOM      1  C   UNL d   1     -40.417  14.997  19.226  0.00  0.00     0.101 A 
ATOM      2  O   UNL d   1     -40.129  14.511  19.831  0.00  0.00    -0.307 OA
ATOM      3  C   UNL d   1     -40.383  14.812  20.559  0.00  0.00     0.101 A 
ATOM      4  C   UNL d   1     -40.849  15.597  19.593  0.00  0.00     0.027 A 
ATOM      5  C   UNL d   1     -40.826  15.482  20.398  0.00  0.00     0.027 A 
ENDROOT
BRANCH   3   6
ATOM      6  C   UNL d   1     -40.226  14.504  21.320  0.00  0.00     0.036 C 
BRANCH   6   7
ATOM      7  C   UNL d   1     -39.551  14.752  21.725  0.00  0.00     0.091 A 
ATOM      8  C   UNL d   1     -39.123  14.216  22.206  0.00  0.00     0.286 A 
ATOM      9  N   UNL d   1     -38.483  14.612  22.537  0.00  0.00    -0.190 NA
ATOM     10  O   UNL d   1     -39.317  13.412  22.328  0.00  0.00    -0.265 OA
ATOM     11  C   UNL d   1     -38.499  15.363  22.282  0.00  0.00     0.169 A 
ATOM     12  S   UNL d   1     -39.149  15.476  21.779  0.00  0.00    -0.052 SA
ATOM     13  S   UNL d   1     -37.943  15.922  22.499  0.00  0.00    -0.050 SA
ENDBRANCH   6   7
ENDBRANCH   3   6
BRANCH   1  14
ATOM     14  C   UNL d   1     -40.176  14.714  18.507  0.00  0.00     0.033 A 
ATOM     15  C   UNL d   1     -40.416  15.109  17.811  0.00  0.00     0.060 A 
ATOM     16 CL   UNL d   1     -40.891  15.775  17.850  0.00  0.00    -0.082 Cl
ATOM     17  C   UNL d   1     -40.179  14.834  17.072  0.00  0.00     0.011 A 
ATOM     18  C   UNL d   1     -39.700  14.161  17.027  0.00  0.00     0.001 A 
ATOM     19  C   UNL d   1     -39.459  13.767  17.724  0.00  0.00     0.000 A 
ATOM     20  C   UNL d   1     -39.705  14.055  18.447  0.00  0.00     0.003 A 
ENDBRANCH   1  14
TORSDOF 3
ENDMDL
