MODEL 1
REMARK VINA RESULT:      -8.3      0.000      0.000
REMARK  5 active torsions:
REMARK  status: ('A' for Active; 'I' for Inactive)
REMARK    1  A    between atoms: C_8  and  C_1 
REMARK    2  A    between atoms: N_9  and  C_8 
REMARK    3  A    between atoms: C_15  and  C_8 
REMARK    4  A    between atoms: C_16  and  N_11 
REMARK    5  A    between atoms: C_19  and  C_16 
ROOT
ATOM      1  C   UNL d   1      53.283  32.719  53.841  0.00  0.00     0.075 C 
ENDROOT
BRANCH   1   2
ATOM      2  C   UNL d   1      53.184  31.911  53.691  0.00  0.00     0.106 A 
ATOM      3  C   UNL d   1      53.165  31.551  52.939  0.00  0.00     0.290 A 
ATOM      4  N   UNL d   1      53.056  30.740  53.046  0.00  0.00    -0.169 N 
ATOM      5  O   UNL d   1      53.242  31.942  52.212  0.00  0.00    -0.265 OA
ATOM      6  N   UNL d   1      52.976  30.020  52.658  0.00  0.00    -0.138 NA
ATOM      7  C   UNL d   1      53.008  30.595  53.860  0.00  0.00     0.200 A 
ATOM      8  C   UNL d   1      52.879  29.427  53.224  0.00  0.00     0.222 A 
ATOM      9  N   UNL d   1      52.899  29.785  53.968  0.00  0.00    -0.197 NA
ATOM     10  S   UNL d   1      53.086  31.314  54.258  0.00  0.00    -0.042 SA
ENDBRANCH   1   2
BRANCH   1  11
ATOM     11  N   UNL d   1      52.682  33.244  53.637  0.00  0.00    -0.301 N 
ATOM     12  C   UNL d   1      52.820  33.818  53.056  0.00  0.00     0.100 A 
ATOM     13  C   UNL d   1      52.220  34.349  52.846  0.00  0.00     0.100 A 
ATOM     14  N   UNL d   1      51.472  34.306  53.219  0.00  0.00    -0.300 N 
ATOM     15  C   UNL d   1      51.345  33.728  53.798  0.00  0.00     0.100 A 
ATOM     16  C   UNL d   1      51.947  33.203  54.003  0.00  0.00     0.100 A 
BRANCH  14  17
ATOM     17  C   UNL d   1      50.878  34.828  53.014  0.00  0.00     0.080 C 
BRANCH  17  18
ATOM     18  C   UNL d   1      50.328  34.620  52.437  0.00  0.00     0.018 A 
ATOM     19  C   UNL d   1      50.577  34.403  51.683  0.00  0.00     0.002 A 
ATOM     20  C   UNL d   1      50.034  34.197  51.109  0.00  0.00     0.000 A 
ATOM     21  C   UNL d   1      49.227  34.205  51.284  0.00  0.00     0.000 A 
ATOM     22  C   UNL d   1      48.969  34.423  52.040  0.00  0.00     0.000 A 
ATOM     23  C   UNL d   1      49.524  34.630  52.614  0.00  0.00     0.002 A 
ENDBRANCH  17  18
ENDBRANCH  14  17
ENDBRANCH   1  11
BRANCH   1  24
ATOM     24  C   UNL d   1      53.975  32.991  54.189  0.00  0.00     0.017 A 
ATOM     25  C   UNL d   1      53.992  33.111  55.008  0.00  0.00     0.002 A 
ATOM     26  C   UNL d   1      54.691  33.386  55.357  0.00  0.00     0.000 A 
ATOM     27  C   UNL d   1      55.346  33.534  54.909  0.00  0.00     0.000 A 
ATOM     28  C   UNL d   1      55.309  33.406  54.079  0.00  0.00     0.000 A 
ATOM     29  C   UNL d   1      54.633  33.139  53.729  0.00  0.00     0.002 A 
ENDBRANCH   1  24
TORSDOF 5
ENDMDL
MODEL 2
REMARK VINA RESULT:      -8.2      1.569      4.339
REMARK  5 active torsions:
REMARK  status: ('A' for Active; 'I' for Inactive)
REMARK    1  A    between atoms: C_8  and  C_1 
REMARK    2  A    between atoms: N_9  and  C_8 
REMARK    3  A    between atoms: C_15  and  C_8 
REMARK    4  A    between atoms: C_16  and  N_11 
REMARK    5  A    between atoms: C_19  and  C_16 
ROOT
ATOM      1  C   UNL d   1      51.989  33.654  53.222  0.00  0.00     0.075 C 
ENDROOT
BRANCH   1   2
ATOM      2  C   UNL d   1      51.282  33.942  52.901  0.00  0.00     0.106 A 
ATOM      3  C   UNL d   1      51.164  34.178  52.109  0.00  0.00     0.290 A 
ATOM      4  N   UNL d   1      50.381  34.426  52.031  0.00  0.00    -0.169 N 
ATOM      5  O   UNL d   1      51.734  34.163  51.508  0.00  0.00    -0.265 OA
ATOM      6  N   UNL d   1      49.824  34.723  51.504  0.00  0.00    -0.138 NA
ATOM      7  C   UNL d   1      50.013  34.347  52.769  0.00  0.00     0.200 A 
ATOM      8  C   UNL d   1      49.112  34.828  51.909  0.00  0.00     0.222 A 
ATOM      9  N   UNL d   1      49.231  34.595  52.691  0.00  0.00    -0.197 NA
ATOM     10  S   UNL d   1      50.566  34.049  53.304  0.00  0.00    -0.042 SA
ENDBRANCH   1   2
BRANCH   1  11
ATOM     11  N   UNL d   1      52.200  32.868  53.092  0.00  0.00    -0.301 N 
ATOM     12  C   UNL d   1      51.691  32.263  53.338  0.00  0.00     0.100 A 
ATOM     13  C   UNL d   1      51.896  31.471  53.211  0.00  0.00     0.100 A 
ATOM     14  N   UNL d   1      52.618  31.280  52.834  0.00  0.00    -0.300 N 
ATOM     15  C   UNL d   1      53.119  31.893  52.592  0.00  0.00     0.100 A 
ATOM     16  C   UNL d   1      52.909  32.680  52.721  0.00  0.00     0.100 A 
BRANCH  14  17
ATOM     17  C   UNL d   1      52.823  30.499  52.707  0.00  0.00     0.080 C 
BRANCH  17  18
ATOM     18  C   UNL d   1      53.043  30.022  53.341  0.00  0.00     0.018 A 
ATOM     19  C   UNL d   1      53.780  30.116  53.697  0.00  0.00     0.002 A 
ATOM     20  C   UNL d   1      54.001  29.645  54.326  0.00  0.00     0.000 A 
ATOM     21  C   UNL d   1      53.483  29.068  54.610  0.00  0.00     0.000 A 
ATOM     22  C   UNL d   1      52.740  28.968  54.258  0.00  0.00     0.000 A 
ATOM     23  C   UNL d   1      52.525  29.448  53.623  0.00  0.00     0.002 A 
ENDBRANCH  17  18
ENDBRANCH  14  17
ENDBRANCH   1  11
BRANCH   1  24
ATOM     24  C   UNL d   1      52.472  34.150  53.664  0.00  0.00     0.017 A 
ATOM     25  C   UNL d   1      52.502  34.052  54.486  0.00  0.00     0.002 A 
ATOM     26  C   UNL d   1      52.990  34.553  54.929  0.00  0.00     0.000 A 
ATOM     27  C   UNL d   1      53.429  35.126  54.570  0.00  0.00     0.000 A 
ATOM     28  C   UNL d   1      53.385  35.209  53.735  0.00  0.00     0.000 A 
ATOM     29  C   UNL d   1      52.913  34.727  53.293  0.00  0.00     0.002 A 
ENDBRANCH   1  24
TORSDOF 5
ENDMDL
MODEL 3
REMARK VINA RESULT:      -7.9      1.570      4.661
REMARK  5 active torsions:
REMARK  status: ('A' for Active; 'I' for Inactive)
REMARK    1  A    between atoms: C_8  and  C_1 
REMARK    2  A    between atoms: N_9  and  C_8 
REMARK    3  A    between atoms: C_15  and  C_8 
REMARK    4  A    between atoms: C_16  and  N_11 
REMARK    5  A    between atoms: C_19  and  C_16 
ROOT
ATOM      1  C   UNL d   1      51.876  33.642  53.114  0.00  0.00     0.075 C 
ENDROOT
BRANCH   1   2
ATOM      2  C   UNL d   1      52.324  34.134  53.607  0.00  0.00     0.106 A 
ATOM      3  C   UNL d   1      52.851  34.730  53.357  0.00  0.00     0.290 A 
ATOM      4  N   UNL d   1      53.177  35.082  54.028  0.00  0.00    -0.169 N 
ATOM      5  O   UNL d   1      53.017  34.931  52.570  0.00  0.00    -0.265 OA
ATOM      6  N   UNL d   1      53.698  35.660  54.293  0.00  0.00    -0.138 NA
ATOM      7  C   UNL d   1      52.855  34.708  54.693  0.00  0.00     0.200 A 
ATOM      8  C   UNL d   1      53.702  35.649  55.118  0.00  0.00     0.222 A 
ATOM      9  N   UNL d   1      53.180  35.060  55.365  0.00  0.00    -0.197 NA
ATOM     10  S   UNL d   1      52.331  34.125  54.436  0.00  0.00    -0.042 SA
ENDBRANCH   1   2
BRANCH   1  11
ATOM     11  N   UNL d   1      52.111  32.859  53.005  0.00  0.00    -0.301 N 
ATOM     12  C   UNL d   1      51.624  32.246  53.272  0.00  0.00     0.100 A 
ATOM     13  C   UNL d   1      51.853  31.457  53.166  0.00  0.00     0.100 A 
ATOM     14  N   UNL d   1      52.578  31.279  52.788  0.00  0.00    -0.300 N 
ATOM     15  C   UNL d   1      53.058  31.900  52.525  0.00  0.00     0.100 A 
ATOM     16  C   UNL d   1      52.823  32.683  52.634  0.00  0.00     0.100 A 
BRANCH  14  17
ATOM     17  C   UNL d   1      52.807  30.501  52.682  0.00  0.00     0.080 C 
BRANCH  17  18
ATOM     18  C   UNL d   1      53.030  30.045  53.331  0.00  0.00     0.018 A 
ATOM     19  C   UNL d   1      53.760  30.163  53.692  0.00  0.00     0.002 A 
ATOM     20  C   UNL d   1      53.984  29.712  54.335  0.00  0.00     0.000 A 
ATOM     21  C   UNL d   1      53.475  29.132  54.628  0.00  0.00     0.000 A 
ATOM     22  C   UNL d   1      52.738  29.007  54.269  0.00  0.00     0.000 A 
ATOM     23  C   UNL d   1      52.521  29.467  53.620  0.00  0.00     0.002 A 
ENDBRANCH  17  18
ENDBRANCH  14  17
ENDBRANCH   1  11
BRANCH   1  24
ATOM     24  C   UNL d   1      51.206  33.934  52.740  0.00  0.00     0.017 A 
ATOM     25  C   UNL d   1      50.520  34.056  53.185  0.00  0.00     0.002 A 
ATOM     26  C   UNL d   1      49.845  34.351  52.804  0.00  0.00     0.000 A 
ATOM     27  C   UNL d   1      49.856  34.516  52.015  0.00  0.00     0.000 A 
ATOM     28  C   UNL d   1      50.563  34.385  51.581  0.00  0.00     0.000 A 
ATOM     29  C   UNL d   1      51.225  34.098  51.941  0.00  0.00     0.002 A 
ENDBRANCH   1  24
TORSDOF 5
ENDMDL
MODEL 4
REMARK VINA RESULT:      -7.7      1.216      2.544
REMARK  5 active torsions:
REMARK  status: ('A' for Active; 'I' for Inactive)
REMARK    1  A    between atoms: C_8  and  C_1 
REMARK    2  A    between atoms: N_9  and  C_8 
REMARK    3  A    between atoms: C_15  and  C_8 
REMARK    4  A    between atoms: C_16  and  N_11 
REMARK    5  A    between atoms: C_19  and  C_16 
ROOT
ATOM      1  C   UNL d   1      52.949  32.661  53.605  0.00  0.00     0.075 C 
ENDROOT
BRANCH   1   2
ATOM      2  C   UNL d   1      53.593  32.939  54.045  0.00  0.00     0.106 A 
ATOM      3  C   UNL d   1      54.339  33.151  53.741  0.00  0.00     0.290 A 
ATOM      4  N   UNL d   1      54.812  33.396  54.371  0.00  0.00    -0.169 N 
ATOM      5  O   UNL d   1      54.565  33.121  52.944  0.00  0.00    -0.265 OA
ATOM      6  N   UNL d   1      55.557  33.677  54.578  0.00  0.00    -0.138 NA
ATOM      7  C   UNL d   1      54.363  33.337  55.065  0.00  0.00     0.200 A 
ATOM      8  C   UNL d   1      55.575  33.793  55.395  0.00  0.00     0.222 A 
ATOM      9  N   UNL d   1      54.836  33.582  55.695  0.00  0.00    -0.197 NA
ATOM     10  S   UNL d   1      53.614  33.056  54.866  0.00  0.00    -0.042 SA
ENDBRANCH   1   2
BRANCH   1  11
ATOM     11  N   UNL d   1      52.345  33.183  53.401  0.00  0.00    -0.301 N 
ATOM     12  C   UNL d   1      51.609  33.125  53.778  0.00  0.00     0.100 A 
ATOM     13  C   UNL d   1      50.998  33.646  53.578  0.00  0.00     0.100 A 
ATOM     14  N   UNL d   1      51.121  34.233  52.995  0.00  0.00    -0.300 N 
ATOM     15  C   UNL d   1      51.860  34.283  52.625  0.00  0.00     0.100 A 
ATOM     16  C   UNL d   1      52.465  33.761  52.828  0.00  0.00     0.100 A 
BRANCH  14  17
ATOM     17  C   UNL d   1      50.519  34.750  52.796  0.00  0.00     0.080 C 
BRANCH  17  18
ATOM     18  C   UNL d   1      50.021  34.577  52.163  0.00  0.00     0.018 A 
ATOM     19  C   UNL d   1      50.333  34.421  51.418  0.00  0.00     0.002 A 
ATOM     20  C   UNL d   1      49.842  34.250  50.789  0.00  0.00     0.000 A 
ATOM     21  C   UNL d   1      49.023  34.232  50.899  0.00  0.00     0.000 A 
ATOM     22  C   UNL d   1      48.702  34.388  51.646  0.00  0.00     0.000 A 
ATOM     23  C   UNL d   1      49.206  34.560  52.275  0.00  0.00     0.002 A 
ENDBRANCH  17  18
ENDBRANCH  14  17
ENDBRANCH   1  11
BRANCH   1  24
ATOM     24  C   UNL d   1      52.916  31.873  53.376  0.00  0.00     0.017 A 
ATOM     25  C   UNL d   1      52.832  31.290  53.957  0.00  0.00     0.002 A 
ATOM     26  C   UNL d   1      52.799  30.496  53.722  0.00  0.00     0.000 A 
ATOM     27  C   UNL d   1      52.848  30.293  52.943  0.00  0.00     0.000 A 
ATOM     28  C   UNL d   1      52.934  30.900  52.369  0.00  0.00     0.000 A 
ATOM     29  C   UNL d   1      52.967  31.676  52.586  0.00  0.00     0.002 A 
ENDBRANCH   1  24
TORSDOF 5
ENDMDL
