MODEL 1
REMARK VINA RESULT:      10.8      0.000      0.000
REMARK  1 active torsions:
REMARK  status: ('A' for Active; 'I' for Inactive)
REMARK    1  A    between atoms: C_2  and  N_1 
ROOT
ATOM      1  C   UNL d   1      13.665  12.412  -2.889  0.00  0.00     0.130 A 
ATOM      2  C   UNL d   1      14.419  12.656  -2.794  0.00  0.00     0.067 A 
ATOM      3  C   UNL d   1      14.788  12.628  -2.051  0.00  0.00     0.215 A 
ATOM      4  C   UNL d   1      14.368  12.345  -1.399  0.00  0.00     0.120 A 
ATOM      5  C   UNL d   1      13.225  12.124  -2.246  0.00  0.00     0.025 A 
ATOM      6  C   UNL d   1      13.573  12.089  -1.499  0.00  0.00     0.022 A 
ATOM      7  N   UNL d   1      14.717  12.311  -0.657  0.00  0.00    -0.241 NA
ATOM      8  O   UNL d   1      15.563  12.878  -1.954  0.00  0.00    -0.285 OA
ATOM      9  C   UNL d   1      13.154  11.807  -0.852  0.00  0.00     0.003 A 
ATOM     10  C   UNL d   1      14.277  12.022  -0.014  0.00  0.00     0.099 A 
ATOM     11  C   UNL d   1      13.523  11.779  -0.108  0.00  0.00     0.021 A 
ENDROOT
BRANCH   1  12
ATOM     12  N   UNL d   1      13.348  12.460  -3.641  0.00  0.00    -0.114 N 
ATOM     13  O   UNL d   1      13.122  13.196  -3.936  0.00  0.00    -0.532 OA
ATOM     14  O   UNL d   1      13.262  11.779  -4.082  0.00  0.00    -0.532 OA
ENDBRANCH   1  12
TORSDOF 1
ENDMDL
MODEL 2
REMARK VINA RESULT:      11.9      8.625      9.767
REMARK  1 active torsions:
REMARK  status: ('A' for Active; 'I' for Inactive)
REMARK    1  A    between atoms: C_2  and  N_1 
ROOT
ATOM      1  C   UNL d   1      22.711  13.187  -0.996  0.00  0.00     0.130 A 
ATOM      2  C   UNL d   1      23.379  13.189  -0.559  0.00  0.00     0.067 A 
ATOM      3  C   UNL d   1      24.078  12.843  -0.844  0.00  0.00     0.215 A 
ATOM      4  C   UNL d   1      24.081  12.491  -1.591  0.00  0.00     0.120 A 
ATOM      5  C   UNL d   1      22.693  12.838  -1.749  0.00  0.00     0.025 A 
ATOM      6  C   UNL d   1      23.377  12.488  -2.051  0.00  0.00     0.022 A 
ATOM      7  N   UNL d   1      24.763  12.144  -1.889  0.00  0.00    -0.241 NA
ATOM      8  O   UNL d   1      24.764  12.845  -0.396  0.00  0.00    -0.285 OA
ATOM      9  C   UNL d   1      23.378  12.139  -2.793  0.00  0.00     0.003 A 
ATOM     10  C   UNL d   1      24.745  11.795  -2.642  0.00  0.00     0.099 A 
ATOM     11  C   UNL d   1      24.077  11.793  -3.079  0.00  0.00     0.021 A 
ENDROOT
BRANCH   1  12
ATOM     12  N   UNL d   1      22.050  13.541  -0.670  0.00  0.00    -0.114 N 
ATOM     13  O   UNL d   1      22.140  14.035  -0.015  0.00  0.00    -0.532 OA
ATOM     14  O   UNL d   1      21.317  13.398  -0.998  0.00  0.00    -0.532 OA
ENDBRANCH   1  12
TORSDOF 1
ENDMDL
