MODEL 1
REMARK VINA RESULT:      13.0      0.000      0.000
REMARK  5 active torsions:
REMARK  status: ('A' for Active; 'I' for Inactive)
REMARK    1  A    between atoms: C_10  and  C_3 
REMARK    2  A    between atoms: N_9  and  C_4 
REMARK    3  A    between atoms: C_16  and  N_12 
REMARK    4  A    between atoms: O_21  and  C_15 
REMARK    5  A    between atoms: C_20  and  C_16 
ROOT
ATOM      1  N   UNL d   1     -42.126-122.690 -51.054  0.00  0.00    -0.196 N 
ATOM      2  C   UNL d   1     -42.302-122.444 -50.290  0.00  0.00     0.167 A 
ATOM      3  C   UNL d   1     -41.983-122.807 -49.675  0.00  0.00     0.057 A 
ATOM      4  C   UNL d   1     -42.471-122.296 -51.667  0.00  0.00     0.152 A 
ATOM      5  N   UNL d   1     -41.307-123.665 -50.539  0.00  0.00    -0.163 NA
ATOM      6  C   UNL d   1     -41.477-123.426 -49.797  0.00  0.00     0.104 A 
ATOM      7  N   UNL d   1     -42.812-121.818 -50.184  0.00  0.00    -0.227 NA
ATOM      8  C   UNL d   1     -42.965-121.690 -51.557  0.00  0.00     0.057 A 
ATOM      9  C   UNL d   1     -43.138-121.447 -50.804  0.00  0.00     0.086 A 
ATOM     10  C   UNL d   1     -41.134-123.817 -49.150  0.00  0.00     0.023 C 
ATOM     11  C   UNL d   1     -43.660-120.807 -50.687  0.00  0.00     0.021 C 
ENDROOT
BRANCH   4  12
ATOM     12  N   UNL d   1     -42.291-122.547 -52.447  0.00  0.00    -0.286 N 
ATOM     13  C   UNL d   1     -41.678-122.045 -52.673  0.00  0.00     0.101 A 
ATOM     14  C   UNL d   1     -41.335-122.116 -53.430  0.00  0.00     0.100 A 
ATOM     15  N   UNL d   1     -41.603-122.691 -53.968  0.00  0.00    -0.300 N 
ATOM     16  C   UNL d   1     -42.225-123.201 -53.741  0.00  0.00     0.100 A 
ATOM     17  C   UNL d   1     -42.575-123.136 -52.980  0.00  0.00     0.101 A 
BRANCH  15  18
ATOM     18  C   UNL d   1     -41.250-122.753 -54.728  0.00  0.00     0.080 C 
BRANCH  18  19
ATOM     19  C   UNL d   1     -41.602-122.355 -55.376  0.00  0.00     0.018 A 
ATOM     20  C   UNL d   1     -41.142-121.854 -55.855  0.00  0.00     0.002 A 
ATOM     21  C   UNL d   1     -41.495-121.458 -56.503  0.00  0.00     0.000 A 
ATOM     22  C   UNL d   1     -42.300-121.571 -56.656  0.00  0.00     0.000 A 
ATOM     23  C   UNL d   1     -42.761-122.075 -56.174  0.00  0.00     0.000 A 
ATOM     24  C   UNL d   1     -42.404-122.463 -55.535  0.00  0.00     0.002 A 
ENDBRANCH  18  19
ENDBRANCH  15  18
ENDBRANCH   4  12
BRANCH   3  25
ATOM     25  C   UNL d   1     -42.155-122.565 -48.927  0.00  0.00     0.027 A 
ATOM     26  C   UNL d   1     -42.881-122.721 -48.605  0.00  0.00     0.094 A 
ATOM     27  C   UNL d   1     -43.052-122.481 -47.860  0.00  0.00     0.024 A 
ATOM     28  C   UNL d   1     -42.498-122.085 -47.435  0.00  0.00     0.002 A 
ATOM     29  C   UNL d   1     -41.783-121.934 -47.758  0.00  0.00     0.000 A 
ATOM     30  C   UNL d   1     -41.614-122.170 -48.491  0.00  0.00     0.002 A 
BRANCH  26  31
ATOM     31  O   UNL d   1     -43.450-123.133 -49.055  0.00  0.00    -0.328 OA
ATOM     32  C   UNL d   1     -43.818-123.816 -48.735  0.00  0.00     0.181 C 
ENDBRANCH  26  31
ENDBRANCH   3  25
TORSDOF 5
ENDMDL
