MODEL 1
REMARK VINA RESULT:      -2.9      0.000      0.000
REMARK  3 active torsions:
REMARK  status: ('A' for Active; 'I' for Inactive)
REMARK    1  A    between atoms: C_15  and  N_5 
REMARK    2  A    between atoms: C_21  and  C_15 
REMARK    3  A    between atoms: O_20  and  C_21 
ROOT
ATOM      1  C   UNL d   1      33.224  19.905 -22.571  0.00  0.00     0.137 A 
ATOM      2  C   UNL d   1      33.220  19.401 -21.918  0.00  0.00     0.192 A 
ATOM      3  C   UNL d   1      33.231  20.715 -22.471  0.00  0.00     0.272 A 
ATOM      4  N   UNL d   1      33.222  19.714 -21.155  0.00  0.00    -0.204 NA
ATOM      5  N   UNL d   1      33.233  21.036 -21.697  0.00  0.00    -0.256 N 
ATOM      6  C   UNL d   1      33.222  19.593 -23.335  0.00  0.00     0.205 A 
ATOM      7  C   UNL d   1      33.229  20.533 -21.054  0.00  0.00     0.152 A 
ATOM      8  C   UNL d   1      33.216  18.775 -23.446  0.00  0.00     0.062 A 
ATOM      9  O   UNL d   1      33.214  18.585 -22.037  0.00  0.00    -0.289 OA
ATOM     10  C   UNL d   1      33.212  18.271 -22.792  0.00  0.00     0.105 A 
ATOM     11  O   UNL d   1      33.235  21.219 -23.124  0.00  0.00    -0.266 OA
ATOM     12  O   UNL d   1      33.227  20.088 -23.990  0.00  0.00    -0.286 OA
ATOM     13  C   UNL d   1      33.214  18.467 -24.209  0.00  0.00     0.012 A 
ATOM     14  C   UNL d   1      33.206  17.458 -22.902  0.00  0.00     0.025 A 
ATOM     15  C   UNL d   1      33.208  17.645 -24.320  0.00  0.00     0.035 A 
ATOM     16  C   UNL d   1      33.231  20.847 -20.295  0.00  0.00     0.041 C 
ATOM     17  C   UNL d   1      33.203  17.145 -23.666  0.00  0.00     0.009 A 
ATOM     18 BR   UNL d   1      33.206  17.325 -25.094  0.00  0.00    -0.049 Br
ENDROOT
BRANCH   5  19
ATOM     19  C   UNL d   1      33.239  21.858 -21.586  0.00  0.00     0.111 C 
BRANCH  19  20
ATOM     20  C   UNL d   1      32.545  22.250 -21.375  0.00  0.00     0.135 C 
BRANCH  20  21
ATOM     21  O   UNL d   1      32.524  23.075 -21.367  0.00  0.00    -0.325 OA
ATOM     22  C   UNL d   1      31.833  23.468 -21.144  0.00  0.00     0.182 C 
ENDBRANCH  20  21
ENDBRANCH  19  20
ENDBRANCH   5  19
TORSDOF 3
ENDMDL
MODEL 2
REMARK VINA RESULT:      -2.7      3.472      4.656
REMARK  3 active torsions:
REMARK  status: ('A' for Active; 'I' for Inactive)
REMARK    1  A    between atoms: C_15  and  N_5 
REMARK    2  A    between atoms: C_21  and  C_15 
REMARK    3  A    between atoms: O_20  and  C_21 
ROOT
ATOM      1  C   UNL d   1      30.794  17.050 -24.148  0.00  0.00     0.137 A 
ATOM      2  C   UNL d   1      31.148  16.520 -23.624  0.00  0.00     0.192 A 
ATOM      3  C   UNL d   1      31.247  17.580 -24.572  0.00  0.00     0.272 A 
ATOM      4  N   UNL d   1      31.966  16.522 -23.524  0.00  0.00    -0.204 NA
ATOM      5  N   UNL d   1      32.079  17.585 -24.472  0.00  0.00    -0.256 N 
ATOM      6  C   UNL d   1      29.975  17.048 -24.248  0.00  0.00     0.205 A 
ATOM      7  C   UNL d   1      32.424  17.058 -23.952  0.00  0.00     0.152 A 
ATOM      8  C   UNL d   1      29.509  16.515 -23.824  0.00  0.00     0.062 A 
ATOM      9  O   UNL d   1      30.675  15.990 -23.204  0.00  0.00    -0.289 OA
ATOM     10  C   UNL d   1      29.863  15.985 -23.300  0.00  0.00     0.105 A 
ATOM     11  O   UNL d   1      30.893  18.110 -25.096  0.00  0.00    -0.266 OA
ATOM     12  O   UNL d   1      29.616  17.572 -24.768  0.00  0.00    -0.286 OA
ATOM     13  C   UNL d   1      28.693  16.516 -23.927  0.00  0.00     0.012 A 
ATOM     14  C   UNL d   1      29.400  15.455 -22.878  0.00  0.00     0.025 A 
ATOM     15  C   UNL d   1      28.224  15.980 -23.500  0.00  0.00     0.035 A 
ATOM     16  C   UNL d   1      33.240  17.062 -23.854  0.00  0.00     0.041 C 
ATOM     17  C   UNL d   1      28.580  15.453 -22.978  0.00  0.00     0.009 A 
ATOM     18 BR   UNL d   1      27.393  15.976 -23.600  0.00  0.00    -0.049 Br
ENDROOT
BRANCH   5  19
ATOM     19  C   UNL d   1      32.547  18.120 -24.899  0.00  0.00     0.111 C 
BRANCH  19  20
ATOM     20  C   UNL d   1      32.732  18.856 -24.573  0.00  0.00     0.135 C 
BRANCH  20  21
ATOM     21  O   UNL d   1      33.064  19.444 -25.047  0.00  0.00    -0.325 OA
ATOM     22  C   UNL d   1      33.086  20.224 -24.780  0.00  0.00     0.182 C 
ENDBRANCH  20  21
ENDBRANCH  19  20
ENDBRANCH   5  19
TORSDOF 3
ENDMDL
MODEL 3
REMARK VINA RESULT:      -2.5      1.296      2.091
REMARK  3 active torsions:
REMARK  status: ('A' for Active; 'I' for Inactive)
REMARK    1  A    between atoms: C_15  and  N_5 
REMARK    2  A    between atoms: C_21  and  C_15 
REMARK    3  A    between atoms: O_20  and  C_21 
ROOT
ATOM      1  C   UNL d   1      33.238  20.887 -21.643  0.00  0.00     0.137 A 
ATOM      2  C   UNL d   1      33.237  21.291 -22.362  0.00  0.00     0.192 A 
ATOM      3  C   UNL d   1      33.239  21.297 -20.937  0.00  0.00     0.272 A 
ATOM      4  N   UNL d   1      33.238  22.115 -22.374  0.00  0.00    -0.204 NA
ATOM      5  N   UNL d   1      33.239  22.135 -20.945  0.00  0.00    -0.256 N 
ATOM      6  C   UNL d   1      33.237  20.062 -21.631  0.00  0.00     0.205 A 
ATOM      7  C   UNL d   1      33.238  22.530 -21.660  0.00  0.00     0.152 A 
ATOM      8  C   UNL d   1      33.237  19.640 -22.340  0.00  0.00     0.062 A 
ATOM      9  O   UNL d   1      33.236  20.861 -23.067  0.00  0.00    -0.289 OA
ATOM     10  C   UNL d   1      33.236  20.044 -23.059  0.00  0.00     0.105 A 
ATOM     11  O   UNL d   1      33.239  20.893 -20.217  0.00  0.00    -0.266 OA
ATOM     12  O   UNL d   1      33.238  19.654 -20.919  0.00  0.00    -0.286 OA
ATOM     13  C   UNL d   1      33.236  18.818 -22.324  0.00  0.00     0.012 A 
ATOM     14  C   UNL d   1      33.235  19.624 -23.764  0.00  0.00     0.025 A 
ATOM     15  C   UNL d   1      33.235  18.393 -23.037  0.00  0.00     0.035 A 
ATOM     16  C   UNL d   1      33.239  23.351 -21.668  0.00  0.00     0.041 C 
ATOM     17  C   UNL d   1      33.235  18.799 -23.753  0.00  0.00     0.009 A 
ATOM     18 BR   UNL d   1      33.235  17.556 -23.028  0.00  0.00    -0.049 Br
ENDROOT
BRANCH   5  19
ATOM     19  C   UNL d   1      33.240  22.559 -20.232  0.00  0.00     0.111 C 
BRANCH  19  20
ATOM     20  C   UNL d   1      32.535  22.873 -19.939  0.00  0.00     0.135 C 
BRANCH  20  21
ATOM     21  O   UNL d   1      32.556  23.500 -19.403  0.00  0.00    -0.325 OA
ATOM     22  C   UNL d   1      32.266  23.398 -18.638  0.00  0.00     0.182 C 
ENDBRANCH  20  21
ENDBRANCH  19  20
ENDBRANCH   5  19
TORSDOF 3
ENDMDL
MODEL 4
REMARK VINA RESULT:      -2.2      1.861      4.087
REMARK  3 active torsions:
REMARK  status: ('A' for Active; 'I' for Inactive)
REMARK    1  A    between atoms: C_15  and  N_5 
REMARK    2  A    between atoms: C_21  and  C_15 
REMARK    3  A    between atoms: O_20  and  C_21 
ROOT
ATOM      1  C   UNL d   1      33.194  20.103 -22.476  0.00  0.00     0.137 A 
ATOM      2  C   UNL d   1      33.199  19.684 -21.766  0.00  0.00     0.192 A 
ATOM      3  C   UNL d   1      33.205  19.710 -23.191  0.00  0.00     0.272 A 
ATOM      4  N   UNL d   1      33.214  18.859 -21.773  0.00  0.00    -0.204 NA
ATOM      5  N   UNL d   1      33.221  18.872 -23.202  0.00  0.00    -0.256 N 
ATOM      6  C   UNL d   1      33.179  20.928 -22.469  0.00  0.00     0.205 A 
ATOM      7  C   UNL d   1      33.225  18.461 -22.496  0.00  0.00     0.152 A 
ATOM      8  C   UNL d   1      33.168  21.334 -21.751  0.00  0.00     0.062 A 
ATOM      9  O   UNL d   1      33.188  20.097 -21.052  0.00  0.00    -0.289 OA
ATOM     10  C   UNL d   1      33.172  20.914 -21.041  0.00  0.00     0.105 A 
ATOM     11  O   UNL d   1      33.201  20.129 -23.902  0.00  0.00    -0.266 OA
ATOM     12  O   UNL d   1      33.175  21.352 -23.172  0.00  0.00    -0.286 OA
ATOM     13  C   UNL d   1      33.153  22.157 -21.749  0.00  0.00     0.012 A 
ATOM     14  C   UNL d   1      33.161  21.318 -20.327  0.00  0.00     0.025 A 
ATOM     15  C   UNL d   1      33.142  22.565 -21.026  0.00  0.00     0.035 A 
ATOM     16  C   UNL d   1      33.241  17.640 -22.506  0.00  0.00     0.041 C 
ATOM     17  C   UNL d   1      33.146  22.143 -20.319  0.00  0.00     0.009 A 
ATOM     18 BR   UNL d   1      33.126  23.402 -21.016  0.00  0.00    -0.049 Br
ENDROOT
BRANCH   5  19
ATOM     19  C   UNL d   1      33.232  18.464 -23.924  0.00  0.00     0.111 C 
BRANCH  19  20
ATOM     20  C   UNL d   1      32.579  18.015 -24.153  0.00  0.00     0.135 C 
BRANCH  20  21
ATOM     21  O   UNL d   1      32.545  17.695 -24.913  0.00  0.00    -0.325 OA
ATOM     22  C   UNL d   1      32.065  17.041 -25.064  0.00  0.00     0.182 C 
ENDBRANCH  20  21
ENDBRANCH  19  20
ENDBRANCH   5  19
TORSDOF 3
ENDMDL
MODEL 5
REMARK VINA RESULT:      -1.2      1.323      2.081
REMARK  3 active torsions:
REMARK  status: ('A' for Active; 'I' for Inactive)
REMARK    1  A    between atoms: C_15  and  N_5 
REMARK    2  A    between atoms: C_21  and  C_15 
REMARK    3  A    between atoms: O_20  and  C_21 
ROOT
ATOM      1  C   UNL d   1      32.755  19.149 -23.400  0.00  0.00     0.137 A 
ATOM      2  C   UNL d   1      32.757  19.345 -24.202  0.00  0.00     0.192 A 
ATOM      3  C   UNL d   1      32.913  19.715 -22.834  0.00  0.00     0.272 A 
ATOM      4  N   UNL d   1      32.919  20.118 -24.438  0.00  0.00    -0.204 NA
ATOM      5  N   UNL d   1      33.078  20.502 -23.070  0.00  0.00    -0.256 N 
ATOM      6  C   UNL d   1      32.593  18.375 -23.164  0.00  0.00     0.205 A 
ATOM      7  C   UNL d   1      33.079  20.691 -23.865  0.00  0.00     0.152 A 
ATOM      8  C   UNL d   1      32.433  17.797 -23.729  0.00  0.00     0.062 A 
ATOM      9  O   UNL d   1      32.596  18.760 -24.761  0.00  0.00    -0.289 OA
ATOM     10  C   UNL d   1      32.435  17.993 -24.531  0.00  0.00     0.105 A 
ATOM     11  O   UNL d   1      32.911  19.520 -22.032  0.00  0.00    -0.266 OA
ATOM     12  O   UNL d   1      32.590  18.173 -22.368  0.00  0.00    -0.286 OA
ATOM     13  C   UNL d   1      32.272  17.027 -23.489  0.00  0.00     0.012 A 
ATOM     14  C   UNL d   1      32.275  17.418 -25.093  0.00  0.00     0.025 A 
ATOM     15  C   UNL d   1      32.110  16.444 -24.058  0.00  0.00     0.035 A 
ATOM     16  C   UNL d   1      33.240  21.462 -24.098  0.00  0.00     0.041 C 
ATOM     17  C   UNL d   1      32.113  16.643 -24.857  0.00  0.00     0.009 A 
ATOM     18 BR   UNL d   1      31.945  15.658 -23.822  0.00  0.00    -0.049 Br
ENDROOT
BRANCH   5  19
ATOM     19  C   UNL d   1      33.240  21.084 -22.502  0.00  0.00     0.111 C 
BRANCH  19  20
ATOM     20  C   UNL d   1      32.619  21.500 -22.151  0.00  0.00     0.135 C 
BRANCH  20  21
ATOM     21  O   UNL d   1      32.753  22.251 -21.837  0.00  0.00    -0.325 OA
ATOM     22  C   UNL d   1      32.173  22.614 -21.376  0.00  0.00     0.182 C 
ENDBRANCH  20  21
ENDBRANCH  19  20
ENDBRANCH   5  19
TORSDOF 3
ENDMDL
MODEL 6
REMARK VINA RESULT:      -0.9      3.506      4.974
REMARK  3 active torsions:
REMARK  status: ('A' for Active; 'I' for Inactive)
REMARK    1  A    between atoms: C_15  and  N_5 
REMARK    2  A    between atoms: C_21  and  C_15 
REMARK    3  A    between atoms: O_20  and  C_21 
ROOT
ATOM      1  C   UNL d   1      30.805  17.334 -24.005  0.00  0.00     0.137 A 
ATOM      2  C   UNL d   1      31.258  17.060 -23.372  0.00  0.00     0.192 A 
ATOM      3  C   UNL d   1      30.088  16.987 -24.183  0.00  0.00     0.272 A 
ATOM      4  N   UNL d   1      30.989  16.431 -22.913  0.00  0.00    -0.204 NA
ATOM      5  N   UNL d   1      29.811  16.347 -23.718  0.00  0.00    -0.256 N 
ATOM      6  C   UNL d   1      31.075  17.964 -24.464  0.00  0.00     0.205 A 
ATOM      7  C   UNL d   1      30.264  16.080 -23.093  0.00  0.00     0.152 A 
ATOM      8  C   UNL d   1      31.798  18.320 -24.291  0.00  0.00     0.062 A 
ATOM      9  O   UNL d   1      31.981  17.422 -23.205  0.00  0.00    -0.289 OA
ATOM     10  C   UNL d   1      32.251  18.047 -23.659  0.00  0.00     0.105 A 
ATOM     11  O   UNL d   1      29.635  17.261 -24.815  0.00  0.00    -0.266 OA
ATOM     12  O   UNL d   1      30.629  18.242 -25.095  0.00  0.00    -0.286 OA
ATOM     13  C   UNL d   1      32.063  18.948 -24.752  0.00  0.00     0.012 A 
ATOM     14  C   UNL d   1      32.971  18.401 -23.486  0.00  0.00     0.025 A 
ATOM     15  C   UNL d   1      32.791  19.307 -24.578  0.00  0.00     0.035 A 
ATOM     16  C   UNL d   1      29.993  15.453 -22.637  0.00  0.00     0.041 C 
ATOM     17  C   UNL d   1      33.241  19.031 -23.946  0.00  0.00     0.009 A 
ATOM     18 BR   UNL d   1      33.067  19.946 -25.043  0.00  0.00    -0.049 Br
ENDROOT
BRANCH   5  19
ATOM     19  C   UNL d   1      29.084  15.989 -23.892  0.00  0.00     0.111 C 
BRANCH  19  20
ATOM     20  C   UNL d   1      28.395  16.257 -23.526  0.00  0.00     0.135 C 
BRANCH  20  21
ATOM     21  O   UNL d   1      27.668  15.916 -23.716  0.00  0.00    -0.325 OA
ATOM     22  C   UNL d   1      27.102  15.797 -23.127  0.00  0.00     0.182 C 
ENDBRANCH  20  21
ENDBRANCH  19  20
ENDBRANCH   5  19
TORSDOF 3
ENDMDL
MODEL 7
REMARK VINA RESULT:      -0.3      3.409      5.334
REMARK  3 active torsions:
REMARK  status: ('A' for Active; 'I' for Inactive)
REMARK    1  A    between atoms: C_15  and  N_5 
REMARK    2  A    between atoms: C_21  and  C_15 
REMARK    3  A    between atoms: O_20  and  C_21 
ROOT
ATOM      1  C   UNL d   1      32.546  22.547 -19.816  0.00  0.00     0.137 A 
ATOM      2  C   UNL d   1      33.009  21.880 -19.667  0.00  0.00     0.192 A 
ATOM      3  C   UNL d   1      32.312  22.728 -20.577  0.00  0.00     0.272 A 
ATOM      4  N   UNL d   1      33.240  21.390 -20.288  0.00  0.00    -0.204 NA
ATOM      5  N   UNL d   1      32.545  22.232 -21.211  0.00  0.00    -0.256 N 
ATOM      6  C   UNL d   1      32.315  23.038 -19.194  0.00  0.00     0.205 A 
ATOM      7  C   UNL d   1      33.003  21.573 -21.057  0.00  0.00     0.152 A 
ATOM      8  C   UNL d   1      32.547  22.862 -18.422  0.00  0.00     0.062 A 
ATOM      9  O   UNL d   1      33.237  21.711 -18.892  0.00  0.00    -0.289 OA
ATOM     10  C   UNL d   1      33.010  22.195 -18.273  0.00  0.00     0.105 A 
ATOM     11  O   UNL d   1      31.849  23.395 -20.726  0.00  0.00    -0.266 OA
ATOM     12  O   UNL d   1      31.855  23.702 -19.335  0.00  0.00    -0.286 OA
ATOM     13  C   UNL d   1      32.315  23.354 -17.805  0.00  0.00     0.012 A 
ATOM     14  C   UNL d   1      33.241  22.020 -17.506  0.00  0.00     0.025 A 
ATOM     15  C   UNL d   1      32.549  23.177 -17.029  0.00  0.00     0.035 A 
ATOM     16  C   UNL d   1      33.231  21.086 -21.678  0.00  0.00     0.041 C 
ATOM     17  C   UNL d   1      33.010  22.511 -16.883  0.00  0.00     0.009 A 
ATOM     18 BR   UNL d   1      32.316  23.673 -16.396  0.00  0.00    -0.049 Br
ENDROOT
BRANCH   5  19
ATOM     19  C   UNL d   1      32.312  22.409 -21.986  0.00  0.00     0.111 C 
BRANCH  19  20
ATOM     20  C   UNL d   1      32.770  22.915 -22.449  0.00  0.00     0.135 C 
BRANCH  20  21
ATOM     21  O   UNL d   1      32.535  23.096 -23.219  0.00  0.00    -0.325 OA
ATOM     22  C   UNL d   1      32.975  23.629 -23.670  0.00  0.00     0.182 C 
ENDBRANCH  20  21
ENDBRANCH  19  20
ENDBRANCH   5  19
TORSDOF 3
ENDMDL
