MODEL 1
REMARK VINA RESULT:      26.1      0.000      0.000
REMARK  2 active torsions:
REMARK  status: ('A' for Active; 'I' for Inactive)
REMARK    1  A    between atoms: C_12  and  C_4 
REMARK    2  A    between atoms: O_14  and  C_10 
ROOT
ATOM      1  C   UNL d   1     -51.318  24.579  33.374  0.00  0.00     0.101 A 
ATOM      2  C   UNL d   1     -50.518  24.791  33.395  0.00  0.00     0.203 A 
ATOM      3  C   UNL d   1     -50.309  25.590  33.386  0.00  0.00     0.067 A 
ATOM      4  C   UNL d   1     -50.887  26.167  33.356  0.00  0.00     0.103 A 
ATOM      5  C   UNL d   1     -51.896  25.156  33.344  0.00  0.00     0.108 A 
ATOM      6  O   UNL d   1     -51.685  25.956  33.335  0.00  0.00    -0.307 OA
ATOM      7  C   UNL d   1     -51.524  23.783  33.383  0.00  0.00     0.203 A 
ATOM      8  C   UNL d   1     -52.691  24.948  33.322  0.00  0.00     0.049 A 
ATOM      9  C   UNL d   1     -52.335  23.560  33.361  0.00  0.00     0.066 A 
ATOM     10  C   UNL d   1     -52.913  24.137  33.331  0.00  0.00     0.099 A 
ATOM     11  O   UNL d   1     -49.924  24.197  33.426  0.00  0.00    -0.286 OA
ATOM     12  O   UNL d   1     -50.930  23.189  33.413  0.00  0.00    -0.286 OA
ENDROOT
BRANCH   4  13
ATOM     13  C   UNL d   1     -50.684  26.959  33.347  0.00  0.00     0.023 A 
ATOM     14  C   UNL d   1     -49.886  27.169  33.322  0.00  0.00     0.002 A 
ATOM     15  C   UNL d   1     -49.679  27.964  33.312  0.00  0.00     0.000 A 
ATOM     16  C   UNL d   1     -50.264  28.549  33.328  0.00  0.00     0.000 A 
ATOM     17  C   UNL d   1     -51.061  28.344  33.354  0.00  0.00     0.000 A 
ATOM     18  C   UNL d   1     -51.268  27.543  33.363  0.00  0.00     0.002 A 
ENDBRANCH   4  13
BRANCH  10  19
ATOM     19  O   UNL d   1     -53.737  23.932  33.309  0.00  0.00    -0.328 OA
ATOM     20  C   UNL d   1     -54.005  23.258  33.685  0.00  0.00     0.181 C 
ENDBRANCH  10  19
TORSDOF 2
ENDMDL
