MODEL 1
REMARK VINA RESULT:      52.9      0.000      0.000
REMARK  2 active torsions:
REMARK  status: ('A' for Active; 'I' for Inactive)
REMARK    1  A    between atoms: N_4  and  C_1 
REMARK    2  A    between atoms: C_11  and  C_3 
ROOT
ATOM      1  C   UNL d   1     -58.589 -98.894 -45.522  0.00  0.00     0.148 A 
ATOM      2  N   UNL d   1     -59.069 -98.876 -44.874  0.00  0.00    -0.228 NA
ATOM      3  C   UNL d   1     -57.452 -98.861 -44.645  0.00  0.00     0.004 A 
ATOM      4  C   UNL d   1     -57.768 -98.886 -45.406  0.00  0.00     0.037 A 
ATOM      5  C   UNL d   1     -57.968 -98.844 -43.997  0.00  0.00     0.018 A 
ATOM      6  C   UNL d   1     -58.789 -98.851 -44.114  0.00  0.00     0.083 A 
ATOM      7  C   UNL d   1     -57.652 -98.819 -43.241  0.00  0.00     0.002 A 
ATOM      8  C   UNL d   1     -59.268 -98.833 -43.470  0.00  0.00     0.019 A 
ATOM      9  C   UNL d   1     -58.168 -98.801 -42.589  0.00  0.00     0.000 A 
ATOM     10  C   UNL d   1     -58.989 -98.808 -42.706  0.00  0.00     0.002 A 
ENDROOT
BRANCH   1  11
ATOM     11  N   UNL d   1     -58.870 -98.918 -46.275  0.00  0.00    -0.286 N 
ATOM     12  C   UNL d   1     -58.409 -98.760 -46.948  0.00  0.00     0.101 A 
ATOM     13  C   UNL d   1     -58.689 -98.784 -47.705  0.00  0.00     0.100 A 
ATOM     14  N   UNL d   1     -59.486 -98.978 -47.824  0.00  0.00    -0.299 N 
ATOM     15  C   UNL d   1     -59.956 -99.137 -47.179  0.00  0.00     0.100 A 
ATOM     16  C   UNL d   1     -59.778 -99.005 -48.586  0.00  0.00     0.100 C 
ATOM     17  C   UNL d   1     -59.667 -99.113 -46.394  0.00  0.00     0.101 A 
ENDBRANCH   1  11
BRANCH   3  18
ATOM     18  C   UNL d   1     -56.655 -98.854 -44.532  0.00  0.00     0.000 A 
ATOM     19  C   UNL d   1     -56.338 -98.873 -43.772  0.00  0.00     0.000 A 
ATOM     20  C   UNL d   1     -55.553 -98.866 -43.660  0.00  0.00     0.000 A 
ATOM     21  C   UNL d   1     -55.026 -98.839 -44.301  0.00  0.00     0.000 A 
ATOM     22  C   UNL d   1     -55.354 -98.820 -45.069  0.00  0.00     0.000 A 
ATOM     23  C   UNL d   1     -56.138 -98.827 -45.180  0.00  0.00     0.000 A 
ENDBRANCH   3  18
TORSDOF 2
ENDMDL
MODEL 2
REMARK VINA RESULT:      54.5      1.309      3.565
REMARK  2 active torsions:
REMARK  status: ('A' for Active; 'I' for Inactive)
REMARK    1  A    between atoms: N_4  and  C_1 
REMARK    2  A    between atoms: C_11  and  C_3 
ROOT
ATOM      1  C   UNL d   1     -58.522 -98.794 -43.263  0.00  0.00     0.148 A 
ATOM      2  N   UNL d   1     -58.983 -98.785 -43.925  0.00  0.00    -0.228 NA
ATOM      3  C   UNL d   1     -57.360 -98.803 -44.107  0.00  0.00     0.004 A 
ATOM      4  C   UNL d   1     -57.698 -98.803 -43.355  0.00  0.00     0.037 A 
ATOM      5  C   UNL d   1     -57.857 -98.793 -44.769  0.00  0.00     0.018 A 
ATOM      6  C   UNL d   1     -58.680 -98.784 -44.677  0.00  0.00     0.083 A 
ATOM      7  C   UNL d   1     -57.518 -98.793 -45.517  0.00  0.00     0.002 A 
ATOM      8  C   UNL d   1     -59.140 -98.775 -45.335  0.00  0.00     0.019 A 
ATOM      9  C   UNL d   1     -58.015 -98.784 -46.183  0.00  0.00     0.000 A 
ATOM     10  C   UNL d   1     -58.839 -98.775 -46.091  0.00  0.00     0.002 A 
ENDROOT
BRANCH   1  11
ATOM     11  N   UNL d   1     -58.825 -98.795 -42.519  0.00  0.00    -0.286 N 
ATOM     12  C   UNL d   1     -58.363 -98.756 -41.828  0.00  0.00     0.101 A 
ATOM     13  C   UNL d   1     -58.665 -98.756 -41.080  0.00  0.00     0.100 A 
ATOM     14  N   UNL d   1     -59.488 -98.798 -40.987  0.00  0.00    -0.299 N 
ATOM     15  C   UNL d   1     -59.959 -98.837 -41.649  0.00  0.00     0.100 A 
ATOM     16  C   UNL d   1     -59.802 -98.799 -40.234  0.00  0.00     0.100 C 
ATOM     17  C   UNL d   1     -59.648 -98.837 -42.426  0.00  0.00     0.101 A 
ENDBRANCH   1  11
BRANCH   3  18
ATOM     18  C   UNL d   1     -56.560 -98.811 -44.196  0.00  0.00     0.000 A 
ATOM     19  C   UNL d   1     -56.064 -98.875 -43.541  0.00  0.00     0.000 A 
ATOM     20  C   UNL d   1     -55.276 -98.883 -43.629  0.00  0.00     0.000 A 
ATOM     21  C   UNL d   1     -54.924 -98.829 -44.379  0.00  0.00     0.000 A 
ATOM     22  C   UNL d   1     -55.433 -98.765 -45.038  0.00  0.00     0.000 A 
ATOM     23  C   UNL d   1     -56.220 -98.756 -44.950  0.00  0.00     0.000 A 
ENDBRANCH   3  18
TORSDOF 2
ENDMDL
