MODEL 1
REMARK VINA RESULT:      -4.9      0.000      0.000
REMARK  4 active torsions:
REMARK  status: ('A' for Active; 'I' for Inactive)
REMARK    1  A    between atoms: C_2  and  C_1 
REMARK    2  A    between atoms: C_8  and  C_1 
REMARK    3  A    between atoms: C_9  and  C_2 
REMARK    4  A    between atoms: N_4  and  C_3 
ROOT
ATOM      1  C   UNL d   1     -41.632-123.003 -50.247  0.00  0.00     0.064 A 
ATOM      2  C   UNL d   1     -41.425-123.613 -50.761  0.00  0.00     0.018 A 
ATOM      3  C   UNL d   1     -41.722-122.222 -50.522  0.00  0.00     0.018 A 
ATOM      4  C   UNL d   1     -41.389-122.675 -51.843  0.00  0.00     0.000 A 
ATOM      5  C   UNL d   1     -41.305-123.443 -51.554  0.00  0.00     0.002 A 
ATOM      6  C   UNL d   1     -41.600-122.060 -51.316  0.00  0.00     0.002 A 
ENDROOT
BRANCH   4   7
ATOM      7  C   UNL d   1     -41.269-122.505 -52.639  0.00  0.00     0.000 C 
BRANCH   7   8
ATOM      8  C   UNL d   1     -41.788-122.803 -53.201  0.00  0.00     0.000 C 
BRANCH   8   9
ATOM      9  C   UNL d   1     -41.738-122.541 -53.984  0.00  0.00     0.003 A 
ATOM     10  C   UNL d   1     -42.307-122.006 -54.239  0.00  0.00     0.021 A 
ATOM     11  C   UNL d   1     -42.284-121.722 -55.026  0.00  0.00     0.099 A 
ATOM     12  N   UNL d   1     -41.688-121.982 -55.542  0.00  0.00    -0.242 NA
ATOM     13  C   UNL d   1     -41.123-122.521 -55.271  0.00  0.00     0.099 A 
ATOM     14  C   UNL d   1     -41.143-122.802 -54.497  0.00  0.00     0.021 A 
ENDBRANCH   8   9
ENDBRANCH   7   8
ENDBRANCH   4   7
BRANCH   1  15
ATOM     15  N   UNL d   1     -41.757-123.164 -49.436  0.00  0.00    -0.301 N 
ATOM     16  C   UNL d   1     -41.127-123.438 -48.974  0.00  0.00     0.100 C 
ATOM     17  C   UNL d   1     -42.505-123.048 -49.104  0.00  0.00     0.100 C 
ENDBRANCH   1  15
TORSDOF 4
ENDMDL
MODEL 2
REMARK VINA RESULT:      -4.5      0.878      4.561
REMARK  4 active torsions:
REMARK  status: ('A' for Active; 'I' for Inactive)
REMARK    1  A    between atoms: C_2  and  C_1 
REMARK    2  A    between atoms: C_8  and  C_1 
REMARK    3  A    between atoms: C_9  and  C_2 
REMARK    4  A    between atoms: N_4  and  C_3 
ROOT
ATOM      1  C   UNL d   1     -41.305-123.068 -53.126  0.00  0.00     0.064 A 
ATOM      2  C   UNL d   1     -41.150-123.773 -52.730  0.00  0.00     0.018 A 
ATOM      3  C   UNL d   1     -41.462-122.365 -52.707  0.00  0.00     0.018 A 
ATOM      4  C   UNL d   1     -41.306-123.092 -51.479  0.00  0.00     0.000 A 
ATOM      5  C   UNL d   1     -41.152-123.779 -51.910  0.00  0.00     0.002 A 
ATOM      6  C   UNL d   1     -41.462-122.379 -51.888  0.00  0.00     0.002 A 
ENDROOT
BRANCH   4   7
ATOM      7  C   UNL d   1     -41.308-123.098 -50.656  0.00  0.00     0.000 C 
BRANCH   7   8
ATOM      8  C   UNL d   1     -42.018-123.014 -50.251  0.00  0.00     0.000 C 
BRANCH   8   9
ATOM      9  C   UNL d   1     -42.027-123.071 -49.426  0.00  0.00     0.003 A 
ATOM     10  C   UNL d   1     -42.756-123.004 -49.052  0.00  0.00     0.021 A 
ATOM     11  C   UNL d   1     -42.799-123.057 -48.219  0.00  0.00     0.099 A 
ATOM     12  N   UNL d   1     -42.106-123.176 -47.775  0.00  0.00    -0.242 NA
ATOM     13  C   UNL d   1     -41.381-123.242 -48.166  0.00  0.00     0.099 A 
ATOM     14  C   UNL d   1     -41.335-123.190 -48.987  0.00  0.00     0.021 A 
ENDBRANCH   8   9
ENDBRANCH   7   8
ENDBRANCH   4   7
BRANCH   1  15
ATOM     15  N   UNL d   1     -41.306-123.049 -53.962  0.00  0.00    -0.301 N 
ATOM     16  C   UNL d   1     -41.434-122.329 -54.352  0.00  0.00     0.100 C 
ATOM     17  C   UNL d   1     -41.179-123.744 -54.390  0.00  0.00     0.100 C 
ENDBRANCH   1  15
TORSDOF 4
ENDMDL
MODEL 3
REMARK VINA RESULT:      -4.1      1.192      2.070
REMARK  4 active torsions:
REMARK  status: ('A' for Active; 'I' for Inactive)
REMARK    1  A    between atoms: C_2  and  C_1 
REMARK    2  A    between atoms: C_8  and  C_1 
REMARK    3  A    between atoms: C_9  and  C_2 
REMARK    4  A    between atoms: N_4  and  C_3 
ROOT
ATOM      1  C   UNL d   1     -42.207-123.096 -48.545  0.00  0.00     0.064 A 
ATOM      2  C   UNL d   1     -42.699-122.714 -49.083  0.00  0.00     0.018 A 
ATOM      3  C   UNL d   1     -41.442-123.345 -48.763  0.00  0.00     0.018 A 
ATOM      4  C   UNL d   1     -41.673-122.816 -50.078  0.00  0.00     0.000 A 
ATOM      5  C   UNL d   1     -42.428-122.577 -49.845  0.00  0.00     0.002 A 
ATOM      6  C   UNL d   1     -41.178-123.204 -49.525  0.00  0.00     0.002 A 
ENDROOT
BRANCH   4   7
ATOM      7  C   UNL d   1     -41.400-122.679 -50.842  0.00  0.00     0.000 C 
BRANCH   7   8
ATOM      8  C   UNL d   1     -41.418-123.286 -51.394  0.00  0.00     0.000 C 
BRANCH   8   9
ATOM      9  C   UNL d   1     -41.318-123.112 -52.197  0.00  0.00     0.003 A 
ATOM     10  C   UNL d   1     -41.320-123.745 -52.722  0.00  0.00     0.021 A 
ATOM     11  C   UNL d   1     -41.221-123.602 -53.540  0.00  0.00     0.099 A 
ATOM     12  N   UNL d   1     -41.123-122.825 -53.816  0.00  0.00    -0.242 NA
ATOM     13  C   UNL d   1     -41.124-122.199 -53.275  0.00  0.00     0.099 A 
ATOM     14  C   UNL d   1     -41.220-122.337 -52.469  0.00  0.00     0.021 A 
ENDBRANCH   8   9
ENDBRANCH   7   8
ENDBRANCH   4   7
BRANCH   1  15
ATOM     15  N   UNL d   1     -42.472-123.241 -47.765  0.00  0.00    -0.301 N 
ATOM     16  C   UNL d   1     -42.067-122.902 -47.128  0.00  0.00     0.100 C 
ATOM     17  C   UNL d   1     -43.134-123.720 -47.638  0.00  0.00     0.100 C 
ENDBRANCH   1  15
TORSDOF 4
ENDMDL
MODEL 4
REMARK VINA RESULT:      -4.0      0.548      4.415
REMARK  4 active torsions:
REMARK  status: ('A' for Active; 'I' for Inactive)
REMARK    1  A    between atoms: C_2  and  C_1 
REMARK    2  A    between atoms: C_8  and  C_1 
REMARK    3  A    between atoms: C_9  and  C_2 
REMARK    4  A    between atoms: N_4  and  C_3 
ROOT
ATOM      1  C   UNL d   1     -41.679-122.437 -54.211  0.00  0.00     0.064 A 
ATOM      2  C   UNL d   1     -41.440-123.189 -53.975  0.00  0.00     0.018 A 
ATOM      3  C   UNL d   1     -41.793-121.828 -53.654  0.00  0.00     0.018 A 
ATOM      4  C   UNL d   1     -41.421-122.744 -52.613  0.00  0.00     0.000 A 
ATOM      5  C   UNL d   1     -41.313-123.336 -53.178  0.00  0.00     0.002 A 
ATOM      6  C   UNL d   1     -41.664-121.983 -52.860  0.00  0.00     0.002 A 
ENDROOT
BRANCH   4   7
ATOM      7  C   UNL d   1     -41.294-122.892 -51.814  0.00  0.00     0.000 C 
BRANCH   7   8
ATOM      8  C   UNL d   1     -41.667-122.426 -51.250  0.00  0.00     0.000 C 
BRANCH   8   9
ATOM      9  C   UNL d   1     -41.749-122.706 -50.476  0.00  0.00     0.003 A 
ATOM     10  C   UNL d   1     -42.482-122.608 -50.116  0.00  0.00     0.021 A 
ATOM     11  C   UNL d   1     -42.597-122.881 -49.334  0.00  0.00     0.099 A 
ATOM     12  N   UNL d   1     -41.972-123.248 -48.928  0.00  0.00    -0.242 NA
ATOM     13  C   UNL d   1     -41.242-123.340 -49.303  0.00  0.00     0.099 A 
ATOM     14  C   UNL d   1     -41.125-123.072 -50.074  0.00  0.00     0.021 A 
ENDBRANCH   8   9
ENDBRANCH   7   8
ENDBRANCH   4   7
BRANCH   1  15
ATOM     15  N   UNL d   1     -41.812-122.275 -55.020  0.00  0.00    -0.301 N 
ATOM     16  C   UNL d   1     -42.573-122.068 -55.274  0.00  0.00     0.100 C 
ATOM     17  C   UNL d   1     -41.186-122.322 -55.558  0.00  0.00     0.100 C 
ENDBRANCH   1  15
TORSDOF 4
ENDMDL
