MODEL 1
REMARK VINA RESULT:      61.3      0.000      0.000
REMARK  3 active torsions:
REMARK  status: ('A' for Active; 'I' for Inactive)
REMARK    1  A    between atoms: C_21  and  N_1 
REMARK       I    between atoms: N_6  and  C_8 
REMARK    2  A    between atoms: C_8  and  C_9 
REMARK    3  A    between atoms: C_24  and  C_21 
ROOT
ATOM      1  N   UNL d   1     -54.830-101.452 -38.588  0.00  0.00    -0.249 N 
ATOM      2  C   UNL d   1     -54.762-100.744 -38.990  0.00  0.00     0.208 A 
ATOM      3  C   UNL d   1     -54.880-102.163 -39.006  0.00  0.00     0.268 A 
ATOM      4  C   UNL d   1     -54.859-102.146 -39.831  0.00  0.00     0.074 A 
ATOM      5  N   UNL d   1     -54.742-100.731 -39.819  0.00  0.00    -0.218 NA
ATOM      6  C   UNL d   1     -54.791-101.438 -40.225  0.00  0.00     0.088 A 
ATOM      7  C   UNL d   1     -54.821-102.134 -41.477  0.00  0.00     0.058 A 
ATOM      8  C   UNL d   1     -54.771-101.426 -41.049  0.00  0.00     0.024 A 
ATOM      9  C   UNL d   1     -54.909-102.853 -40.245  0.00  0.00     0.006 A 
ATOM     10  S   UNL d   1     -54.711-100.025 -38.563  0.00  0.00    -0.038 SA
ATOM     11  O   UNL d   1     -54.949-102.879 -38.605  0.00  0.00    -0.267 OA
ATOM     12  C   UNL d   1     -54.889-102.844 -41.074  0.00  0.00     0.005 A 
ENDROOT
BRANCH   7  13
ATOM     13  C   UNL d   1     -54.801-102.121 -42.305  0.00  0.00     0.265 C 
ATOM     14  N   UNL d   1     -54.787-101.399 -42.701  0.00  0.00    -0.272 N 
ATOM     15  C   UNL d   1     -54.767-101.386 -43.520  0.00  0.00     0.083 A 
ATOM     16  C   UNL d   1     -54.793-100.689 -42.283  0.00  0.00     0.083 A 
ATOM     17  C   UNL d   1     -54.754-100.677 -43.912  0.00  0.00     0.018 A 
ATOM     18  C   UNL d   1     -54.734-100.676 -44.741  0.00  0.00     0.002 A 
ATOM     19  C   UNL d   1     -54.759 -99.967 -43.498  0.00  0.00     0.003 A 
ATOM     20  C   UNL d   1     -54.719 -99.953 -45.157  0.00  0.00     0.000 A 
ATOM     21  C   UNL d   1     -54.725 -99.240 -44.744  0.00  0.00     0.000 A 
ATOM     22  C   UNL d   1     -54.745 -99.252 -43.915  0.00  0.00     0.000 A 
ATOM     23  C   UNL d   1     -54.779 -99.975 -42.683  0.00  0.00     0.019 A 
ATOM     24  O   UNL d   1     -54.795-102.831 -42.723  0.00  0.00    -0.267 OA
ENDBRANCH   7  13
BRANCH   1  25
ATOM     25  C   UNL d   1     -54.850-101.465 -37.750  0.00  0.00     0.085 C 
BRANCH  25  26
ATOM     26  C   UNL d   1     -55.417-101.921 -37.365  0.00  0.00     0.019 C 
ATOM     27  C   UNL d   1     -55.191-102.370 -36.706  0.00  0.00     0.002 C 
ENDBRANCH  25  26
ENDBRANCH   1  25
TORSDOF 3
ENDMDL
MODEL 2
REMARK VINA RESULT:      62.7      1.233      5.034
REMARK  3 active torsions:
REMARK  status: ('A' for Active; 'I' for Inactive)
REMARK    1  A    between atoms: C_21  and  N_1 
REMARK       I    between atoms: N_6  and  C_8 
REMARK    2  A    between atoms: C_8  and  C_9 
REMARK    3  A    between atoms: C_24  and  C_21 
ROOT
ATOM      1  N   UNL d   1     -54.713-101.260 -42.562  0.00  0.00    -0.249 N 
ATOM      2  C   UNL d   1     -54.713-100.574 -42.119  0.00  0.00     0.208 A 
ATOM      3  C   UNL d   1     -54.713-101.996 -42.186  0.00  0.00     0.268 A 
ATOM      4  C   UNL d   1     -54.713-102.027 -41.362  0.00  0.00     0.074 A 
ATOM      5  N   UNL d   1     -54.713-100.608 -41.289  0.00  0.00    -0.218 NA
ATOM      6  C   UNL d   1     -54.713-101.340 -40.927  0.00  0.00     0.088 A 
ATOM      7  C   UNL d   1     -54.713-102.108 -39.718  0.00  0.00     0.058 A 
ATOM      8  C   UNL d   1     -54.713-101.375 -40.102  0.00  0.00     0.024 A 
ATOM      9  C   UNL d   1     -54.713-102.759 -40.990  0.00  0.00     0.006 A 
ATOM     10  S   UNL d   1     -54.713 -99.829 -42.502  0.00  0.00    -0.038 SA
ATOM     11  O   UNL d   1     -54.712-102.690 -42.629  0.00  0.00    -0.267 OA
ATOM     12  C   UNL d   1     -54.713-102.797 -40.162  0.00  0.00     0.005 A 
ENDROOT
BRANCH   7  13
ATOM     13  C   UNL d   1     -54.714-102.143 -38.889  0.00  0.00     0.265 C 
ATOM     14  N   UNL d   1     -54.715-101.445 -38.453  0.00  0.00    -0.272 N 
ATOM     15  C   UNL d   1     -54.715-101.479 -37.633  0.00  0.00     0.083 A 
ATOM     16  C   UNL d   1     -54.716-100.712 -38.829  0.00  0.00     0.083 A 
ATOM     17  C   UNL d   1     -54.717-100.793 -37.201  0.00  0.00     0.018 A 
ATOM     18  C   UNL d   1     -54.717-100.840 -36.374  0.00  0.00     0.002 A 
ATOM     19  C   UNL d   1     -54.718-100.061 -37.574  0.00  0.00     0.003 A 
ATOM     20  C   UNL d   1     -54.718-100.142 -35.917  0.00  0.00     0.000 A 
ATOM     21  C   UNL d   1     -54.720 -99.406 -36.289  0.00  0.00     0.000 A 
ATOM     22  C   UNL d   1     -54.719 -99.372 -37.117  0.00  0.00     0.000 A 
ATOM     23  C   UNL d   1     -54.718-100.022 -38.389  0.00  0.00     0.019 A 
ATOM     24  O   UNL d   1     -54.712-102.876 -38.513  0.00  0.00    -0.267 OA
ENDBRANCH   7  13
BRANCH   1  25
ATOM     25  C   UNL d   1     -54.712-101.225 -43.399  0.00  0.00     0.085 C 
BRANCH  25  26
ATOM     26  C   UNL d   1     -55.200-100.684 -43.783  0.00  0.00     0.019 C 
ATOM     27  C   UNL d   1     -55.083-100.541 -44.591  0.00  0.00     0.002 C 
ENDBRANCH  25  26
ENDBRANCH   1  25
TORSDOF 3
ENDMDL
