MODEL 1
REMARK VINA RESULT:      -8.2      0.000      0.000
REMARK  6 active torsions:
REMARK  status: ('A' for Active; 'I' for Inactive)
REMARK       I    between atoms: N_2  and  C_4 
REMARK    1  A    between atoms: C_6  and  N_2 
REMARK    2  A    between atoms: C_12  and  C_3 
REMARK    3  A    between atoms: C_4  and  C_11 
REMARK    4  A    between atoms: O_13  and  C_9 
REMARK    5  A    between atoms: C_11  and  C_12 
REMARK    6  A    between atoms: C_17  and  O_13 
ROOT
ATOM      1  N   UNL d   1      53.178  33.385  53.091  0.00  0.00    -0.206 NA
ATOM      2  C   UNL d   1      52.821  32.678  52.863  0.00  0.00     0.279 C 
ATOM      3  O   UNL d   1      52.243  32.677  52.280  0.00  0.00    -0.265 OA
ENDROOT
BRANCH   1   4
ATOM      4  C   UNL d   1      53.762  33.380  53.683  0.00  0.00     0.107 A 
ATOM      5  C   UNL d   1      53.680  33.864  54.343  0.00  0.00     0.118 A 
ATOM      6  C   UNL d   1      54.253  33.860  54.926  0.00  0.00     0.026 A 
ATOM      7  C   UNL d   1      54.921  33.371  54.856  0.00  0.00     0.002 A 
ATOM      8  C   UNL d   1      55.003  32.884  54.191  0.00  0.00     0.002 A 
ATOM      9  C   UNL d   1      54.419  32.889  53.599  0.00  0.00     0.021 A 
BRANCH   5  10
ATOM     10  O   UNL d   1      53.017  34.348  54.410  0.00  0.00    -0.304 OA
BRANCH  10  11
ATOM     11  C   UNL d   1      53.050  35.044  54.845  0.00  0.00     0.123 C 
ATOM     12  C   UNL d   1      52.490  35.636  54.731  0.00  0.00     0.029 C 
ENDBRANCH  10  11
ENDBRANCH   5  10
ENDBRANCH   1   4
BRANCH   2  13
ATOM     13  C   UNL d   1      53.040  31.965  53.218  0.00  0.00     0.065 C 
BRANCH  13  14
ATOM     14  C   UNL d   1      52.621  31.279  53.058  0.00  0.00     0.030 C 
BRANCH  14  15
ATOM     15  C   UNL d   1      52.885  30.552  53.349  0.00  0.00     0.100 A 
ATOM     16  O   UNL d   1      52.882  30.299  54.137  0.00  0.00    -0.307 OA
ATOM     17  C   UNL d   1      53.194  29.545  54.172  0.00  0.00     0.100 A 
ATOM     18  C   UNL d   1      53.395  29.318  53.400  0.00  0.00     0.027 A 
ATOM     19  C   UNL d   1      53.291  29.090  54.847  0.00  0.00     0.027 C 
ATOM     20  C   UNL d   1      53.205  29.940  52.892  0.00  0.00     0.027 A 
ENDBRANCH  14  15
ENDBRANCH  13  14
ENDBRANCH   2  13
TORSDOF 6
ENDMDL
MODEL 2
REMARK VINA RESULT:      -7.5      1.462      4.143
REMARK  6 active torsions:
REMARK  status: ('A' for Active; 'I' for Inactive)
REMARK       I    between atoms: N_2  and  C_4 
REMARK    1  A    between atoms: C_6  and  N_2 
REMARK    2  A    between atoms: C_12  and  C_3 
REMARK    3  A    between atoms: C_4  and  C_11 
REMARK    4  A    between atoms: O_13  and  C_9 
REMARK    5  A    between atoms: C_11  and  C_12 
REMARK    6  A    between atoms: C_17  and  O_13 
ROOT
ATOM      1  N   UNL d   1      53.963  31.410  54.322  0.00  0.00    -0.206 NA
ATOM      2  C   UNL d   1      53.787  32.202  54.465  0.00  0.00     0.279 C 
ATOM      3  O   UNL d   1      54.176  32.610  55.061  0.00  0.00    -0.265 OA
ENDROOT
BRANCH   1   4
ATOM      4  C   UNL d   1      53.565  31.001  53.717  0.00  0.00     0.107 A 
ATOM      5  C   UNL d   1      53.253  30.255  53.865  0.00  0.00     0.118 A 
ATOM      6  C   UNL d   1      52.861  29.851  53.271  0.00  0.00     0.026 A 
ATOM      7  C   UNL d   1      52.777  30.190  52.517  0.00  0.00     0.002 A 
ATOM      8  C   UNL d   1      53.092  30.942  52.369  0.00  0.00     0.002 A 
ATOM      9  C   UNL d   1      53.489  31.351  52.974  0.00  0.00     0.021 A 
BRANCH   5  10
ATOM     10  O   UNL d   1      53.338  29.922  54.612  0.00  0.00    -0.304 OA
BRANCH  10  11
ATOM     11  C   UNL d   1      53.279  29.109  54.717  0.00  0.00     0.123 C 
ATOM     12  C   UNL d   1      53.324  28.779  55.470  0.00  0.00     0.029 C 
ENDBRANCH  10  11
ENDBRANCH   5  10
ENDBRANCH   1   4
BRANCH   2  13
ATOM     13  C   UNL d   1      53.218  32.592  54.011  0.00  0.00     0.065 C 
BRANCH  13  14
ATOM     14  C   UNL d   1      52.986  33.354  54.206  0.00  0.00     0.030 C 
BRANCH  14  15
ATOM     15  C   UNL d   1      52.444  33.760  53.731  0.00  0.00     0.100 A 
ATOM     16  O   UNL d   1      51.640  33.591  53.637  0.00  0.00    -0.307 OA
ATOM     17  C   UNL d   1      51.317  34.132  53.116  0.00  0.00     0.100 A 
ATOM     18  C   UNL d   1      51.922  34.646  52.879  0.00  0.00     0.027 A 
ATOM     19  C   UNL d   1      50.536  34.163  52.871  0.00  0.00     0.027 C 
ATOM     20  C   UNL d   1      52.618  34.417  53.258  0.00  0.00     0.027 A 
ENDBRANCH  14  15
ENDBRANCH  13  14
ENDBRANCH   2  13
TORSDOF 6
ENDMDL
MODEL 3
REMARK VINA RESULT:      -7.2      1.103      1.744
REMARK  6 active torsions:
REMARK  status: ('A' for Active; 'I' for Inactive)
REMARK       I    between atoms: N_2  and  C_4 
REMARK    1  A    between atoms: C_6  and  N_2 
REMARK    2  A    between atoms: C_12  and  C_3 
REMARK    3  A    between atoms: C_4  and  C_11 
REMARK    4  A    between atoms: O_13  and  C_9 
REMARK    5  A    between atoms: C_11  and  C_12 
REMARK    6  A    between atoms: C_17  and  O_13 
ROOT
ATOM      1  N   UNL d   1      53.669  33.422  53.261  0.00  0.00    -0.206 NA
ATOM      2  C   UNL d   1      54.034  32.686  53.312  0.00  0.00     0.279 C 
ATOM      3  O   UNL d   1      54.853  32.631  53.323  0.00  0.00    -0.265 OA
ENDROOT
BRANCH   1   4
ATOM      4  C   UNL d   1      52.839  33.471  53.251  0.00  0.00     0.107 A 
ATOM      5  C   UNL d   1      52.455  34.010  53.740  0.00  0.00     0.118 A 
ATOM      6  C   UNL d   1      51.638  34.060  53.731  0.00  0.00     0.026 A 
ATOM      7  C   UNL d   1      51.193  33.570  53.230  0.00  0.00     0.002 A 
ATOM      8  C   UNL d   1      51.580  33.027  52.738  0.00  0.00     0.002 A 
ATOM      9  C   UNL d   1      52.410  32.978  52.748  0.00  0.00     0.021 A 
BRANCH   5  10
ATOM     10  O   UNL d   1      52.899  34.494  54.235  0.00  0.00    -0.304 OA
BRANCH  10  11
ATOM     11  C   UNL d   1      52.627  35.241  54.444  0.00  0.00     0.123 C 
ATOM     12  C   UNL d   1      53.107  35.759  54.867  0.00  0.00     0.029 C 
ENDBRANCH  10  11
ENDBRANCH   5  10
ENDBRANCH   1   4
BRANCH   2  13
ATOM     13  C   UNL d   1      53.582  31.996  53.353  0.00  0.00     0.065 C 
BRANCH  13  14
ATOM     14  C   UNL d   1      53.932  31.265  53.231  0.00  0.00     0.030 C 
BRANCH  14  15
ATOM     15  C   UNL d   1      53.567  30.576  53.507  0.00  0.00     0.100 A 
ATOM     16  O   UNL d   1      53.638  30.242  54.261  0.00  0.00    -0.307 OA
ATOM     17  C   UNL d   1      53.182  29.565  54.292  0.00  0.00     0.100 A 
ATOM     18  C   UNL d   1      52.819  29.470  53.553  0.00  0.00     0.027 A 
ATOM     19  C   UNL d   1      53.097  29.067  54.936  0.00  0.00     0.027 C 
ATOM     20  C   UNL d   1      53.056  30.094  53.068  0.00  0.00     0.027 A 
ENDBRANCH  14  15
ENDBRANCH  13  14
ENDBRANCH   2  13
TORSDOF 6
ENDMDL
MODEL 4
REMARK VINA RESULT:      -6.3      2.232      3.949
REMARK  6 active torsions:
REMARK  status: ('A' for Active; 'I' for Inactive)
REMARK       I    between atoms: N_2  and  C_4 
REMARK    1  A    between atoms: C_6  and  N_2 
REMARK    2  A    between atoms: C_12  and  C_3 
REMARK    3  A    between atoms: C_4  and  C_11 
REMARK    4  A    between atoms: O_13  and  C_9 
REMARK    5  A    between atoms: C_11  and  C_12 
REMARK    6  A    between atoms: C_17  and  O_13 
ROOT
ATOM      1  N   UNL d   1      52.899  33.496  53.105  0.00  0.00    -0.206 NA
ATOM      2  C   UNL d   1      52.163  33.361  52.759  0.00  0.00     0.279 C 
ATOM      3  O   UNL d   1      52.060  32.731  52.243  0.00  0.00    -0.265 OA
ENDROOT
BRANCH   1   4
ATOM      4  C   UNL d   1      52.998  34.136  53.627  0.00  0.00     0.107 A 
ATOM      5  C   UNL d   1      53.296  34.005  54.383  0.00  0.00     0.118 A 
ATOM      6  C   UNL d   1      53.394  34.632  54.898  0.00  0.00     0.026 A 
ATOM      7  C   UNL d   1      53.194  35.403  54.663  0.00  0.00     0.002 A 
ATOM      8  C   UNL d   1      52.893  35.535  53.902  0.00  0.00     0.002 A 
ATOM      9  C   UNL d   1      52.794  34.896  53.380  0.00  0.00     0.021 A 
BRANCH   5  10
ATOM     10  O   UNL d   1      53.493  33.239  54.612  0.00  0.00    -0.304 OA
BRANCH  10  11
ATOM     11  C   UNL d   1      54.076  33.109  55.177  0.00  0.00     0.123 C 
ATOM     12  C   UNL d   1      54.173  32.365  55.515  0.00  0.00     0.029 C 
ENDBRANCH  10  11
ENDBRANCH   5  10
ENDBRANCH   1   4
BRANCH   2  13
ATOM     13  C   UNL d   1      51.524  33.855  52.927  0.00  0.00     0.065 C 
BRANCH  13  14
ATOM     14  C   UNL d   1      50.759  33.614  52.757  0.00  0.00     0.030 C 
BRANCH  14  15
ATOM     15  C   UNL d   1      50.159  34.173  52.655  0.00  0.00     0.100 A 
ATOM     16  O   UNL d   1      49.784  34.616  53.245  0.00  0.00    -0.307 OA
ATOM     17  C   UNL d   1      49.226  35.099  52.896  0.00  0.00     0.100 A 
ATOM     18  C   UNL d   1      49.247  34.962  52.079  0.00  0.00     0.027 A 
ATOM     19  C   UNL d   1      48.731  35.627  53.281  0.00  0.00     0.027 C 
ATOM     20  C   UNL d   1      49.823  34.390  51.930  0.00  0.00     0.027 A 
ENDBRANCH  14  15
ENDBRANCH  13  14
ENDBRANCH   2  13
TORSDOF 6
ENDMDL
MODEL 5
REMARK VINA RESULT:      -5.9      2.104      3.262
REMARK  6 active torsions:
REMARK  status: ('A' for Active; 'I' for Inactive)
REMARK       I    between atoms: N_2  and  C_4 
REMARK    1  A    between atoms: C_6  and  N_2 
REMARK    2  A    between atoms: C_12  and  C_3 
REMARK    3  A    between atoms: C_4  and  C_11 
REMARK    4  A    between atoms: O_13  and  C_9 
REMARK    5  A    between atoms: C_11  and  C_12 
REMARK    6  A    between atoms: C_17  and  O_13 
ROOT
ATOM      1  N   UNL d   1      51.789  35.157  53.586  0.00  0.00    -0.206 NA
ATOM      2  C   UNL d   1      52.388  34.804  54.028  0.00  0.00     0.279 C 
ATOM      3  O   UNL d   1      52.708  35.194  54.676  0.00  0.00    -0.265 OA
ENDROOT
BRANCH   1   4
ATOM      4  C   UNL d   1      51.469  34.757  52.931  0.00  0.00     0.107 A 
ATOM      5  C   UNL d   1      50.653  34.688  52.853  0.00  0.00     0.118 A 
ATOM      6  C   UNL d   1      50.336  34.295  52.210  0.00  0.00     0.026 A 
ATOM      7  C   UNL d   1      50.833  33.964  51.633  0.00  0.00     0.002 A 
ATOM      8  C   UNL d   1      51.655  34.033  51.712  0.00  0.00     0.002 A 
ATOM      9  C   UNL d   1      51.975  34.433  52.367  0.00  0.00     0.021 A 
BRANCH   5  10
ATOM     10  O   UNL d   1      50.163  35.017  53.427  0.00  0.00    -0.304 OA
BRANCH  10  11
ATOM     11  C   UNL d   1      49.369  35.158  53.268  0.00  0.00     0.123 C 
ATOM     12  C   UNL d   1      48.915  35.617  53.778  0.00  0.00     0.029 C 
ENDBRANCH  10  11
ENDBRANCH   5  10
ENDBRANCH   1   4
BRANCH   2  13
ATOM     13  C   UNL d   1      52.672  34.055  53.826  0.00  0.00     0.065 C 
BRANCH  13  14
ATOM     14  C   UNL d   1      53.188  33.660  54.326  0.00  0.00     0.030 C 
BRANCH  14  15
ATOM     15  C   UNL d   1      53.519  32.938  54.097  0.00  0.00     0.100 A 
ATOM     16  O   UNL d   1      53.132  32.209  54.036  0.00  0.00    -0.307 OA
ATOM     17  C   UNL d   1      53.671  31.645  53.791  0.00  0.00     0.100 A 
ATOM     18  C   UNL d   1      54.404  32.021  53.696  0.00  0.00     0.027 A 
ATOM     19  C   UNL d   1      53.517  30.851  53.661  0.00  0.00     0.027 C 
ATOM     20  C   UNL d   1      54.311  32.818  53.884  0.00  0.00     0.027 A 
ENDBRANCH  14  15
ENDBRANCH  13  14
ENDBRANCH   2  13
TORSDOF 6
ENDMDL
MODEL 6
REMARK VINA RESULT:      -5.8      1.725      3.254
REMARK  6 active torsions:
REMARK  status: ('A' for Active; 'I' for Inactive)
REMARK       I    between atoms: N_2  and  C_4 
REMARK    1  A    between atoms: C_6  and  N_2 
REMARK    2  A    between atoms: C_12  and  C_3 
REMARK    3  A    between atoms: C_4  and  C_11 
REMARK    4  A    between atoms: O_13  and  C_9 
REMARK    5  A    between atoms: C_11  and  C_12 
REMARK    6  A    between atoms: C_17  and  O_13 
ROOT
ATOM      1  N   UNL d   1      53.804  31.779  53.729  0.00  0.00    -0.206 NA
ATOM      2  C   UNL d   1      53.111  31.815  53.285  0.00  0.00     0.279 C 
ATOM      3  O   UNL d   1      52.920  31.207  52.767  0.00  0.00    -0.265 OA
ENDROOT
BRANCH   1   4
ATOM      4  C   UNL d   1      53.992  32.398  54.251  0.00  0.00     0.107 A 
ATOM      5  C   UNL d   1      54.625  32.896  54.084  0.00  0.00     0.118 A 
ATOM      6  C   UNL d   1      54.812  33.505  54.596  0.00  0.00     0.026 A 
ATOM      7  C   UNL d   1      54.366  33.625  55.287  0.00  0.00     0.002 A 
ATOM      8  C   UNL d   1      53.729  33.124  55.455  0.00  0.00     0.002 A 
ATOM      9  C   UNL d   1      53.540  32.505  54.933  0.00  0.00     0.021 A 
BRANCH   5  10
ATOM     10  O   UNL d   1      55.065  32.774  53.399  0.00  0.00    -0.304 OA
BRANCH  10  11
ATOM     11  C   UNL d   1      55.655  33.303  53.182  0.00  0.00     0.123 C 
ATOM     12  C   UNL d   1      55.938  33.321  52.409  0.00  0.00     0.029 C 
ENDBRANCH  10  11
ENDBRANCH   5  10
ENDBRANCH   1   4
BRANCH   2  13
ATOM     13  C   UNL d   1      52.602  32.462  53.355  0.00  0.00     0.065 C 
BRANCH  13  14
ATOM     14  C   UNL d   1      51.928  32.509  52.891  0.00  0.00     0.030 C 
BRANCH  14  15
ATOM     15  C   UNL d   1      51.530  33.229  52.805  0.00  0.00     0.100 A 
ATOM     16  O   UNL d   1      50.841  33.467  53.196  0.00  0.00    -0.307 OA
ATOM     17  C   UNL d   1      50.642  34.218  52.943  0.00  0.00     0.100 A 
ATOM     18  C   UNL d   1      51.210  34.457  52.389  0.00  0.00     0.027 A 
ATOM     19  C   UNL d   1      49.998  34.660  53.192  0.00  0.00     0.027 C 
ATOM     20  C   UNL d   1      51.758  33.846  52.303  0.00  0.00     0.027 A 
ENDBRANCH  14  15
ENDBRANCH  13  14
ENDBRANCH   2  13
TORSDOF 6
ENDMDL
MODEL 7
REMARK VINA RESULT:      -5.4      1.180      3.833
REMARK  6 active torsions:
REMARK  status: ('A' for Active; 'I' for Inactive)
REMARK       I    between atoms: N_2  and  C_4 
REMARK    1  A    between atoms: C_6  and  N_2 
REMARK    2  A    between atoms: C_12  and  C_3 
REMARK    3  A    between atoms: C_4  and  C_11 
REMARK    4  A    between atoms: O_13  and  C_9 
REMARK    5  A    between atoms: C_11  and  C_12 
REMARK    6  A    between atoms: C_17  and  O_13 
ROOT
ATOM      1  N   UNL d   1      52.571  31.239  52.600  0.00  0.00    -0.206 NA
ATOM      2  C   UNL d   1      52.703  32.032  52.781  0.00  0.00     0.279 C 
ATOM      3  O   UNL d   1      52.337  32.622  52.342  0.00  0.00    -0.265 OA
ENDROOT
BRANCH   1   4
ATOM      4  C   UNL d   1      52.944  30.646  53.047  0.00  0.00     0.107 A 
ATOM      5  C   UNL d   1      52.490  30.099  53.461  0.00  0.00     0.118 A 
ATOM      6  C   UNL d   1      52.856  29.515  53.902  0.00  0.00     0.026 A 
ATOM      7  C   UNL d   1      53.684  29.469  53.933  0.00  0.00     0.002 A 
ATOM      8  C   UNL d   1      54.141  30.019  53.515  0.00  0.00     0.002 A 
ATOM      9  C   UNL d   1      53.768  30.613  53.068  0.00  0.00     0.021 A 
BRANCH   5  10
ATOM     10  O   UNL d   1      51.669  30.148  53.428  0.00  0.00    -0.304 OA
BRANCH  10  11
ATOM     11  C   UNL d   1      51.202  29.591  53.811  0.00  0.00     0.123 C 
ATOM     12  C   UNL d   1      50.381  29.642  53.782  0.00  0.00     0.029 C 
ENDBRANCH  10  11
ENDBRANCH   5  10
ENDBRANCH   1   4
BRANCH   2  13
ATOM     13  C   UNL d   1      53.205  32.241  53.402  0.00  0.00     0.065 C 
BRANCH  13  14
ATOM     14  C   UNL d   1      53.267  33.024  53.637  0.00  0.00     0.030 C 
BRANCH  14  15
ATOM     15  C   UNL d   1      53.791  33.239  54.239  0.00  0.00     0.100 A 
ATOM     16  O   UNL d   1      54.583  33.465  54.154  0.00  0.00    -0.307 OA
ATOM     17  C   UNL d   1      54.890  33.628  54.893  0.00  0.00     0.100 A 
ATOM     18  C   UNL d   1      54.289  33.505  55.450  0.00  0.00     0.027 A 
ATOM     19  C   UNL d   1      55.655  33.871  55.058  0.00  0.00     0.027 C 
ATOM     20  C   UNL d   1      53.610  33.264  55.047  0.00  0.00     0.027 A 
ENDBRANCH  14  15
ENDBRANCH  13  14
ENDBRANCH   2  13
TORSDOF 6
ENDMDL
