MODEL 1
REMARK VINA RESULT:       2.9      0.000      0.000
REMARK  2 active torsions:
REMARK  status: ('A' for Active; 'I' for Inactive)
REMARK    1  A    between atoms: C_2  and  N_1 
REMARK    2  A    between atoms: O_12  and  C_10 
ROOT
ATOM      1  C   UNL d   1      45.497 -13.651  44.402  0.00  0.00     0.072 A 
ATOM      2  C   UNL d   1      45.291 -13.363  43.660  0.00  0.00     0.042 A 
ATOM      3  C   UNL d   1      45.457 -12.577  43.480  0.00  0.00     0.096 A 
ATOM      4  C   UNL d   1      45.864 -13.157  44.954  0.00  0.00     0.018 A 
ATOM      5  C   UNL d   1      46.028 -12.389  44.782  0.00  0.00     0.004 A 
ATOM      6  C   UNL d   1      45.822 -12.080  44.026  0.00  0.00     0.024 A 
ENDROOT
BRANCH   1   7
ATOM      7  N   UNL d   1      45.332 -14.440  44.585  0.00  0.00    -0.242 N 
ATOM      8  C   UNL d   1      45.851 -15.065  44.556  0.00  0.00     0.267 A 
ATOM      9  C   UNL d   1      45.452 -15.752  44.783  0.00  0.00     0.066 A 
ATOM     10  O   UNL d   1      46.645 -15.022  44.336  0.00  0.00    -0.267 OA
ATOM     11  C   UNL d   1      44.668 -15.539  44.955  0.00  0.00     0.066 A 
ATOM     12  C   UNL d   1      44.585 -14.723  44.834  0.00  0.00     0.267 A 
ATOM     13  O   UNL d   1      43.901 -14.285  44.940  0.00  0.00    -0.267 OA
ENDBRANCH   1   7
BRANCH   3  14
ATOM     14  O   UNL d   1      45.250 -12.278  42.729  0.00  0.00    -0.328 OA
ATOM     15  C   UNL d   1      44.472 -12.097  42.582  0.00  0.00     0.181 C 
ENDBRANCH   3  14
TORSDOF 2
ENDMDL
