MODEL 1
REMARK VINA RESULT:      22.5      0.000      0.000
REMARK  2 active torsions:
REMARK  status: ('A' for Active; 'I' for Inactive)
REMARK    1  A    between atoms: C_7  and  C_1 
REMARK       I    between atoms: N_13  and  C_7 
REMARK    2  A    between atoms: C_18  and  N_13 
ROOT
ATOM      1  N   UNL d   1     -42.338-121.752 -56.716  0.00  0.00    -0.191 NA
ATOM      2  C   UNL d   1     -42.232-121.934 -55.910  0.00  0.00     0.101 C 
ATOM      3  C   UNL d   1     -41.914-122.474 -53.497  0.00  0.00     0.085 A 
ATOM      4  C   UNL d   1     -42.125-122.116 -55.104  0.00  0.00     0.068 A 
ATOM      5  C   UNL d   1     -42.134-121.718 -53.731  0.00  0.00     0.020 A 
ATOM      6  C   UNL d   1     -41.797-123.065 -54.087  0.00  0.00     0.020 A 
ATOM      7  C   UNL d   1     -42.243-121.525 -54.526  0.00  0.00     0.012 A 
ATOM      8  C   UNL d   1     -41.906-122.872 -54.881  0.00  0.00     0.012 A 
ENDROOT
BRANCH   3   9
ATOM      9  N   UNL d   1     -41.804-122.672 -52.709  0.00  0.00    -0.208 NA
ATOM     10  C   UNL d   1     -42.355-122.373 -52.159  0.00  0.00     0.283 C 
ATOM     11  O   UNL d   1     -42.971-121.909 -52.384  0.00  0.00    -0.265 OA
BRANCH  10  12
ATOM     12  C   UNL d   1     -42.251-122.568 -51.365  0.00  0.00     0.101 A 
ATOM     13  C   UNL d   1     -41.647-123.068 -51.120  0.00  0.00     0.208 A 
ATOM     14  O   UNL d   1     -41.536-123.267 -50.330  0.00  0.00    -0.288 OA
ATOM     15  N   UNL d   1     -41.123-123.387 -51.697  0.00  0.00    -0.121 N 
ATOM     16  C   UNL d   1     -42.061-122.948 -49.753  0.00  0.00     0.103 A 
ATOM     17  C   UNL d   1     -42.672-122.441 -50.010  0.00  0.00     0.023 A 
ATOM     18  C   UNL d   1     -41.963-123.135 -48.982  0.00  0.00     0.039 A 
ATOM     19  C   UNL d   1     -42.775-122.249 -50.787  0.00  0.00     0.010 A 
ATOM     20  C   UNL d   1     -43.201-122.117 -49.439  0.00  0.00     0.003 A 
ATOM     21  C   UNL d   1     -43.091-122.316 -48.650  0.00  0.00     0.016 A 
ATOM     22  C   UNL d   1     -42.487-122.816 -48.404  0.00  0.00     0.066 A 
ATOM     23  C   UNL d   1     -43.602-122.009 -48.055  0.00  0.00     0.003 A 
ATOM     24  N   UNL d   1     -42.393-122.999 -47.639  0.00  0.00    -0.304 N 
ATOM     25  C   UNL d   1     -41.789-123.498 -47.394  0.00  0.00     0.080 A 
ATOM     26  C   UNL d   1     -42.917-122.680 -47.062  0.00  0.00     0.080 A 
ATOM     27  C   UNL d   1     -41.265-123.818 -47.972  0.00  0.00     0.019 A 
ATOM     28  C   UNL d   1     -41.363-123.630 -48.742  0.00  0.00     0.005 A 
ATOM     29  C   UNL d   1     -43.513-122.188 -47.296  0.00  0.00     0.019 A 
ENDBRANCH  10  12
ENDBRANCH   3   9
TORSDOF 2
ENDMDL
