MODEL 1
REMARK VINA RESULT:      -8.0      0.000      0.000
REMARK  4 active torsions:
REMARK  status: ('A' for Active; 'I' for Inactive)
REMARK       I    between atoms: C_2  and  N_1 
REMARK    1  A    between atoms: C_7  and  N_1 
REMARK    2  A    between atoms: C_5  and  C_2 
REMARK    3  A    between atoms: C_3  and  C_6 
REMARK    4  A    between atoms: C_6  and  C_5 
ROOT
ATOM      1  N   UNL d   1      52.682  33.150  53.604  0.00  0.00    -0.208 NA
ATOM      2  C   UNL d   1      53.309  32.626  53.543  0.00  0.00     0.279 C 
ATOM      3  O   UNL d   1      54.072  32.875  53.732  0.00  0.00    -0.265 OA
ENDROOT
BRANCH   2   4
ATOM      4  C   UNL d   1      53.182  31.851  53.296  0.00  0.00     0.063 C 
BRANCH   4   5
ATOM      5  C   UNL d   1      53.610  31.232  53.631  0.00  0.00     0.011 C 
BRANCH   5   6
ATOM      6  C   UNL d   1      53.324  30.461  53.594  0.00  0.00     0.030 A 
ATOM      7  S   UNL d   1      52.815  30.073  53.059  0.00  0.00    -0.086 SA
ATOM      8  C   UNL d   1      52.724  29.284  53.308  0.00  0.00     0.035 A 
ATOM      9  C   UNL d   1      53.174  29.174  54.000  0.00  0.00     0.007 A 
ATOM     10  C   UNL d   1      53.549  29.906  54.180  0.00  0.00     0.007 A 
ENDBRANCH   5   6
ENDBRANCH   4   5
ENDBRANCH   2   4
BRANCH   1  11
ATOM     11  C   UNL d   1      52.810  33.925  53.852  0.00  0.00     0.085 A 
ATOM     12  C   UNL d   1      52.445  34.537  53.463  0.00  0.00     0.018 A 
ATOM     13  C   UNL d   1      51.948  34.389  52.823  0.00  0.00     0.002 C 
ATOM     14  C   UNL d   1      52.567  35.322  53.706  0.00  0.00     0.002 A 
ATOM     15  C   UNL d   1      53.065  35.474  54.348  0.00  0.00     0.000 A 
ATOM     16  C   UNL d   1      53.437  34.854  54.745  0.00  0.00     0.002 A 
ATOM     17  C   UNL d   1      53.310  34.079  54.497  0.00  0.00     0.019 A 
ENDBRANCH   1  11
TORSDOF 4
ENDMDL
MODEL 2
REMARK VINA RESULT:      -7.5      1.950      3.840
REMARK  4 active torsions:
REMARK  status: ('A' for Active; 'I' for Inactive)
REMARK       I    between atoms: C_2  and  N_1 
REMARK    1  A    between atoms: C_7  and  N_1 
REMARK    2  A    between atoms: C_5  and  C_2 
REMARK    3  A    between atoms: C_3  and  C_6 
REMARK    4  A    between atoms: C_6  and  C_5 
ROOT
ATOM      1  N   UNL d   1      52.695  33.335  53.601  0.00  0.00    -0.208 NA
ATOM      2  C   UNL d   1      52.362  34.034  53.335  0.00  0.00     0.279 C 
ATOM      3  O   UNL d   1      52.688  34.757  53.559  0.00  0.00    -0.265 OA
ENDROOT
BRANCH   2   4
ATOM      4  C   UNL d   1      51.700  34.019  52.844  0.00  0.00     0.063 C 
BRANCH   4   5
ATOM      5  C   UNL d   1      51.013  34.419  53.061  0.00  0.00     0.011 C 
BRANCH   5   6
ATOM      6  C   UNL d   1      50.368  34.443  52.550  0.00  0.00     0.030 A 
ATOM      7  S   UNL d   1      50.258  34.177  51.767  0.00  0.00    -0.086 SA
ATOM      8  C   UNL d   1      49.479  34.355  51.536  0.00  0.00     0.035 A 
ATOM      9  C   UNL d   1      49.097  34.733  52.171  0.00  0.00     0.007 A 
ATOM     10  C   UNL d   1      49.648  34.789  52.805  0.00  0.00     0.007 A 
ENDBRANCH   5   6
ENDBRANCH   4   5
ENDBRANCH   2   4
BRANCH   1  11
ATOM     11  C   UNL d   1      53.357  33.350  54.092  0.00  0.00     0.085 A 
ATOM     12  C   UNL d   1      53.868  32.719  54.099  0.00  0.00     0.018 A 
ATOM     13  C   UNL d   1      53.729  32.065  53.619  0.00  0.00     0.002 C 
ATOM     14  C   UNL d   1      54.537  32.725  54.590  0.00  0.00     0.002 A 
ATOM     15  C   UNL d   1      54.679  33.381  55.074  0.00  0.00     0.000 A 
ATOM     16  C   UNL d   1      54.161  34.024  55.069  0.00  0.00     0.002 A 
ATOM     17  C   UNL d   1      53.500  34.009  54.578  0.00  0.00     0.019 A 
ENDBRANCH   1  11
TORSDOF 4
ENDMDL
MODEL 3
REMARK VINA RESULT:      -6.9      1.344      4.293
REMARK  4 active torsions:
REMARK  status: ('A' for Active; 'I' for Inactive)
REMARK       I    between atoms: C_2  and  N_1 
REMARK    1  A    between atoms: C_7  and  N_1 
REMARK    2  A    between atoms: C_5  and  C_2 
REMARK    3  A    between atoms: C_3  and  C_6 
REMARK    4  A    between atoms: C_6  and  C_5 
ROOT
ATOM      1  N   UNL d   1      53.391  31.460  53.563  0.00  0.00    -0.208 NA
ATOM      2  C   UNL d   1      53.559  32.008  54.148  0.00  0.00     0.279 C 
ATOM      3  O   UNL d   1      53.669  31.758  54.926  0.00  0.00    -0.265 OA
ENDROOT
BRANCH   2   4
ATOM      4  C   UNL d   1      53.620  32.808  53.963  0.00  0.00     0.063 C 
BRANCH   4   5
ATOM      5  C   UNL d   1      53.391  33.379  54.512  0.00  0.00     0.011 C 
BRANCH   5   6
ATOM      6  C   UNL d   1      53.190  34.138  54.262  0.00  0.00     0.030 A 
ATOM      7  S   UNL d   1      52.841  34.427  53.561  0.00  0.00    -0.086 SA
ATOM      8  C   UNL d   1      52.773  35.254  53.625  0.00  0.00     0.035 A 
ATOM      9  C   UNL d   1      53.078  35.487  54.363  0.00  0.00     0.007 A 
ATOM     10  C   UNL d   1      53.338  34.794  54.762  0.00  0.00     0.007 A 
ENDBRANCH   5   6
ENDBRANCH   4   5
ENDBRANCH   2   4
BRANCH   1  11
ATOM     11  C   UNL d   1      53.330  30.659  53.749  0.00  0.00     0.085 A 
ATOM     12  C   UNL d   1      53.021  30.142  53.204  0.00  0.00     0.018 A 
ATOM     13  C   UNL d   1      52.767  30.412  52.469  0.00  0.00     0.002 C 
ATOM     14  C   UNL d   1      52.956  29.334  53.381  0.00  0.00     0.002 A 
ATOM     15  C   UNL d   1      53.210  29.059  54.119  0.00  0.00     0.000 A 
ATOM     16  C   UNL d   1      53.524  29.582  54.674  0.00  0.00     0.002 A 
ATOM     17  C   UNL d   1      53.585  30.382  54.489  0.00  0.00     0.019 A 
ENDBRANCH   1  11
TORSDOF 4
ENDMDL
MODEL 4
REMARK VINA RESULT:      -6.5      3.578      4.976
REMARK  4 active torsions:
REMARK  status: ('A' for Active; 'I' for Inactive)
REMARK       I    between atoms: C_2  and  N_1 
REMARK    1  A    between atoms: C_7  and  N_1 
REMARK    2  A    between atoms: C_5  and  C_2 
REMARK    3  A    between atoms: C_3  and  C_6 
REMARK    4  A    between atoms: C_6  and  C_5 
ROOT
ATOM      1  N   UNL d   1      49.030  35.264  52.972  0.00  0.00    -0.208 NA
ATOM      2  C   UNL d   1      49.542  34.758  52.582  0.00  0.00     0.279 C 
ATOM      3  O   UNL d   1      49.379  34.526  51.807  0.00  0.00    -0.265 OA
ENDROOT
BRANCH   2   4
ATOM      4  C   UNL d   1      50.220  34.480  52.957  0.00  0.00     0.063 C 
BRANCH   4   5
ATOM      5  C   UNL d   1      50.897  34.311  52.519  0.00  0.00     0.011 C 
BRANCH   5   6
ATOM      6  C   UNL d   1      51.588  34.073  52.899  0.00  0.00     0.030 A 
ATOM      7  S   UNL d   1      51.808  33.362  53.276  0.00  0.00    -0.086 SA
ATOM      8  C   UNL d   1      52.586  33.446  53.561  0.00  0.00     0.035 A 
ATOM      9  C   UNL d   1      52.857  34.208  53.364  0.00  0.00     0.007 A 
ATOM     10  C   UNL d   1      52.237  34.601  52.951  0.00  0.00     0.007 A 
ENDBRANCH   5   6
ENDBRANCH   4   5
ENDBRANCH   2   4
BRANCH   1  11
ATOM     11  C   UNL d   1      48.352  35.542  52.596  0.00  0.00     0.085 A 
ATOM     12  C   UNL d   1      47.877  36.085  52.971  0.00  0.00     0.018 A 
ATOM     13  C   UNL d   1      48.069  36.358  53.723  0.00  0.00     0.002 C 
ATOM     14  C   UNL d   1      47.192  36.371  52.600  0.00  0.00     0.002 A 
ATOM     15  C   UNL d   1      46.997  36.099  51.844  0.00  0.00     0.000 A 
ATOM     16  C   UNL d   1      47.477  35.548  51.462  0.00  0.00     0.002 A 
ATOM     17  C   UNL d   1      48.154  35.269  51.837  0.00  0.00     0.019 A 
ENDBRANCH   1  11
TORSDOF 4
ENDMDL
