MODEL 1
REMARK VINA RESULT:      24.0      0.000      0.000
REMARK  4 active torsions:
REMARK  status: ('A' for Active; 'I' for Inactive)
REMARK    1  A    between atoms: N_2  and  S_1 
REMARK    2  A    between atoms: C_3  and  S_1 
REMARK    3  A    between atoms: O_15  and  C_11 
REMARK    4  A    between atoms: O_17  and  C_13 
ROOT
ATOM      1  C   UNL d   1     -58.323 -98.798 -44.411  0.00  0.00     0.128 A 
ATOM      2  C   UNL d   1     -58.657 -98.782 -43.652  0.00  0.00     0.039 A 
ATOM      3  C   UNL d   1     -58.807 -98.804 -45.072  0.00  0.00     0.106 A 
ATOM      4  C   UNL d   1     -59.629 -98.796 -44.977  0.00  0.00     0.027 A 
ATOM      5  C   UNL d   1     -59.472 -98.774 -43.562  0.00  0.00     0.095 A 
ATOM      6  C   UNL d   1     -59.960 -98.780 -44.226  0.00  0.00     0.026 A 
ENDROOT
BRANCH   1   7
ATOM      7  S   UNL d   1     -57.501 -98.806 -44.508  0.00  0.00     0.274 S 
ATOM      8  O   UNL d   1     -57.589 -98.757 -45.324  0.00  0.00    -0.199 OA
ATOM      9  O   UNL d   1     -57.412 -98.856 -43.688  0.00  0.00    -0.199 OA
BRANCH   7  10
ATOM     10  N   UNL d   1     -56.690 -98.816 -44.594  0.00  0.00    -0.213 N 
ATOM     11  C   UNL d   1     -56.168 -98.793 -43.991  0.00  0.00     0.157 A 
ATOM     12  N   UNL d   1     -55.391 -98.812 -44.310  0.00  0.00    -0.224 NA
ATOM     13  C   UNL d   1     -56.277 -98.757 -43.172  0.00  0.00     0.041 C 
ATOM     14  C   UNL d   1     -55.481 -98.847 -45.125  0.00  0.00     0.120 A 
ATOM     15  C   UNL d   1     -56.307 -98.849 -45.300  0.00  0.00     0.114 A 
ENDBRANCH   7  10
ENDBRANCH   1   7
BRANCH   3  16
ATOM     16  O   UNL d   1     -58.473 -98.820 -45.830  0.00  0.00    -0.327 OA
ATOM     17  C   UNL d   1     -58.961 -98.780 -46.490  0.00  0.00     0.181 C 
ENDBRANCH   3  16
BRANCH   5  18
ATOM     18  O   UNL d   1     -59.804 -98.758 -42.806  0.00  0.00    -0.328 OA
ATOM     19  C   UNL d   1     -59.842 -99.451 -42.363  0.00  0.00     0.181 C 
ENDBRANCH   5  18
TORSDOF 4
ENDMDL
MODEL 2
REMARK VINA RESULT:      25.9      0.598      2.015
REMARK  4 active torsions:
REMARK  status: ('A' for Active; 'I' for Inactive)
REMARK    1  A    between atoms: N_2  and  S_1 
REMARK    2  A    between atoms: C_3  and  S_1 
REMARK    3  A    between atoms: O_15  and  C_11 
REMARK    4  A    between atoms: O_17  and  C_13 
ROOT
ATOM      1  C   UNL d   1     -58.341 -98.786 -44.592  0.00  0.00     0.128 A 
ATOM      2  C   UNL d   1     -58.611 -98.787 -45.375  0.00  0.00     0.039 A 
ATOM      3  C   UNL d   1     -58.877 -98.771 -43.973  0.00  0.00     0.106 A 
ATOM      4  C   UNL d   1     -59.689 -98.757 -44.135  0.00  0.00     0.027 A 
ATOM      5  C   UNL d   1     -59.415 -98.774 -45.533  0.00  0.00     0.095 A 
ATOM      6  C   UNL d   1     -59.957 -98.759 -44.911  0.00  0.00     0.026 A 
ENDROOT
BRANCH   1   7
ATOM      7  S   UNL d   1     -57.530 -98.799 -44.427  0.00  0.00     0.274 S 
ATOM      8  O   UNL d   1     -57.358 -98.755 -45.231  0.00  0.00    -0.199 OA
ATOM      9  O   UNL d   1     -57.702 -98.843 -43.621  0.00  0.00    -0.199 OA
BRANCH   7  10
ATOM     10  N   UNL d   1     -56.732 -98.812 -44.255  0.00  0.00    -0.213 N 
ATOM     11  C   UNL d   1     -56.150 -98.822 -44.800  0.00  0.00     0.157 A 
ATOM     12  N   UNL d   1     -55.411 -98.835 -44.400  0.00  0.00    -0.224 NA
ATOM     13  C   UNL d   1     -56.171 -98.821 -45.626  0.00  0.00     0.041 C 
ATOM     14  C   UNL d   1     -55.587 -98.832 -43.598  0.00  0.00     0.120 A 
ATOM     15  C   UNL d   1     -56.426 -98.818 -43.512  0.00  0.00     0.114 A 
ENDBRANCH   7  10
ENDBRANCH   1   7
BRANCH   3  16
ATOM     16  O   UNL d   1     -58.607 -98.769 -43.189  0.00  0.00    -0.327 OA
ATOM     17  C   UNL d   1     -59.137 -98.911 -42.577  0.00  0.00     0.181 C 
ENDBRANCH   3  16
BRANCH   5  18
ATOM     18  O   UNL d   1     -59.684 -98.776 -46.314  0.00  0.00    -0.328 OA
ATOM     19  C   UNL d   1     -59.308 -99.248 -46.874  0.00  0.00     0.181 C 
ENDBRANCH   5  18
TORSDOF 4
ENDMDL
