MODEL 1
REMARK VINA RESULT:      -6.0      0.000      0.000
REMARK  1 active torsions:
REMARK  status: ('A' for Active; 'I' for Inactive)
REMARK    1  A    between atoms: C_2  and  C_1 
ROOT
ATOM      1  C   UNL d   1     -47.849  12.156  23.115  0.00  0.00     0.104 A 
ATOM      2  C   UNL d   1     -47.091  11.964  23.420  0.00  0.00     0.202 A 
ATOM      3  C   UNL d   1     -48.003  12.959  22.876  0.00  0.00     0.021 A 
ATOM      4  C   UNL d   1     -46.519  12.554  23.481  0.00  0.00     0.043 A 
ATOM      5  C   UNL d   1     -47.402  13.518  22.954  0.00  0.00     0.058 A 
ATOM      6  C   UNL d   1     -46.660  13.323  23.254  0.00  0.00     0.015 A 
ATOM      7  O   UNL d   1     -46.930  11.171  23.659  0.00  0.00    -0.286 OA
ATOM      8 CL   UNL d   1     -47.563  14.311  22.715  0.00  0.00    -0.082 Cl
ENDROOT
BRANCH   1   9
ATOM      9  C   UNL d   1     -48.433  11.576  23.048  0.00  0.00     0.214 C 
ATOM     10  O   UNL d   1     -48.931  11.381  23.690  0.00  0.00    -0.644 OA
ATOM     11  O   UNL d   1     -48.555  11.154  22.330  0.00  0.00    -0.644 OA
ENDBRANCH   1   9
TORSDOF 1
ENDMDL
MODEL 2
REMARK VINA RESULT:      -5.7      2.069      2.430
REMARK  1 active torsions:
REMARK  status: ('A' for Active; 'I' for Inactive)
REMARK    1  A    between atoms: C_2  and  C_1 
ROOT
ATOM      1  C   UNL d   1     -47.783  13.757  22.874  0.00  0.00     0.104 A 
ATOM      2  C   UNL d   1     -46.993  14.040  22.880  0.00  0.00     0.202 A 
ATOM      3  C   UNL d   1     -47.931  12.952  23.109  0.00  0.00     0.021 A 
ATOM      4  C   UNL d   1     -46.384  13.535  23.111  0.00  0.00     0.043 A 
ATOM      5  C   UNL d   1     -47.293  12.480  23.334  0.00  0.00     0.058 A 
ATOM      6  C   UNL d   1     -46.520  12.764  23.338  0.00  0.00     0.015 A 
ATOM      7  O   UNL d   1     -46.838  14.837  22.648  0.00  0.00    -0.286 OA
ATOM      8 CL   UNL d   1     -47.448  11.684  23.566  0.00  0.00    -0.082 Cl
ENDROOT
BRANCH   1   9
ATOM      9  C   UNL d   1     -48.404  14.250  22.645  0.00  0.00     0.214 C 
ATOM     10  O   UNL d   1     -48.687  14.260  21.859  0.00  0.00    -0.644 OA
ATOM     11  O   UNL d   1     -48.781  14.768  23.192  0.00  0.00    -0.644 OA
ENDBRANCH   1   9
TORSDOF 1
ENDMDL
MODEL 3
REMARK VINA RESULT:      -5.5      1.957      2.759
REMARK  1 active torsions:
REMARK  status: ('A' for Active; 'I' for Inactive)
REMARK    1  A    between atoms: C_2  and  C_1 
ROOT
ATOM      1  C   UNL d   1     -49.024  11.997  22.761  0.00  0.00     0.104 A 
ATOM      2  C   UNL d   1     -49.160  12.292  21.987  0.00  0.00     0.202 A 
ATOM      3  C   UNL d   1     -49.678  11.956  23.304  0.00  0.00     0.021 A 
ATOM      4  C   UNL d   1     -49.919  12.534  21.774  0.00  0.00     0.043 A 
ATOM      5  C   UNL d   1     -50.422  12.208  23.051  0.00  0.00     0.058 A 
ATOM      6  C   UNL d   1     -50.549  12.497  22.290  0.00  0.00     0.015 A 
ATOM      7  O   UNL d   1     -48.517  12.336  21.441  0.00  0.00    -0.286 OA
ATOM      8 CL   UNL d   1     -51.063  12.164  23.596  0.00  0.00    -0.082 Cl
ENDROOT
BRANCH   1   9
ATOM      9  C   UNL d   1     -48.269  11.752  22.988  0.00  0.00     0.214 C 
ATOM     10  O   UNL d   1     -47.701  12.293  23.273  0.00  0.00    -0.644 OA
ATOM     11  O   UNL d   1     -48.037  10.943  22.945  0.00  0.00    -0.644 OA
ENDBRANCH   1   9
TORSDOF 1
ENDMDL
MODEL 4
REMARK VINA RESULT:      -5.5      1.734      2.220
REMARK  1 active torsions:
REMARK  status: ('A' for Active; 'I' for Inactive)
REMARK    1  A    between atoms: C_2  and  C_1 
ROOT
ATOM      1  C   UNL d   1     -47.954  13.839  22.799  0.00  0.00     0.104 A 
ATOM      2  C   UNL d   1     -48.086  13.086  23.145  0.00  0.00     0.202 A 
ATOM      3  C   UNL d   1     -47.155  14.067  22.609  0.00  0.00     0.021 A 
ATOM      4  C   UNL d   1     -47.445  12.589  23.291  0.00  0.00     0.043 A 
ATOM      5  C   UNL d   1     -46.542  13.540  22.771  0.00  0.00     0.058 A 
ATOM      6  C   UNL d   1     -46.679  12.802  23.111  0.00  0.00     0.015 A 
ATOM      7  O   UNL d   1     -48.874  12.851  23.336  0.00  0.00    -0.286 OA
ATOM      8 CL   UNL d   1     -45.755  13.774  22.580  0.00  0.00    -0.082 Cl
ENDROOT
BRANCH   1   9
ATOM      9  C   UNL d   1     -48.586  14.348  22.646  0.00  0.00     0.214 C 
ATOM     10  O   UNL d   1     -48.989  14.337  21.915  0.00  0.00    -0.644 OA
ATOM     11  O   UNL d   1     -48.854  14.902  23.221  0.00  0.00    -0.644 OA
ENDBRANCH   1   9
TORSDOF 1
ENDMDL
MODEL 5
REMARK VINA RESULT:      -5.4      1.801      2.623
REMARK  1 active torsions:
REMARK  status: ('A' for Active; 'I' for Inactive)
REMARK    1  A    between atoms: C_2  and  C_1 
ROOT
ATOM      1  C   UNL d   1     -47.620  13.954  22.640  0.00  0.00     0.104 A 
ATOM      2  C   UNL d   1     -47.983  13.422  22.102  0.00  0.00     0.202 A 
ATOM      3  C   UNL d   1     -48.054  14.643  22.889  0.00  0.00     0.021 A 
ATOM      4  C   UNL d   1     -48.745  13.578  21.830  0.00  0.00     0.043 A 
ATOM      5  C   UNL d   1     -48.814  14.763  22.593  0.00  0.00     0.058 A 
ATOM      6  C   UNL d   1     -49.165  14.236  22.065  0.00  0.00     0.015 A 
ATOM      7  O   UNL d   1     -47.560  12.736  21.850  0.00  0.00    -0.286 OA
ATOM      8 CL   UNL d   1     -49.236  15.448  22.845  0.00  0.00    -0.082 Cl
ENDROOT
BRANCH   1   9
ATOM      9  C   UNL d   1     -46.857  13.811  22.921  0.00  0.00     0.214 C 
ATOM     10  O   UNL d   1     -46.189  14.172  22.575  0.00  0.00    -0.644 OA
ATOM     11  O   UNL d   1     -46.716  13.293  23.570  0.00  0.00    -0.644 OA
ENDBRANCH   1   9
TORSDOF 1
ENDMDL
MODEL 6
REMARK VINA RESULT:      -5.0      9.476     10.030
REMARK  1 active torsions:
REMARK  status: ('A' for Active; 'I' for Inactive)
REMARK    1  A    between atoms: C_2  and  C_1 
ROOT
ATOM      1  C   UNL d   1     -40.257  14.808  17.238  0.00  0.00     0.104 A 
ATOM      2  C   UNL d   1     -40.234  14.140  17.746  0.00  0.00     0.202 A 
ATOM      3  C   UNL d   1     -39.584  14.968  16.742  0.00  0.00     0.021 A 
ATOM      4  C   UNL d   1     -39.565  13.659  17.751  0.00  0.00     0.043 A 
ATOM      5  C   UNL d   1     -38.934  14.461  16.778  0.00  0.00     0.058 A 
ATOM      6  C   UNL d   1     -38.918  13.807  17.279  0.00  0.00     0.015 A 
ATOM      7  O   UNL d   1     -40.897  13.974  18.241  0.00  0.00    -0.286 OA
ATOM      8 CL   UNL d   1     -38.272  14.627  16.283  0.00  0.00    -0.082 Cl
ENDROOT
BRANCH   1   9
ATOM      9  C   UNL d   1     -40.920  15.299  17.221  0.00  0.00     0.214 C 
ATOM     10  O   UNL d   1     -41.017  15.921  17.769  0.00  0.00    -0.644 OA
ATOM     11  O   UNL d   1     -41.531  15.196  16.650  0.00  0.00    -0.644 OA
ENDBRANCH   1   9
TORSDOF 1
ENDMDL
MODEL 7
REMARK VINA RESULT:      -4.8      9.344     10.006
REMARK  1 active torsions:
REMARK  status: ('A' for Active; 'I' for Inactive)
REMARK    1  A    between atoms: C_2  and  C_1 
ROOT
ATOM      1  C   UNL d   1     -39.664  14.231  17.618  0.00  0.00     0.104 A 
ATOM      2  C   UNL d   1     -40.484  14.375  17.723  0.00  0.00     0.202 A 
ATOM      3  C   UNL d   1     -39.214  14.762  17.127  0.00  0.00     0.021 A 
ATOM      4  C   UNL d   1     -40.831  15.023  17.351  0.00  0.00     0.043 A 
ATOM      5  C   UNL d   1     -39.601  15.398  16.773  0.00  0.00     0.058 A 
ATOM      6  C   UNL d   1     -40.406  15.534  16.880  0.00  0.00     0.015 A 
ATOM      7  O   UNL d   1     -40.937  13.853  18.208  0.00  0.00    -0.286 OA
ATOM      8 CL   UNL d   1     -39.148  15.919  16.289  0.00  0.00    -0.082 Cl
ENDROOT
BRANCH   1   9
ATOM      9  C   UNL d   1     -39.301  13.586  17.985  0.00  0.00     0.214 C 
ATOM     10  O   UNL d   1     -38.971  13.646  18.749  0.00  0.00    -0.644 OA
ATOM     11  O   UNL d   1     -39.247  12.836  17.605  0.00  0.00    -0.644 OA
ENDBRANCH   1   9
TORSDOF 1
ENDMDL
MODEL 8
REMARK VINA RESULT:      -4.7      8.653      9.104
REMARK  1 active torsions:
REMARK  status: ('A' for Active; 'I' for Inactive)
REMARK    1  A    between atoms: C_2  and  C_1 
ROOT
ATOM      1  C   UNL d   1     -40.530  15.043  18.104  0.00  0.00     0.104 A 
ATOM      2  C   UNL d   1     -40.345  14.250  18.303  0.00  0.00     0.202 A 
ATOM      3  C   UNL d   1     -40.639  15.608  18.731  0.00  0.00     0.021 A 
ATOM      4  C   UNL d   1     -40.273  14.038  19.097  0.00  0.00     0.043 A 
ATOM      5  C   UNL d   1     -40.559  15.355  19.512  0.00  0.00     0.058 A 
ATOM      6  C   UNL d   1     -40.376  14.574  19.702  0.00  0.00     0.015 A 
ATOM      7  O   UNL d   1     -40.235  13.682  17.687  0.00  0.00    -0.286 OA
ATOM      8 CL   UNL d   1     -40.668  15.921  20.127  0.00  0.00    -0.082 Cl
ENDROOT
BRANCH   1   9
ATOM      9  C   UNL d   1     -40.605  15.270  17.313  0.00  0.00     0.214 C 
ATOM     10  O   UNL d   1     -41.324  15.177  16.898  0.00  0.00    -0.644 OA
ATOM     11  O   UNL d   1     -39.961  15.606  16.888  0.00  0.00    -0.644 OA
ENDBRANCH   1   9
TORSDOF 1
ENDMDL
MODEL 9
REMARK VINA RESULT:      -4.6      1.648      2.175
REMARK  1 active torsions:
REMARK  status: ('A' for Active; 'I' for Inactive)
REMARK    1  A    between atoms: C_2  and  C_1 
ROOT
ATOM      1  C   UNL d   1     -46.886  12.705  23.134  0.00  0.00     0.104 A 
ATOM      2  C   UNL d   1     -46.637  11.997  23.509  0.00  0.00     0.202 A 
ATOM      3  C   UNL d   1     -47.711  12.802  22.948  0.00  0.00     0.021 A 
ATOM      4  C   UNL d   1     -47.194  11.416  23.687  0.00  0.00     0.043 A 
ATOM      5  C   UNL d   1     -48.236  12.196  23.143  0.00  0.00     0.058 A 
ATOM      6  C   UNL d   1     -47.985  11.503  23.511  0.00  0.00     0.015 A 
ATOM      7  O   UNL d   1     -45.821  11.893  23.698  0.00  0.00    -0.286 OA
ATOM      8 CL   UNL d   1     -49.051  12.300  22.954  0.00  0.00    -0.082 Cl
ENDROOT
BRANCH   1   9
ATOM      9  C   UNL d   1     -46.339  13.296  22.950  0.00  0.00     0.214 C 
ATOM     10  O   UNL d   1     -46.188  13.930  23.472  0.00  0.00    -0.644 OA
ATOM     11  O   UNL d   1     -45.908  13.288  22.226  0.00  0.00    -0.644 OA
ENDBRANCH   1   9
TORSDOF 1
ENDMDL
