MODEL 1
REMARK VINA RESULT:      19.9      0.000      0.000
REMARK  4 active torsions:
REMARK  status: ('A' for Active; 'I' for Inactive)
REMARK    1  A    between atoms: N_8  and  C_1 
REMARK    2  A    between atoms: O_11  and  C_2 
REMARK       I    between atoms: C_12  and  N_8 
REMARK    3  A    between atoms: C_16  and  O_11 
REMARK    4  A    between atoms: O_22  and  C_17 
ROOT
ATOM      1  C   UNL d   1      45.629 -15.118  44.412  0.00  0.00     0.272 A 
ATOM      2  C   UNL d   1      45.627 -15.839  44.692  0.00  0.00     0.284 A 
ATOM      3  C   UNL d   1      45.531 -13.618  43.840  0.00  0.00     0.207 A 
ATOM      4  C   UNL d   1      44.904 -14.282  44.158  0.00  0.00     0.220 A 
ATOM      5  O   UNL d   1      46.258 -15.174  44.373  0.00  0.00    -0.325 OA
ATOM      6  C   UNL d   1      45.551 -14.387  44.136  0.00  0.00     0.182 A 
ATOM      7  O   UNL d   1      45.009 -13.043  43.667  0.00  0.00    -0.327 OA
ATOM      8  C   UNL d   1      45.446 -12.591  43.449  0.00  0.00     0.188 A 
ATOM      9  O   UNL d   1      45.862 -13.162  43.631  0.00  0.00    -0.332 OA
ATOM     10  C   UNL d   1      45.964 -13.932  43.919  0.00  0.00     0.177 A 
ATOM     11  O   UNL d   1      44.932 -13.680  43.921  0.00  0.00    -0.290 OA
ATOM     12  C   UNL d   1      44.893 -12.132  43.325  0.00  0.00     0.061 C 
ATOM     13  C   UNL d   1      45.910 -12.080  43.206  0.00  0.00     0.061 C 
ENDROOT
BRANCH   2  14
ATOM     14  O   UNL d   1      46.149 -16.417  44.865  0.00  0.00    -0.303 OA
BRANCH  14  15
ATOM     15  C   UNL d   1      46.201 -17.088  44.371  0.00  0.00     0.097 A 
ATOM     16  C   UNL d   1      46.323 -17.828  44.709  0.00  0.00     0.026 A 
ATOM     17  C   UNL d   1      46.376 -18.502  44.223  0.00  0.00     0.026 A 
ATOM     18  C   UNL d   1      46.305 -18.420  43.398  0.00  0.00     0.094 A 
ATOM     19  C   UNL d   1      46.181 -17.669  43.064  0.00  0.00     0.026 A 
ATOM     20  C   UNL d   1      46.129 -16.998  43.553  0.00  0.00     0.026 A 
BRANCH  18  21
ATOM     21  O   UNL d   1      46.357 -19.093  42.911  0.00  0.00    -0.328 OA
ATOM     22  C   UNL d   1      46.613 -19.021  42.129  0.00  0.00     0.181 C 
ENDBRANCH  18  21
ENDBRANCH  14  15
ENDBRANCH   2  14
BRANCH   1  23
ATOM     23  N   UNL d   1      45.214 -15.574  44.629  0.00  0.00    -0.380 NA
ATOM     24  C   UNL d   1      44.798 -16.027  44.845  0.00  0.00     0.324 C 
ATOM     25  O   UNL d   1      45.009 -16.636  44.955  0.00  0.00    -0.251 OA
ATOM     26  C   UNL d   1      44.168 -15.876  44.955  0.00  0.00     0.082 C 
ENDBRANCH   1  23
TORSDOF 4
ENDMDL
