MODEL 1
REMARK VINA RESULT:      -4.9      0.000      0.000
REMARK  3 active torsions:
REMARK  status: ('A' for Active; 'I' for Inactive)
REMARK    1  A    between atoms: C_6  and  N_1 
REMARK    2  A    between atoms: C_5  and  C_6 
REMARK       I    between atoms: N_10  and  C_5 
REMARK    3  A    between atoms: C_16  and  N_10 
ROOT
ATOM      1  C   UNL d   1      58.280   0.041  30.335  0.00  0.00     0.297 C 
ATOM      2  N   UNL d   1      57.463   0.020  30.419  0.00  0.00    -0.207 NA
ATOM      3  O   UNL d   1      58.758   0.022  31.011  0.00  0.00    -0.264 OA
ENDROOT
BRANCH   1   4
ATOM      4  C   UNL d   1      58.621   0.081  29.588  0.00  0.00     0.148 C 
BRANCH   4   5
ATOM      5  N   UNL d   1      59.290  -0.364  29.420  0.00  0.00    -0.235 N 
ATOM      6  C   UNL d   1      59.218  -1.101  29.066  0.00  0.00     0.273 A 
ATOM      7  C   UNL d   1      59.893  -1.548  28.897  0.00  0.00     0.086 A 
ATOM      8  O   UNL d   1      58.470  -1.402  28.874  0.00  0.00    -0.266 OA
ATOM      9  C   UNL d   1      59.841  -2.292  28.540  0.00  0.00     0.012 C 
ATOM     10  S   UNL d   1      60.632  -1.243  29.090  0.00  0.00    -0.077 SA
ATOM     11  C   UNL d   1      60.709  -0.509  29.444  0.00  0.00     0.097 A 
ATOM     12  C   UNL d   1      60.040  -0.063  29.612  0.00  0.00     0.274 A 
ATOM     13  O   UNL d   1      60.115   0.681  29.970  0.00  0.00    -0.266 OA
ENDBRANCH   4   5
ENDBRANCH   1   4
BRANCH   2  14
ATOM     14  C   UNL d   1      57.121  -0.020  31.162  0.00  0.00     0.087 A 
ATOM     15  C   UNL d   1      56.887  -0.757  31.447  0.00  0.00     0.045 A 
ATOM     16  C   UNL d   1      56.542  -0.822  32.188  0.00  0.00     0.121 A 
ATOM     17  O   UNL d   1      56.258  -1.467  32.614  0.00  0.00    -0.299 OA
ATOM     18  C   UNL d   1      56.430  -0.145  32.649  0.00  0.00     0.119 A 
ATOM     19  C   UNL d   1      55.970  -1.187  33.336  0.00  0.00     0.304 A 
ATOM     20  O   UNL d   1      56.078  -0.383  33.350  0.00  0.00    -0.300 OA
ATOM     21  C   UNL d   1      56.662   0.595  32.367  0.00  0.00     0.028 A 
ATOM     22  C   UNL d   1      57.011   0.664  31.620  0.00  0.00     0.021 A 
ENDBRANCH   2  14
TORSDOF 3
ENDMDL
MODEL 2
REMARK VINA RESULT:      -2.7      1.739      4.384
REMARK  3 active torsions:
REMARK  status: ('A' for Active; 'I' for Inactive)
REMARK    1  A    between atoms: C_6  and  N_1 
REMARK    2  A    between atoms: C_5  and  C_6 
REMARK       I    between atoms: N_10  and  C_5 
REMARK    3  A    between atoms: C_16  and  N_10 
ROOT
ATOM      1  C   UNL d   1      57.775  -0.323  30.725  0.00  0.00     0.297 C 
ATOM      2  N   UNL d   1      58.195  -0.236  30.025  0.00  0.00    -0.207 NA
ATOM      3  O   UNL d   1      57.740  -1.067  31.088  0.00  0.00    -0.264 OA
ENDROOT
BRANCH   1   4
ATOM      4  C   UNL d   1      57.393   0.321  31.064  0.00  0.00     0.148 C 
BRANCH   4   5
ATOM      5  N   UNL d   1      57.215   0.315  31.867  0.00  0.00    -0.235 N 
ATOM      6  C   UNL d   1      56.457   0.131  32.120  0.00  0.00     0.273 A 
ATOM      7  C   UNL d   1      56.279   0.125  32.928  0.00  0.00     0.086 A 
ATOM      8  O   UNL d   1      55.864  -0.050  31.571  0.00  0.00    -0.266 OA
ATOM      9  C   UNL d   1      55.522  -0.057  33.204  0.00  0.00     0.012 C 
ATOM     10  S   UNL d   1      56.873   0.306  33.468  0.00  0.00    -0.077 SA
ATOM     11  C   UNL d   1      57.632   0.490  33.220  0.00  0.00     0.097 A 
ATOM     12  C   UNL d   1      57.809   0.496  32.417  0.00  0.00     0.274 A 
ATOM     13  O   UNL d   1      58.576   0.682  32.163  0.00  0.00    -0.266 OA
ENDBRANCH   4   5
ENDBRANCH   1   4
BRANCH   2  14
ATOM     14  C   UNL d   1      58.576  -0.876  29.684  0.00  0.00     0.087 A 
ATOM     15  C   UNL d   1      59.385  -0.817  29.536  0.00  0.00     0.045 A 
ATOM     16  C   UNL d   1      59.789  -1.443  29.197  0.00  0.00     0.121 A 
ATOM     17  O   UNL d   1      60.578  -1.548  28.987  0.00  0.00    -0.299 OA
ATOM     18  C   UNL d   1      59.382  -2.136  29.003  0.00  0.00     0.119 A 
ATOM     19  C   UNL d   1      60.657  -2.304  28.664  0.00  0.00     0.304 A 
ATOM     20  O   UNL d   1      59.926  -2.656  28.677  0.00  0.00    -0.300 OA
ATOM     21  C   UNL d   1      58.573  -2.200  29.149  0.00  0.00     0.028 A 
ATOM     22  C   UNL d   1      58.162  -1.568  29.492  0.00  0.00     0.021 A 
ENDBRANCH   2  14
TORSDOF 3
ENDMDL
