MODEL 1
REMARK VINA RESULT:      37.6      0.000      0.000
REMARK  3 active torsions:
REMARK  status: ('A' for Active; 'I' for Inactive)
REMARK    1  A    between atoms: S_3  and  N_1 
REMARK    2  A    between atoms: C_5  and  C_4 
REMARK    3  A    between atoms: C_12  and  C_6 
ROOT
ATOM      1  N   UNL d   1      44.909 -15.449  44.496  0.00  0.00    -0.155 N 
ATOM      2  N   UNL d   1      44.931 -14.646  44.637  0.00  0.00    -0.153 NA
ATOM      3  C   UNL d   1      45.634 -15.684  44.214  0.00  0.00     0.098 A 
ATOM      4  C   UNL d   1      45.687 -14.379  44.438  0.00  0.00     0.126 A 
ATOM      5  C   UNL d   1      46.121 -15.021  44.177  0.00  0.00     0.043 A 
ENDROOT
BRANCH   3   6
ATOM      6  C   UNL d   1      45.849 -16.452  44.001  0.00  0.00     0.047 A 
ATOM      7  C   UNL d   1      45.953 -16.646  43.207  0.00  0.00     0.140 A 
ATOM      8  N   UNL d   1      46.169 -17.414  42.994  0.00  0.00    -0.234 NA
ATOM      9 CL   UNL d   1      45.842 -16.072  42.624  0.00  0.00    -0.061 Cl
ATOM     10  C   UNL d   1      46.279 -17.987  43.577  0.00  0.00     0.082 A 
ATOM     11  C   UNL d   1      46.175 -17.793  44.371  0.00  0.00     0.018 A 
ATOM     12  C   UNL d   1      46.494 -18.755  43.364  0.00  0.00     0.018 A 
ATOM     13  C   UNL d   1      45.960 -17.026  44.585  0.00  0.00     0.005 A 
ATOM     14  C   UNL d   1      46.286 -18.366  44.954  0.00  0.00     0.002 A 
ATOM     15  C   UNL d   1      46.495 -19.109  44.735  0.00  0.00     0.000 A 
ATOM     16  C   UNL d   1      46.599 -19.303  43.940  0.00  0.00     0.002 A 
ATOM     17  C   UNL d   1      46.599 -18.949  42.569  0.00  0.00     0.002 C 
ENDBRANCH   3   6
BRANCH   1  18
ATOM     18  S   UNL d   1      44.133 -15.510  44.739  0.00  0.00     0.266 S 
ATOM     19  O   UNL d   1      43.806 -16.237  44.946  0.00  0.00    -0.203 OA
ATOM     20  O   UNL d   1      43.836 -14.742  44.715  0.00  0.00    -0.203 OA
ATOM     21  C   UNL d   1      43.350 -15.364  44.953  0.00  0.00     0.165 C 
ENDBRANCH   1  18
BRANCH   4  22
ATOM     22  C   UNL d   1      45.954 -13.616  44.492  0.00  0.00     0.119 A 
ATOM     23  O   UNL d   1      46.554 -13.329  44.955  0.00  0.00    -0.304 OA
ATOM     24  C   UNL d   1      46.635 -12.524  44.833  0.00  0.00     0.123 A 
ATOM     25  C   UNL d   1      46.078 -12.293  44.284  0.00  0.00     0.029 A 
ATOM     26  C   UNL d   1      45.645 -12.964  44.060  0.00  0.00     0.028 A 
ENDBRANCH   4  22
TORSDOF 3
ENDMDL
