MODEL 1
REMARK VINA RESULT:      -1.1      0.000      0.000
REMARK  5 active torsions:
REMARK  status: ('A' for Active; 'I' for Inactive)
REMARK    1  A    between atoms: C_11  and  N_3 
REMARK    2  A    between atoms: C_10  and  C_4 
REMARK    3  A    between atoms: C_15  and  C_11 
REMARK    4  A    between atoms: N_13  and  C_16 
REMARK    5  A    between atoms: C_16  and  C_15 
ROOT
ATOM      1  C   UNL d   1      33.049  21.489 -22.053  0.00  0.00     0.137 A 
ATOM      2  N   UNL d   1      32.994  22.237 -22.420  0.00  0.00    -0.259 N 
ATOM      3  N   UNL d   1      33.146  20.932 -22.654  0.00  0.00    -0.287 N 
ATOM      4  C   UNL d   1      33.003  21.427 -21.236  0.00  0.00     0.054 A 
ATOM      5  C   UNL d   1      32.893  22.916 -21.955  0.00  0.00     0.266 A 
ATOM      6  C   UNL d   1      33.058  22.134 -23.236  0.00  0.00     0.084 A 
ATOM      7  C   UNL d   1      33.153  21.315 -23.383  0.00  0.00     0.082 A 
ATOM      8  C   UNL d   1      32.902  22.102 -20.772  0.00  0.00     0.009 A 
ATOM      9  C   UNL d   1      32.846  22.852 -21.126  0.00  0.00     0.061 A 
ATOM     10  O   UNL d   1      32.837  23.662 -22.313  0.00  0.00    -0.267 OA
ATOM     11  C   UNL d   1      33.043  22.660 -23.868  0.00  0.00     0.019 A 
ATOM     12  C   UNL d   1      32.855  22.039 -19.946  0.00  0.00     0.000 C 
ATOM     13  C   UNL d   1      33.230  21.057 -24.155  0.00  0.00     0.019 A 
ATOM     14  C   UNL d   1      33.122  22.383 -24.635  0.00  0.00     0.002 A 
ATOM     15  C   UNL d   1      33.216  21.573 -24.780  0.00  0.00     0.002 A 
ENDROOT
BRANCH   3  16
ATOM     16  C   UNL d   1      33.241  20.128 -22.805  0.00  0.00     0.125 C 
BRANCH  16  17
ATOM     17  C   UNL d   1      32.604  19.613 -22.706  0.00  0.00     0.231 C 
ATOM     18  O   UNL d   1      31.830  19.885 -22.794  0.00  0.00    -0.283 OA
BRANCH  17  19
ATOM     19  C   UNL d   1      32.740  18.822 -22.518  0.00  0.00     0.124 C 
BRANCH  19  20
ATOM     20  N   UNL d   1      32.610  18.235 -23.081  0.00  0.00    -0.300 N 
ATOM     21  C   UNL d   1      33.220  17.717 -23.276  0.00  0.00     0.080 A 
ATOM     22  C   UNL d   1      33.097  17.126 -23.839  0.00  0.00     0.019 A 
ATOM     23  C   UNL d   1      32.361  17.056 -24.208  0.00  0.00     0.003 A 
ATOM     24  C   UNL d   1      31.751  17.574 -24.013  0.00  0.00     0.019 A 
ATOM     25  C   UNL d   1      32.231  16.470 -24.769  0.00  0.00     0.000 C 
ATOM     26  C   UNL d   1      31.873  18.166 -23.449  0.00  0.00     0.080 A 
ENDBRANCH  19  20
ENDBRANCH  17  19
ENDBRANCH  16  17
ENDBRANCH   3  16
BRANCH   4  27
ATOM     27  C   UNL d   1      33.056  20.693 -20.875  0.00  0.00     0.125 C 
ATOM     28  N   UNL d   1      33.217  20.623 -20.070  0.00  0.00    -0.146 N 
ENDBRANCH   4  27
TORSDOF 5
ENDMDL
MODEL 2
REMARK VINA RESULT:      -0.1      2.110      5.346
REMARK  5 active torsions:
REMARK  status: ('A' for Active; 'I' for Inactive)
REMARK    1  A    between atoms: C_11  and  N_3 
REMARK    2  A    between atoms: C_10  and  C_4 
REMARK    3  A    between atoms: C_15  and  C_11 
REMARK    4  A    between atoms: N_13  and  C_16 
REMARK    5  A    between atoms: C_16  and  C_15 
ROOT
ATOM      1  C   UNL d   1      30.964  17.316 -24.217  0.00  0.00     0.137 A 
ATOM      2  N   UNL d   1      30.848  16.652 -23.723  0.00  0.00    -0.259 N 
ATOM      3  N   UNL d   1      31.774  17.473 -24.224  0.00  0.00    -0.287 N 
ATOM      4  C   UNL d   1      30.322  17.674 -24.582  0.00  0.00     0.054 A 
ATOM      5  C   UNL d   1      30.081  16.358 -23.604  0.00  0.00     0.266 A 
ATOM      6  C   UNL d   1      31.582  16.409 -23.434  0.00  0.00     0.084 A 
ATOM      7  C   UNL d   1      32.162  16.924 -23.748  0.00  0.00     0.082 A 
ATOM      8  C   UNL d   1      29.559  17.382 -24.464  0.00  0.00     0.009 A 
ATOM      9  C   UNL d   1      29.431  16.722 -23.975  0.00  0.00     0.061 A 
ATOM     10  O   UNL d   1      29.960  15.699 -23.114  0.00  0.00    -0.267 OA
ATOM     11  C   UNL d   1      31.809  15.799 -22.932  0.00  0.00     0.019 A 
ATOM     12  C   UNL d   1      28.910  17.745 -24.833  0.00  0.00     0.000 C 
ATOM     13  C   UNL d   1      32.946  16.807 -23.549  0.00  0.00     0.019 A 
ATOM     14  C   UNL d   1      32.599  15.696 -22.743  0.00  0.00     0.002 A 
ATOM     15  C   UNL d   1      33.174  16.205 -23.055  0.00  0.00     0.002 A 
ENDROOT
BRANCH   3  16
ATOM     16  C   UNL d   1      32.350  17.974 -24.530  0.00  0.00     0.125 C 
BRANCH  16  17
ATOM     17  C   UNL d   1      32.612  18.619 -24.086  0.00  0.00     0.231 C 
ATOM     18  O   UNL d   1      32.248  18.808 -23.371  0.00  0.00    -0.283 OA
BRANCH  17  19
ATOM     19  C   UNL d   1      33.241  19.077 -24.358  0.00  0.00     0.124 C 
BRANCH  19  20
ATOM     20  N   UNL d   1      33.201  19.899 -24.317  0.00  0.00    -0.300 N 
ATOM     21  C   UNL d   1      33.123  20.337 -25.010  0.00  0.00     0.080 A 
ATOM     22  C   UNL d   1      33.082  21.161 -24.977  0.00  0.00     0.019 A 
ATOM     23  C   UNL d   1      33.121  21.546 -24.246  0.00  0.00     0.003 A 
ATOM     24  C   UNL d   1      33.199  21.107 -23.553  0.00  0.00     0.019 A 
ATOM     25  C   UNL d   1      33.081  22.365 -24.205  0.00  0.00     0.000 C 
ATOM     26  C   UNL d   1      33.240  20.282 -23.586  0.00  0.00     0.080 A 
ENDBRANCH  19  20
ENDBRANCH  17  19
ENDBRANCH  16  17
ENDBRANCH   3  16
BRANCH   4  27
ATOM     27  C   UNL d   1      30.435  18.325 -25.067  0.00  0.00     0.125 C 
ATOM     28  N   UNL d   1      29.894  18.945 -25.082  0.00  0.00    -0.146 N 
ENDBRANCH   4  27
TORSDOF 5
ENDMDL
MODEL 3
REMARK VINA RESULT:       1.0      0.983      1.339
REMARK  5 active torsions:
REMARK  status: ('A' for Active; 'I' for Inactive)
REMARK    1  A    between atoms: C_11  and  N_3 
REMARK    2  A    between atoms: C_10  and  C_4 
REMARK    3  A    between atoms: C_15  and  C_11 
REMARK    4  A    between atoms: N_13  and  C_16 
REMARK    5  A    between atoms: C_16  and  C_15 
ROOT
ATOM      1  C   UNL d   1      32.901  21.716 -21.129  0.00  0.00     0.137 A 
ATOM      2  N   UNL d   1      32.654  22.513 -21.091  0.00  0.00    -0.259 N 
ATOM      3  N   UNL d   1      33.015  21.536 -21.926  0.00  0.00    -0.287 N 
ATOM      4  C   UNL d   1      32.984  21.278 -20.440  0.00  0.00     0.054 A 
ATOM      5  C   UNL d   1      32.494  22.859 -20.354  0.00  0.00     0.266 A 
ATOM      6  C   UNL d   1      32.619  22.814 -21.859  0.00  0.00     0.084 A 
ATOM      7  C   UNL d   1      32.846  22.201 -22.382  0.00  0.00     0.082 A 
ATOM      8  C   UNL d   1      32.825  21.621 -19.706  0.00  0.00     0.009 A 
ATOM      9  C   UNL d   1      32.579  22.413 -19.656  0.00  0.00     0.061 A 
ATOM     10  O   UNL d   1      32.249  23.650 -20.310  0.00  0.00    -0.267 OA
ATOM     11  C   UNL d   1      32.416  23.551 -22.161  0.00  0.00     0.019 A 
ATOM     12  C   UNL d   1      32.909  21.178 -19.010  0.00  0.00     0.000 C 
ATOM     13  C   UNL d   1      32.859  22.351 -23.186  0.00  0.00     0.019 A 
ATOM     14  C   UNL d   1      32.435  23.683 -22.969  0.00  0.00     0.002 A 
ATOM     15  C   UNL d   1      32.660  23.076 -23.487  0.00  0.00     0.002 A 
ENDROOT
BRANCH   3  16
ATOM     16  C   UNL d   1      33.237  20.939 -22.447  0.00  0.00     0.125 C 
BRANCH  16  17
ATOM     17  C   UNL d   1      32.811  20.232 -22.468  0.00  0.00     0.231 C 
ATOM     18  O   UNL d   1      32.012  20.221 -22.266  0.00  0.00    -0.283 OA
BRANCH  17  19
ATOM     19  C   UNL d   1      33.186  19.533 -22.693  0.00  0.00     0.124 C 
BRANCH  19  20
ATOM     20  N   UNL d   1      32.839  19.041 -23.254  0.00  0.00    -0.300 N 
ATOM     21  C   UNL d   1      33.052  19.115 -24.047  0.00  0.00     0.080 A 
ATOM     22  C   UNL d   1      32.708  18.625 -24.616  0.00  0.00     0.019 A 
ATOM     23  C   UNL d   1      32.150  18.059 -24.388  0.00  0.00     0.003 A 
ATOM     24  C   UNL d   1      31.937  17.985 -23.596  0.00  0.00     0.019 A 
ATOM     25  C   UNL d   1      31.804  17.568 -24.948  0.00  0.00     0.000 C 
ATOM     26  C   UNL d   1      32.281  18.475 -23.026  0.00  0.00     0.080 A 
ENDBRANCH  19  20
ENDBRANCH  17  19
ENDBRANCH  16  17
ENDBRANCH   3  16
BRANCH   4  27
ATOM     27  C   UNL d   1      33.226  20.496 -20.476  0.00  0.00     0.125 C 
ATOM     28  N   UNL d   1      33.019  19.956 -19.890  0.00  0.00    -0.146 N 
ENDBRANCH   4  27
TORSDOF 5
ENDMDL
