MODEL 1
REMARK VINA RESULT:      -6.0      0.000      0.000
REMARK  5 active torsions:
REMARK  status: ('A' for Active; 'I' for Inactive)
REMARK    1  A    between atoms: C_6  and  S_1 
REMARK    2  A    between atoms: N_7  and  S_1 
REMARK    3  A    between atoms: C_15  and  N_7 
REMARK    4  A    between atoms: O_21  and  C_16 
REMARK    5  A    between atoms: C_22  and  O_21 
ROOT
ATOM      1  S   UNL d   1     -41.602-123.097 -52.068  0.00  0.00     0.327 S 
ATOM      2  O   UNL d   1     -41.419-122.461 -51.581  0.00  0.00    -0.186 OA
ATOM      3  O   UNL d   1     -41.835-123.813 -51.739  0.00  0.00    -0.186 OA
ENDROOT
BRANCH   1   4
ATOM      4  C   UNL d   1     -41.553-123.018 -52.883  0.00  0.00     0.118 A 
ATOM      5  C   UNL d   1     -41.856-122.349 -53.248  0.00  0.00     0.035 A 
ATOM      6  C   UNL d   1     -41.808-122.265 -54.070  0.00  0.00     0.105 A 
ATOM      7  N   UNL d   1     -42.058-121.670 -54.584  0.00  0.00    -0.189 NA
ATOM      8  C   UNL d   1     -41.451-122.862 -54.525  0.00  0.00     0.104 A 
ATOM      9  C   UNL d   1     -41.856-121.895 -55.360  0.00  0.00     0.369 A 
ATOM     10  O   UNL d   1     -42.003-121.461 -56.043  0.00  0.00    -0.242 OA
ATOM     11  N   UNL d   1     -41.483-122.631 -55.317  0.00  0.00    -0.189 NA
ATOM     12  C   UNL d   1     -41.146-123.536 -54.153  0.00  0.00     0.022 A 
ATOM     13  C   UNL d   1     -41.199-123.609 -53.334  0.00  0.00     0.016 A 
ENDBRANCH   1   4
BRANCH   1  14
ATOM     14  N   UNL d   1     -41.654-123.185 -51.254  0.00  0.00    -0.317 NA
BRANCH  14  15
ATOM     15  C   UNL d   1     -41.708-123.276 -50.422  0.00  0.00     0.146 A 
ATOM     16  C   UNL d   1     -41.124-123.710 -50.021  0.00  0.00     0.035 A 
ATOM     17  C   UNL d   1     -41.179-123.798 -49.200  0.00  0.00     0.027 A 
ATOM     18  C   UNL d   1     -41.810-123.456 -48.789  0.00  0.00     0.100 A 
ATOM     19  C   UNL d   1     -42.383-123.029 -49.196  0.00  0.00     0.027 A 
ATOM     20  C   UNL d   1     -42.329-122.940 -50.013  0.00  0.00     0.035 A 
BRANCH  18  21
ATOM     21  O   UNL d   1     -41.869-123.542 -47.969  0.00  0.00    -0.305 OA
BRANCH  21  22
ATOM     22  C   UNL d   1     -41.419-123.081 -47.475  0.00  0.00     0.123 C 
ATOM     23  C   UNL d   1     -41.613-123.022 -46.676  0.00  0.00     0.029 C 
ENDBRANCH  21  22
ENDBRANCH  18  21
ENDBRANCH  14  15
ENDBRANCH   1  14
TORSDOF 5
ENDMDL
MODEL 2
REMARK VINA RESULT:      -5.2      1.234      5.501
REMARK  5 active torsions:
REMARK  status: ('A' for Active; 'I' for Inactive)
REMARK    1  A    between atoms: C_6  and  S_1 
REMARK    2  A    between atoms: N_7  and  S_1 
REMARK    3  A    between atoms: C_15  and  N_7 
REMARK    4  A    between atoms: O_21  and  C_16 
REMARK    5  A    between atoms: C_22  and  O_21 
ROOT
ATOM      1  S   UNL d   1     -41.630-122.980 -50.906  0.00  0.00     0.327 S 
ATOM      2  O   UNL d   1     -41.942-123.532 -51.428  0.00  0.00    -0.186 OA
ATOM      3  O   UNL d   1     -41.302-122.283 -51.191  0.00  0.00    -0.186 OA
ENDROOT
BRANCH   1   4
ATOM      4  C   UNL d   1     -41.645-123.124 -50.098  0.00  0.00     0.118 A 
ATOM      5  C   UNL d   1     -42.181-122.726 -49.622  0.00  0.00     0.035 A 
ATOM      6  C   UNL d   1     -42.199-122.868 -48.806  0.00  0.00     0.105 A 
ATOM      7  N   UNL d   1     -42.665-122.561 -48.198  0.00  0.00    -0.189 NA
ATOM      8  C   UNL d   1     -41.673-123.417 -48.471  0.00  0.00     0.104 A 
ATOM      9  C   UNL d   1     -42.428-122.917 -47.484  0.00  0.00     0.369 A 
ATOM     10  O   UNL d   1     -42.748-122.770 -46.740  0.00  0.00    -0.242 OA
ATOM     11  N   UNL d   1     -41.816-123.444 -47.659  0.00  0.00    -0.189 NA
ATOM     12  C   UNL d   1     -41.133-123.817 -48.956  0.00  0.00     0.022 A 
ATOM     13  C   UNL d   1     -41.123-123.667 -49.766  0.00  0.00     0.016 A 
ENDBRANCH   1   4
BRANCH   1  14
ATOM     14  N   UNL d   1     -41.610-122.827 -51.712  0.00  0.00    -0.317 NA
BRANCH  14  15
ATOM     15  C   UNL d   1     -41.590-122.671 -52.536  0.00  0.00     0.146 A 
ATOM     16  C   UNL d   1     -41.845-121.932 -52.817  0.00  0.00     0.035 A 
ATOM     17  C   UNL d   1     -41.824-121.781 -53.630  0.00  0.00     0.027 A 
ATOM     18  C   UNL d   1     -41.551-122.362 -54.152  0.00  0.00     0.100 A 
ATOM     19  C   UNL d   1     -41.301-123.090 -53.862  0.00  0.00     0.027 A 
ATOM     20  C   UNL d   1     -41.321-123.242 -53.053  0.00  0.00     0.035 A 
BRANCH  18  21
ATOM     21  O   UNL d   1     -41.528-122.215 -54.964  0.00  0.00    -0.305 OA
BRANCH  21  22
ATOM     22  C   UNL d   1     -42.182-121.922 -55.347  0.00  0.00     0.123 C 
ATOM     23  C   UNL d   1     -42.240-121.981 -56.167  0.00  0.00     0.029 C 
ENDBRANCH  21  22
ENDBRANCH  18  21
ENDBRANCH  14  15
ENDBRANCH   1  14
TORSDOF 5
ENDMDL
