MODEL 1
REMARK VINA RESULT:      -5.8      0.000      0.000
REMARK  7 active torsions:
REMARK  status: ('A' for Active; 'I' for Inactive)
REMARK    1  A    between atoms: S_2  and  C_1 
REMARK    2  A    between atoms: N_14  and  S_2 
REMARK    3  A    between atoms: C_9  and  C_18 
REMARK       I    between atoms: N_17  and  C_9 
REMARK    4  A    between atoms: C_13  and  C_23 
REMARK    5  A    between atoms: C_24  and  N_14 
REMARK    6  A    between atoms: C_23  and  N_17 
REMARK    7  A    between atoms: C_18  and  C_24 
ROOT
ATOM      1  S   UNL d   1      57.057   0.326  31.949  0.00  0.00     0.287 S 
ATOM      2  O   UNL d   1      56.501   0.451  31.353  0.00  0.00    -0.198 OA
ATOM      3  O   UNL d   1      57.614   0.201  32.545  0.00  0.00    -0.198 OA
ENDROOT
BRANCH   1   4
ATOM      4  C   UNL d   1      56.456   0.098  32.462  0.00  0.00     0.127 A 
ATOM      5  C   UNL d   1      56.276  -0.700  32.560  0.00  0.00     0.142 A 
ATOM      6  C   UNL d   1      55.673  -0.928  33.074  0.00  0.00     0.131 A 
ATOM      7  N   UNL d   1      56.594  -1.380  32.227  0.00  0.00    -0.101 NA
ATOM      8  N   UNL d   1      55.620  -1.749  33.058  0.00  0.00    -0.102 NA
ATOM      9  C   UNL d   1      55.250  -0.360  33.491  0.00  0.00     0.023 A 
ATOM     10  O   UNL d   1      56.191  -2.031  32.533  0.00  0.00    -0.106 OA
ATOM     11  C   UNL d   1      55.427   0.447  33.397  0.00  0.00     0.002 A 
ATOM     12  C   UNL d   1      56.030   0.676  32.882  0.00  0.00     0.015 A 
ENDBRANCH   1   4
BRANCH   1  13
ATOM     13  N   UNL d   1      57.663   0.556  31.432  0.00  0.00    -0.157 NA
BRANCH  13  14
ATOM     14  C   UNL d   1      57.694   0.248  30.668  0.00  0.00     0.117 C 
BRANCH  14  15
ATOM     15  C   UNL d   1      58.390   0.299  30.229  0.00  0.00     0.084 C 
BRANCH  15  16
ATOM     16  C   UNL d   1      58.472  -0.136  29.529  0.00  0.00     0.281 C 
ATOM     17  N   UNL d   1      58.889  -0.855  29.534  0.00  0.00    -0.206 NA
ATOM     18  O   UNL d   1      58.137   0.146  28.820  0.00  0.00    -0.265 OA
BRANCH  17  19
ATOM     19  C   UNL d   1      58.969  -1.290  28.823  0.00  0.00     0.109 C 
BRANCH  19  20
ATOM     20  C   UNL d   1      59.322  -2.039  28.824  0.00  0.00     0.049 A 
ATOM     21  S   UNL d   1      60.128  -2.213  28.769  0.00  0.00    -0.085 SA
ATOM     22  C   UNL d   1      60.234  -3.022  28.792  0.00  0.00     0.035 A 
ATOM     23  C   UNL d   1      59.486  -3.369  28.861  0.00  0.00     0.007 A 
ATOM     24  C   UNL d   1      58.921  -2.770  28.882  0.00  0.00     0.009 A 
ENDBRANCH  19  20
ENDBRANCH  17  19
ENDBRANCH  15  16
ENDBRANCH  14  15
ENDBRANCH  13  14
ENDBRANCH   1  13
TORSDOF 7
ENDMDL
MODEL 2
REMARK VINA RESULT:      -5.0      1.120      1.292
REMARK  7 active torsions:
REMARK  status: ('A' for Active; 'I' for Inactive)
REMARK    1  A    between atoms: S_2  and  C_1 
REMARK    2  A    between atoms: N_14  and  S_2 
REMARK    3  A    between atoms: C_9  and  C_18 
REMARK       I    between atoms: N_17  and  C_9 
REMARK    4  A    between atoms: C_13  and  C_23 
REMARK    5  A    between atoms: C_24  and  N_14 
REMARK    6  A    between atoms: C_23  and  N_17 
REMARK    7  A    between atoms: C_18  and  C_24 
ROOT
ATOM      1  S   UNL d   1      57.072  -0.097  31.741  0.00  0.00     0.287 S 
ATOM      2  O   UNL d   1      57.219  -0.875  31.971  0.00  0.00    -0.198 OA
ATOM      3  O   UNL d   1      56.925   0.682  31.511  0.00  0.00    -0.198 OA
ENDROOT
BRANCH   1   4
ATOM      4  C   UNL d   1      56.965   0.115  32.528  0.00  0.00     0.127 A 
ATOM      5  C   UNL d   1      56.239  -0.010  32.896  0.00  0.00     0.142 A 
ATOM      6  C   UNL d   1      56.132   0.202  33.686  0.00  0.00     0.131 A 
ATOM      7  N   UNL d   1      55.533  -0.330  32.624  0.00  0.00    -0.101 NA
ATOM      8  N   UNL d   1      55.360   0.013  33.899  0.00  0.00    -0.102 NA
ATOM      9  C   UNL d   1      56.751   0.541  34.109  0.00  0.00     0.023 A 
ATOM     10  O   UNL d   1      54.988  -0.317  33.241  0.00  0.00    -0.106 OA
ATOM     11  C   UNL d   1      57.486   0.670  33.743  0.00  0.00     0.002 A 
ATOM     12  C   UNL d   1      57.594   0.457  32.953  0.00  0.00     0.015 A 
ENDBRANCH   1   4
BRANCH   1  13
ATOM     13  N   UNL d   1      57.180  -0.310  30.947  0.00  0.00    -0.157 NA
BRANCH  13  14
ATOM     14  C   UNL d   1      57.939  -0.349  30.628  0.00  0.00     0.117 C 
BRANCH  14  15
ATOM     15  C   UNL d   1      58.044  -0.529  29.830  0.00  0.00     0.084 C 
BRANCH  15  16
ATOM     16  C   UNL d   1      58.752  -0.870  29.571  0.00  0.00     0.281 C 
ATOM     17  N   UNL d   1      58.763  -1.661  29.316  0.00  0.00    -0.206 NA
ATOM     18  O   UNL d   1      59.455  -0.422  29.567  0.00  0.00    -0.265 OA
BRANCH  17  19
ATOM     19  C   UNL d   1      59.483  -2.000  29.056  0.00  0.00     0.109 C 
BRANCH  19  20
ATOM     20  C   UNL d   1      59.516  -2.797  28.832  0.00  0.00     0.049 A 
ATOM     21  S   UNL d   1      60.190  -3.237  28.647  0.00  0.00    -0.085 SA
ATOM     22  C   UNL d   1      59.973  -4.000  28.455  0.00  0.00     0.035 A 
ATOM     23  C   UNL d   1      59.149  -4.048  28.519  0.00  0.00     0.007 A 
ATOM     24  C   UNL d   1      58.862  -3.311  28.750  0.00  0.00     0.009 A 
ENDBRANCH  19  20
ENDBRANCH  17  19
ENDBRANCH  15  16
ENDBRANCH  14  15
ENDBRANCH  13  14
ENDBRANCH   1  13
TORSDOF 7
ENDMDL
MODEL 3
REMARK VINA RESULT:      -5.0      1.599      5.144
REMARK  7 active torsions:
REMARK  status: ('A' for Active; 'I' for Inactive)
REMARK    1  A    between atoms: S_2  and  C_1 
REMARK    2  A    between atoms: N_14  and  S_2 
REMARK    3  A    between atoms: C_9  and  C_18 
REMARK       I    between atoms: N_17  and  C_9 
REMARK    4  A    between atoms: C_13  and  C_23 
REMARK    5  A    between atoms: C_24  and  N_14 
REMARK    6  A    between atoms: C_23  and  N_17 
REMARK    7  A    between atoms: C_18  and  C_24 
ROOT
ATOM      1  S   UNL d   1      58.824  -1.709  29.219  0.00  0.00     0.287 S 
ATOM      2  O   UNL d   1      59.058  -1.334  28.522  0.00  0.00    -0.198 OA
ATOM      3  O   UNL d   1      58.589  -2.083  29.916  0.00  0.00    -0.198 OA
ENDROOT
BRANCH   1   4
ATOM      4  C   UNL d   1      59.361  -2.314  29.075  0.00  0.00     0.127 A 
ATOM      5  C   UNL d   1      59.095  -3.054  28.832  0.00  0.00     0.142 A 
ATOM      6  C   UNL d   1      59.635  -3.662  28.687  0.00  0.00     0.131 A 
ATOM      7  N   UNL d   1      58.342  -3.348  28.689  0.00  0.00    -0.101 NA
ATOM      8  N   UNL d   1      59.213  -4.329  28.455  0.00  0.00    -0.102 NA
ATOM      9  C   UNL d   1      60.441  -3.529  28.785  0.00  0.00     0.023 A 
ATOM     10  O   UNL d   1      58.410  -4.136  28.456  0.00  0.00    -0.106 OA
ATOM     11  C   UNL d   1      60.715  -2.783  29.030  0.00  0.00     0.002 A 
ATOM     12  C   UNL d   1      60.176  -2.176  29.175  0.00  0.00     0.015 A 
ENDBRANCH   1   4
BRANCH   1  13
ATOM     13  N   UNL d   1      58.281  -1.098  29.364  0.00  0.00    -0.157 NA
BRANCH  13  14
ATOM     14  C   UNL d   1      58.287  -0.704  30.088  0.00  0.00     0.117 C 
BRANCH  14  15
ATOM     15  C   UNL d   1      57.752  -0.092  30.230  0.00  0.00     0.084 C 
BRANCH  15  16
ATOM     16  C   UNL d   1      57.700   0.247  30.983  0.00  0.00     0.281 C 
ATOM     17  N   UNL d   1      57.005   0.160  31.430  0.00  0.00    -0.206 NA
ATOM     18  O   UNL d   1      58.344   0.676  31.294  0.00  0.00    -0.265 OA
BRANCH  17  19
ATOM     19  C   UNL d   1      56.958   0.506  32.191  0.00  0.00     0.109 C 
BRANCH  19  20
ATOM     20  C   UNL d   1      56.373   0.268  32.727  0.00  0.00     0.049 A 
ATOM     21  S   UNL d   1      56.179   0.623  33.447  0.00  0.00    -0.085 SA
ATOM     22  C   UNL d   1      55.569   0.210  33.799  0.00  0.00     0.035 A 
ATOM     23  C   UNL d   1      55.370  -0.417  33.295  0.00  0.00     0.007 A 
ATOM     24  C   UNL d   1      55.861  -0.386  32.635  0.00  0.00     0.009 A 
ENDBRANCH  19  20
ENDBRANCH  17  19
ENDBRANCH  15  16
ENDBRANCH  14  15
ENDBRANCH  13  14
ENDBRANCH   1  13
TORSDOF 7
ENDMDL
