MODEL 1
REMARK VINA RESULT:      23.2      0.000      0.000
REMARK  4 active torsions:
REMARK  status: ('A' for Active; 'I' for Inactive)
REMARK    1  A    between atoms: C_5  and  N_1 
REMARK    2  A    between atoms: C_7  and  C_5 
REMARK    3  A    between atoms: O_14  and  C_10 
REMARK    4  A    between atoms: C_17  and  O_14 
ROOT
ATOM      1  N   UNL d   1      45.794 -16.913  44.158  0.00  0.00    -0.251 N 
ATOM      2  C   UNL d   1      45.173 -17.226  44.607  0.00  0.00     0.378 A 
ATOM      3  C   UNL d   1      45.773 -16.089  44.228  0.00  0.00     0.092 A 
ATOM      4  O   UNL d   1      44.767 -16.594  44.955  0.00  0.00    -0.258 OA
ATOM      5  C   UNL d   1      45.139 -15.893  44.720  0.00  0.00     0.121 A 
ATOM      6  O   UNL d   1      44.988 -18.023  44.695  0.00  0.00    -0.237 OA
ATOM      7  C   UNL d   1      46.250 -15.503  43.906  0.00  0.00     0.020 A 
ATOM      8  C   UNL d   1      44.988 -15.095  44.886  0.00  0.00     0.026 A 
ATOM      9  C   UNL d   1      46.097 -14.715  44.072  0.00  0.00     0.002 A 
ATOM     10  C   UNL d   1      45.465 -14.510  44.563  0.00  0.00     0.002 A 
ATOM     11  C   UNL d   1      46.575 -14.126  43.750  0.00  0.00     0.000 C 
ENDROOT
BRANCH   1  12
ATOM     12  C   UNL d   1      46.356 -17.315  43.708  0.00  0.00     0.087 C 
BRANCH  12  13
ATOM     13  C   UNL d   1      46.453 -18.132  43.794  0.00  0.00     0.041 A 
ATOM     14  C   UNL d   1      46.551 -18.604  43.140  0.00  0.00     0.102 A 
ATOM     15  C   UNL d   1      46.646 -19.412  43.227  0.00  0.00     0.025 A 
ATOM     16  C   UNL d   1      46.643 -19.750  43.977  0.00  0.00     0.002 A 
ATOM     17  C   UNL d   1      46.544 -19.270  44.641  0.00  0.00     0.000 A 
ATOM     18  C   UNL d   1      46.448 -18.456  44.547  0.00  0.00     0.004 A 
BRANCH  14  19
ATOM     19  O   UNL d   1      46.554 -18.270  42.382  0.00  0.00    -0.305 OA
BRANCH  19  20
ATOM     20  C   UNL d   1      46.638 -18.753  41.718  0.00  0.00     0.123 C 
ATOM     21  C   UNL d   1      46.587 -18.427  40.959  0.00  0.00     0.029 C 
ENDBRANCH  19  20
ENDBRANCH  14  19
ENDBRANCH  12  13
ENDBRANCH   1  12
TORSDOF 4
ENDMDL
MODEL 2
REMARK VINA RESULT:      25.5      0.975      3.704
REMARK  4 active torsions:
REMARK  status: ('A' for Active; 'I' for Inactive)
REMARK    1  A    between atoms: C_5  and  N_1 
REMARK    2  A    between atoms: C_7  and  C_5 
REMARK    3  A    between atoms: O_14  and  C_10 
REMARK    4  A    between atoms: C_17  and  O_14 
ROOT
ATOM      1  N   UNL d   1      46.507 -18.048  43.506  0.00  0.00    -0.251 N 
ATOM      2  C   UNL d   1      46.532 -18.548  44.166  0.00  0.00     0.378 A 
ATOM      3  C   UNL d   1      46.548 -18.517  42.825  0.00  0.00     0.092 A 
ATOM      4  O   UNL d   1      46.588 -19.327  43.892  0.00  0.00    -0.258 OA
ATOM      5  C   UNL d   1      46.598 -19.306  43.065  0.00  0.00     0.121 A 
ATOM      6  O   UNL d   1      46.505 -18.316  44.955  0.00  0.00    -0.237 OA
ATOM      7  C   UNL d   1      46.545 -18.320  42.029  0.00  0.00     0.020 A 
ATOM      8  C   UNL d   1      46.647 -19.900  42.489  0.00  0.00     0.026 A 
ATOM      9  C   UNL d   1      46.593 -18.911  41.462  0.00  0.00     0.002 A 
ATOM     10  C   UNL d   1      46.644 -19.703  41.692  0.00  0.00     0.002 A 
ATOM     11  C   UNL d   1      46.591 -18.716  40.662  0.00  0.00     0.000 C 
ENDROOT
BRANCH   1  12
ATOM     12  C   UNL d   1      46.451 -17.225  43.487  0.00  0.00     0.087 C 
BRANCH  12  13
ATOM     13  C   UNL d   1      45.914 -16.832  43.977  0.00  0.00     0.041 A 
ATOM     14  C   UNL d   1      45.979 -16.031  44.096  0.00  0.00     0.102 A 
ATOM     15  C   UNL d   1      45.446 -15.643  44.581  0.00  0.00     0.025 A 
ATOM     16  C   UNL d   1      44.844 -16.063  44.951  0.00  0.00     0.002 A 
ATOM     17  C   UNL d   1      44.778 -16.877  44.830  0.00  0.00     0.000 A 
ATOM     18  C   UNL d   1      45.318 -17.262  44.340  0.00  0.00     0.004 A 
BRANCH  14  19
ATOM     19  O   UNL d   1      46.583 -15.603  43.726  0.00  0.00    -0.305 OA
BRANCH  19  20
ATOM     20  C   UNL d   1      46.614 -14.781  43.802  0.00  0.00     0.123 C 
ATOM     21  C   UNL d   1      46.485 -14.298  43.142  0.00  0.00     0.029 C 
ENDBRANCH  19  20
ENDBRANCH  14  19
ENDBRANCH  12  13
ENDBRANCH   1  12
TORSDOF 4
ENDMDL
