MODEL 1
REMARK VINA RESULT:      40.5      0.000      0.000
REMARK  6 active torsions:
REMARK  status: ('A' for Active; 'I' for Inactive)
REMARK    1  A    between atoms: S_2  and  C_1 
REMARK    2  A    between atoms: N_3  and  S_2 
REMARK    3  A    between atoms: C_17  and  N_3 
REMARK    4  A    between atoms: C_4  and  C_12 
REMARK    5  A    between atoms: O_20  and  C_4 
REMARK    6  A    between atoms: C_23  and  O_20 
ROOT
ATOM      1  S   UNL d   1     -55.228-102.300 -40.757  0.00  0.00     0.153 S 
ATOM      2  O   UNL d   1     -55.539-101.556 -40.752  0.00  0.00    -0.232 OA
ENDROOT
BRANCH   1   3
ATOM      3  C   UNL d   1     -55.506-102.468 -40.126  0.00  0.00     0.108 A 
ATOM      4  C   UNL d   1     -54.843-102.170 -39.996  0.00  0.00     0.023 A 
ATOM      5  C   UNL d   1     -54.719-102.167 -39.145  0.00  0.00     0.024 A 
ATOM      6  C   UNL d   1     -55.063-102.368 -38.476  0.00  0.00     0.009 A 
ATOM      7  C   UNL d   1     -55.125-102.317 -39.743  0.00  0.00    -0.027 A 
ATOM      8  C   UNL d   1     -55.818-102.708 -38.621  0.00  0.00     0.024 A 
ATOM      9  C   UNL d   1     -55.954-102.727 -39.312  0.00  0.00     0.023 A 
ATOM     10  C   UNL d   1     -56.279-102.880 -39.271  0.00  0.00    -0.027 A 
ATOM     11  C   UNL d   1     -55.942-102.683 -39.928  0.00  0.00    -0.012 A 
ATOM     12  C   UNL d   1     -56.086-102.694 -40.792  0.00  0.00    -0.013 A 
ENDBRANCH   1   3
BRANCH   1  13
ATOM     13  N   UNL d   1     -54.767-102.551 -41.405  0.00  0.00    -0.185 NA
BRANCH  13  14
ATOM     14  C   UNL d   1     -54.788-102.119 -42.123  0.00  0.00     0.091 A 
ATOM     15  C   UNL d   1     -54.798-101.270 -42.095  0.00  0.00     0.020 A 
ATOM     16  C   UNL d   1     -54.818-100.864 -42.769  0.00  0.00     0.007 A 
ATOM     17  C   UNL d   1     -54.828-101.254 -43.495  0.00  0.00     0.064 A 
ATOM     18  C   UNL d   1     -54.818-102.079 -43.536  0.00  0.00     0.007 A 
ATOM     19  C   UNL d   1     -54.797-102.501 -42.836  0.00  0.00     0.020 A 
BRANCH  17  20
ATOM     20  C   UNL d   1     -54.849-100.803 -44.215  0.00  0.00     0.300 C 
ATOM     21  O   UNL d   1     -54.976-101.191 -44.929  0.00  0.00    -0.259 OA
BRANCH  20  22
ATOM     22  O   UNL d   1     -54.742 -99.990 -44.174  0.00  0.00    -0.271 OA
BRANCH  22  23
ATOM     23  C   UNL d   1     -55.152 -99.518 -44.722  0.00  0.00     0.126 C 
ATOM     24  C   UNL d   1     -54.716 -98.985 -45.188  0.00  0.00     0.029 C 
ENDBRANCH  22  23
ENDBRANCH  20  22
ENDBRANCH  17  20
ENDBRANCH  13  14
ENDBRANCH   1  13
TORSDOF 6
ENDMDL
