MODEL 1
REMARK VINA RESULT:      -7.8      0.000      0.000
REMARK  3 active torsions:
REMARK  status: ('A' for Active; 'I' for Inactive)
REMARK    1  A    between atoms: C_11  and  N_2 
REMARK    2  A    between atoms: N_7  and  C_4 
REMARK    3  A    between atoms: C_14  and  C_11 
ROOT
ATOM      1  C   UNL d   1      52.476  33.515  53.287  0.00  0.00     0.091 A 
ATOM      2  N   UNL d   1      51.295  33.886  52.578  0.00  0.00    -0.211 N 
ATOM      3  C   UNL d   1      51.820  33.309  52.836  0.00  0.00     0.170 A 
ATOM      4  C   UNL d   1      52.996  32.932  53.541  0.00  0.00     0.154 A 
ATOM      5  N   UNL d   1      51.428  34.675  52.774  0.00  0.00    -0.162 NA
ATOM      6  C   UNL d   1      52.088  34.882  53.227  0.00  0.00     0.127 A 
ATOM      7  N   UNL d   1      51.686  32.520  52.640  0.00  0.00    -0.205 NA
ATOM      8  N   UNL d   1      52.870  32.149  53.352  0.00  0.00    -0.206 NA
ATOM      9  C   UNL d   1      52.208  31.941  52.896  0.00  0.00     0.202 A 
ENDROOT
BRANCH   2  10
ATOM     10  C   UNL d   1      50.638  33.680  52.126  0.00  0.00     0.102 C 
BRANCH  10  11
ATOM     11  C   UNL d   1      49.986  34.176  52.097  0.00  0.00     0.019 A 
ATOM     12  C   UNL d   1      49.667  34.481  52.792  0.00  0.00     0.002 A 
ATOM     13  C   UNL d   1      49.012  34.979  52.760  0.00  0.00     0.011 A 
ATOM     14  C   UNL d   1      48.676  35.171  52.034  0.00  0.00     0.058 A 
ATOM     15  C   UNL d   1      48.998  34.861  51.330  0.00  0.00     0.011 A 
ATOM     16 CL   UNL d   1      48.016  35.672  51.999  0.00  0.00    -0.082 Cl
ATOM     17  C   UNL d   1      49.651  34.366  51.367  0.00  0.00     0.002 A 
ENDBRANCH  10  11
ENDBRANCH   2  10
BRANCH   4  18
ATOM     18  N   UNL d   1      53.678  33.146  54.010  0.00  0.00    -0.289 N 
ATOM     19  C   UNL d   1      54.446  33.193  53.627  0.00  0.00     0.082 A 
ATOM     20  C   UNL d   1      55.136  33.407  54.089  0.00  0.00     0.019 A 
ATOM     21  C   UNL d   1      55.048  33.572  54.928  0.00  0.00     0.003 A 
ATOM     22  C   UNL d   1      54.287  33.526  55.305  0.00  0.00     0.019 A 
ATOM     23  C   UNL d   1      55.735  33.785  55.388  0.00  0.00     0.000 C 
ATOM     24  C   UNL d   1      53.602  33.313  54.844  0.00  0.00     0.082 A 
ENDBRANCH   4  18
TORSDOF 3
ENDMDL
MODEL 2
REMARK VINA RESULT:      -7.7      1.475      2.366
REMARK  3 active torsions:
REMARK  status: ('A' for Active; 'I' for Inactive)
REMARK    1  A    between atoms: C_11  and  N_2 
REMARK    2  A    between atoms: N_7  and  C_4 
REMARK    3  A    between atoms: C_14  and  C_11 
ROOT
ATOM      1  C   UNL d   1      52.209  32.389  53.266  0.00  0.00     0.091 A 
ATOM      2  N   UNL d   1      51.307  33.464  53.010  0.00  0.00    -0.211 N 
ATOM      3  C   UNL d   1      52.073  33.171  53.049  0.00  0.00     0.170 A 
ATOM      4  C   UNL d   1      52.978  32.103  53.304  0.00  0.00     0.154 A 
ATOM      5  N   UNL d   1      50.672  32.971  53.188  0.00  0.00    -0.162 NA
ATOM      6  C   UNL d   1      50.808  32.185  53.406  0.00  0.00     0.127 A 
ATOM      7  N   UNL d   1      52.707  33.665  52.870  0.00  0.00    -0.205 NA
ATOM      8  N   UNL d   1      53.611  32.586  53.128  0.00  0.00    -0.206 NA
ATOM      9  C   UNL d   1      53.475  33.375  52.909  0.00  0.00     0.202 A 
ENDROOT
BRANCH   2  10
ATOM     10  C   UNL d   1      51.171  34.247  52.792  0.00  0.00     0.102 C 
BRANCH  10  11
ATOM     11  C   UNL d   1      50.432  34.477  52.522  0.00  0.00     0.019 A 
ATOM     12  C   UNL d   1      50.215  34.338  51.741  0.00  0.00     0.002 A 
ATOM     13  C   UNL d   1      49.472  34.570  51.472  0.00  0.00     0.011 A 
ATOM     14  C   UNL d   1      48.946  34.942  51.985  0.00  0.00     0.058 A 
ATOM     15  C   UNL d   1      49.166  35.084  52.777  0.00  0.00     0.011 A 
ATOM     16 CL   UNL d   1      48.197  35.177  51.717  0.00  0.00    -0.082 Cl
ATOM     17  C   UNL d   1      49.907  34.850  53.039  0.00  0.00     0.002 A 
ENDBRANCH  10  11
ENDBRANCH   2  10
BRANCH   4  18
ATOM     18  N   UNL d   1      53.119  31.292  53.529  0.00  0.00    -0.289 N 
ATOM     19  C   UNL d   1      53.374  31.122  54.332  0.00  0.00     0.082 A 
ATOM     20  C   UNL d   1      53.518  30.311  54.568  0.00  0.00     0.019 A 
ATOM     21  C   UNL d   1      53.404  29.678  53.997  0.00  0.00     0.003 A 
ATOM     22  C   UNL d   1      53.152  29.847  53.202  0.00  0.00     0.019 A 
ATOM     23  C   UNL d   1      53.547  28.870  54.231  0.00  0.00     0.000 C 
ATOM     24  C   UNL d   1      53.009  30.655  52.969  0.00  0.00     0.082 A 
ENDBRANCH   4  18
TORSDOF 3
ENDMDL
MODEL 3
REMARK VINA RESULT:      -7.5      1.934      4.943
REMARK  3 active torsions:
REMARK  status: ('A' for Active; 'I' for Inactive)
REMARK    1  A    between atoms: C_11  and  N_2 
REMARK    2  A    between atoms: N_7  and  C_4 
REMARK    3  A    between atoms: C_14  and  C_11 
ROOT
ATOM      1  C   UNL d   1      51.350  33.899  53.002  0.00  0.00     0.091 A 
ATOM      2  N   UNL d   1      52.707  33.576  53.300  0.00  0.00    -0.211 N 
ATOM      3  C   UNL d   1      51.924  33.346  53.207  0.00  0.00     0.170 A 
ATOM      4  C   UNL d   1      50.569  33.661  52.910  0.00  0.00     0.154 A 
ATOM      5  N   UNL d   1      52.917  34.364  53.189  0.00  0.00    -0.162 NA
ATOM      6  C   UNL d   1      52.340  34.919  52.984  0.00  0.00     0.127 A 
ATOM      7  N   UNL d   1      51.715  32.557  53.318  0.00  0.00    -0.205 NA
ATOM      8  N   UNL d   1      50.354  32.882  53.019  0.00  0.00    -0.206 NA
ATOM      9  C   UNL d   1      50.933  32.324  53.225  0.00  0.00     0.202 A 
ENDROOT
BRANCH   2  10
ATOM     10  C   UNL d   1      53.282  33.022  53.505  0.00  0.00     0.102 C 
BRANCH  10  11
ATOM     11  C   UNL d   1      53.887  33.226  54.019  0.00  0.00     0.019 A 
ATOM     12  C   UNL d   1      53.738  33.299  54.825  0.00  0.00     0.002 A 
ATOM     13  C   UNL d   1      54.347  33.505  55.340  0.00  0.00     0.011 A 
ATOM     14  C   UNL d   1      55.105  33.638  55.048  0.00  0.00     0.058 A 
ATOM     15  C   UNL d   1      55.256  33.564  54.231  0.00  0.00     0.011 A 
ATOM     16 CL   UNL d   1      55.721  33.845  55.564  0.00  0.00    -0.082 Cl
ATOM     17  C   UNL d   1      54.646  33.359  53.723  0.00  0.00     0.002 A 
ENDBRANCH  10  11
ENDBRANCH   2  10
BRANCH   4  18
ATOM     18  N   UNL d   1      49.973  34.235  52.698  0.00  0.00    -0.289 N 
ATOM     19  C   UNL d   1      49.703  34.271  51.883  0.00  0.00     0.082 A 
ATOM     20  C   UNL d   1      49.105  34.844  51.661  0.00  0.00     0.019 A 
ATOM     21  C   UNL d   1      48.785  35.374  52.257  0.00  0.00     0.003 A 
ATOM     22  C   UNL d   1      49.054  35.338  53.063  0.00  0.00     0.019 A 
ATOM     23  C   UNL d   1      48.190  35.944  52.036  0.00  0.00     0.000 C 
ATOM     24  C   UNL d   1      49.649  34.767  53.283  0.00  0.00     0.082 A 
ENDBRANCH   4  18
TORSDOF 3
ENDMDL
MODEL 4
REMARK VINA RESULT:      -7.4      2.457      5.130
REMARK  3 active torsions:
REMARK  status: ('A' for Active; 'I' for Inactive)
REMARK    1  A    between atoms: C_11  and  N_2 
REMARK    2  A    between atoms: N_7  and  C_4 
REMARK    3  A    between atoms: C_14  and  C_11 
ROOT
ATOM      1  C   UNL d   1      51.849  32.967  52.965  0.00  0.00     0.091 A 
ATOM      2  N   UNL d   1      52.648  31.820  53.248  0.00  0.00    -0.211 N 
ATOM      3  C   UNL d   1      52.575  32.633  53.163  0.00  0.00     0.170 A 
ATOM      4  C   UNL d   1      51.783  33.782  52.883  0.00  0.00     0.154 A 
ATOM      5  N   UNL d   1      51.991  31.337  53.134  0.00  0.00    -0.162 NA
ATOM      6  C   UNL d   1      51.262  31.672  52.935  0.00  0.00     0.127 A 
ATOM      7  N   UNL d   1      53.232  33.116  53.277  0.00  0.00    -0.205 NA
ATOM      8  N   UNL d   1      52.430  34.266  52.994  0.00  0.00    -0.206 NA
ATOM      9  C   UNL d   1      53.162  33.929  53.194  0.00  0.00     0.202 A 
ENDROOT
BRANCH   2  10
ATOM     10  C   UNL d   1      53.375  31.486  53.446  0.00  0.00     0.102 C 
BRANCH  10  11
ATOM     11  C   UNL d   1      53.407  30.738  53.782  0.00  0.00     0.019 A 
ATOM     12  C   UNL d   1      53.455  30.071  53.302  0.00  0.00     0.002 A 
ATOM     13  C   UNL d   1      53.487  29.321  53.642  0.00  0.00     0.011 A 
ATOM     14  C   UNL d   1      53.472  29.240  54.461  0.00  0.00     0.058 A 
ATOM     15  C   UNL d   1      53.423  29.916  54.947  0.00  0.00     0.011 A 
ATOM     16 CL   UNL d   1      53.504  28.486  54.806  0.00  0.00    -0.082 Cl
ATOM     17  C   UNL d   1      53.392  30.660  54.603  0.00  0.00     0.002 A 
ENDBRANCH  10  11
ENDBRANCH   2  10
BRANCH   4  18
ATOM     18  N   UNL d   1      51.030  34.128  52.677  0.00  0.00    -0.289 N 
ATOM     19  C   UNL d   1      50.550  34.477  53.300  0.00  0.00     0.082 A 
ATOM     20  C   UNL d   1      49.793  34.826  53.104  0.00  0.00     0.019 A 
ATOM     21  C   UNL d   1      49.524  34.823  52.287  0.00  0.00     0.003 A 
ATOM     22  C   UNL d   1      49.999  34.477  51.673  0.00  0.00     0.019 A 
ATOM     23  C   UNL d   1      48.770  35.171  52.092  0.00  0.00     0.000 C 
ATOM     24  C   UNL d   1      50.753  34.130  51.869  0.00  0.00     0.082 A 
ENDBRANCH   4  18
TORSDOF 3
ENDMDL
MODEL 5
REMARK VINA RESULT:      -6.8      2.720      4.563
REMARK  3 active torsions:
REMARK  status: ('A' for Active; 'I' for Inactive)
REMARK    1  A    between atoms: C_11  and  N_2 
REMARK    2  A    between atoms: N_7  and  C_4 
REMARK    3  A    between atoms: C_14  and  C_11 
ROOT
ATOM      1  C   UNL d   1      53.017  33.031  53.582  0.00  0.00     0.091 A 
ATOM      2  N   UNL d   1      53.289  31.641  53.414  0.00  0.00    -0.211 N 
ATOM      3  C   UNL d   1      52.824  32.300  53.257  0.00  0.00     0.170 A 
ATOM      4  C   UNL d   1      52.547  33.685  53.420  0.00  0.00     0.154 A 
ATOM      5  N   UNL d   1      53.950  31.714  53.899  0.00  0.00    -0.162 NA
ATOM      6  C   UNL d   1      54.143  32.449  54.226  0.00  0.00     0.127 A 
ATOM      7  N   UNL d   1      52.163  32.226  52.771  0.00  0.00    -0.205 NA
ATOM      8  N   UNL d   1      51.891  33.620  52.941  0.00  0.00    -0.206 NA
ATOM      9  C   UNL d   1      51.697  32.883  52.613  0.00  0.00     0.202 A 
ENDROOT
BRANCH   2  10
ATOM     10  C   UNL d   1      53.096  30.909  53.088  0.00  0.00     0.102 C 
BRANCH  10  11
ATOM     11  C   UNL d   1      53.200  30.223  53.526  0.00  0.00     0.019 A 
ATOM     12  C   UNL d   1      53.929  29.842  53.532  0.00  0.00     0.002 A 
ATOM     13  C   UNL d   1      54.031  29.153  53.973  0.00  0.00     0.011 A 
ATOM     14  C   UNL d   1      53.402  28.847  54.407  0.00  0.00     0.058 A 
ATOM     15  C   UNL d   1      52.663  29.233  54.401  0.00  0.00     0.011 A 
ATOM     16 CL   UNL d   1      53.501  28.154  54.852  0.00  0.00    -0.082 Cl
ATOM     17  C   UNL d   1      52.567  29.918  53.961  0.00  0.00     0.002 A 
ENDBRANCH  10  11
ENDBRANCH   2  10
BRANCH   4  18
ATOM     18  N   UNL d   1      52.747  34.444  53.758  0.00  0.00    -0.289 N 
ATOM     19  C   UNL d   1      52.434  34.649  54.532  0.00  0.00     0.082 A 
ATOM     20  C   UNL d   1      52.629  35.409  54.879  0.00  0.00     0.019 A 
ATOM     21  C   UNL d   1      53.134  35.954  54.447  0.00  0.00     0.003 A 
ATOM     22  C   UNL d   1      53.442  35.749  53.681  0.00  0.00     0.019 A 
ATOM     23  C   UNL d   1      53.328  36.709  54.792  0.00  0.00     0.000 C 
ATOM     24  C   UNL d   1      53.248  34.994  53.337  0.00  0.00     0.082 A 
ENDBRANCH   4  18
TORSDOF 3
ENDMDL
MODEL 6
REMARK VINA RESULT:      -6.7      2.335      3.957
REMARK  3 active torsions:
REMARK  status: ('A' for Active; 'I' for Inactive)
REMARK    1  A    between atoms: C_11  and  N_2 
REMARK    2  A    between atoms: N_7  and  C_4 
REMARK    3  A    between atoms: C_14  and  C_11 
ROOT
ATOM      1  C   UNL d   1      49.114  34.935  52.243  0.00  0.00     0.091 A 
ATOM      2  N   UNL d   1      47.882  35.652  52.195  0.00  0.00    -0.211 N 
ATOM      3  C   UNL d   1      48.442  35.173  51.832  0.00  0.00     0.170 A 
ATOM      4  C   UNL d   1      49.670  34.456  51.873  0.00  0.00     0.154 A 
ATOM      5  N   UNL d   1      47.994  35.893  52.974  0.00  0.00    -0.162 NA
ATOM      6  C   UNL d   1      48.669  35.653  53.387  0.00  0.00     0.127 A 
ATOM      7  N   UNL d   1      48.329  34.932  51.053  0.00  0.00    -0.205 NA
ATOM      8  N   UNL d   1      49.565  34.214  51.102  0.00  0.00    -0.206 NA
ATOM      9  C   UNL d   1      48.887  34.454  50.688  0.00  0.00     0.202 A 
ENDROOT
BRANCH   2  10
ATOM     10  C   UNL d   1      47.209  35.890  51.784  0.00  0.00     0.102 C 
BRANCH  10  11
ATOM     11  C   UNL d   1      46.489  35.954  52.172  0.00  0.00     0.019 A 
ATOM     12  C   UNL d   1      46.293  36.648  52.568  0.00  0.00     0.002 A 
ATOM     13  C   UNL d   1      45.570  36.709  52.957  0.00  0.00     0.011 A 
ATOM     14  C   UNL d   1      45.043  36.076  52.950  0.00  0.00     0.058 A 
ATOM     15  C   UNL d   1      45.242  35.373  52.548  0.00  0.00     0.011 A 
ATOM     16 CL   UNL d   1      44.314  36.135  53.341  0.00  0.00    -0.082 Cl
ATOM     17  C   UNL d   1      45.964  35.317  52.162  0.00  0.00     0.002 A 
ENDBRANCH  10  11
ENDBRANCH   2  10
BRANCH   4  18
ATOM     18  N   UNL d   1      50.367  34.209  52.300  0.00  0.00    -0.289 N 
ATOM     19  C   UNL d   1      51.113  34.607  52.143  0.00  0.00     0.082 A 
ATOM     20  C   UNL d   1      51.818  34.365  52.566  0.00  0.00     0.019 A 
ATOM     21  C   UNL d   1      51.770  33.729  53.141  0.00  0.00     0.003 A 
ATOM     22  C   UNL d   1      51.031  33.336  53.296  0.00  0.00     0.019 A 
ATOM     23  C   UNL d   1      52.471  33.489  53.563  0.00  0.00     0.000 C 
ATOM     24  C   UNL d   1      50.330  33.577  52.874  0.00  0.00     0.082 A 
ENDBRANCH   4  18
TORSDOF 3
ENDMDL
MODEL 7
REMARK VINA RESULT:      -6.3      2.518      3.756
REMARK  3 active torsions:
REMARK  status: ('A' for Active; 'I' for Inactive)
REMARK    1  A    between atoms: C_11  and  N_2 
REMARK    2  A    between atoms: N_7  and  C_4 
REMARK    3  A    between atoms: C_14  and  C_11 
ROOT
ATOM      1  C   UNL d   1      53.336  31.619  53.746  0.00  0.00     0.091 A 
ATOM      2  N   UNL d   1      53.457  33.037  53.654  0.00  0.00    -0.211 N 
ATOM      3  C   UNL d   1      53.185  32.324  53.350  0.00  0.00     0.170 A 
ATOM      4  C   UNL d   1      53.061  30.909  53.436  0.00  0.00     0.154 A 
ATOM      5  N   UNL d   1      53.881  33.044  54.359  0.00  0.00    -0.162 NA
ATOM      6  C   UNL d   1      54.032  32.336  54.758  0.00  0.00     0.127 A 
ATOM      7  N   UNL d   1      52.761  32.318  52.644  0.00  0.00    -0.205 NA
ATOM      8  N   UNL d   1      52.640  30.895  52.738  0.00  0.00    -0.206 NA
ATOM      9  C   UNL d   1      52.488  31.607  52.338  0.00  0.00     0.202 A 
ENDROOT
BRANCH   2  10
ATOM     10  C   UNL d   1      53.306  33.743  53.257  0.00  0.00     0.102 C 
BRANCH  10  11
ATOM     11  C   UNL d   1      53.164  34.432  53.680  0.00  0.00     0.019 A 
ATOM     12  C   UNL d   1      53.793  34.901  53.929  0.00  0.00     0.002 A 
ATOM     13  C   UNL d   1      53.649  35.592  54.354  0.00  0.00     0.011 A 
ATOM     14  C   UNL d   1      52.875  35.812  54.529  0.00  0.00     0.058 A 
ATOM     15  C   UNL d   1      52.238  35.337  54.277  0.00  0.00     0.011 A 
ATOM     16 CL   UNL d   1      52.726  36.507  54.956  0.00  0.00    -0.082 Cl
ATOM     17  C   UNL d   1      52.387  34.650  53.854  0.00  0.00     0.002 A 
ENDBRANCH  10  11
ENDBRANCH   2  10
BRANCH   4  18
ATOM     18  N   UNL d   1      53.217  30.178  53.847  0.00  0.00    -0.289 N 
ATOM     19  C   UNL d   1      53.854  29.672  53.567  0.00  0.00     0.082 A 
ATOM     20  C   UNL d   1      54.018  28.935  53.974  0.00  0.00     0.019 A 
ATOM     21  C   UNL d   1      53.544  28.713  54.655  0.00  0.00     0.003 A 
ATOM     22  C   UNL d   1      52.914  29.214  54.931  0.00  0.00     0.019 A 
ATOM     23  C   UNL d   1      53.707  27.980  55.060  0.00  0.00     0.000 C 
ATOM     24  C   UNL d   1      52.752  29.947  54.526  0.00  0.00     0.082 A 
ENDBRANCH   4  18
TORSDOF 3
ENDMDL
