MODEL 1
REMARK VINA RESULT:      -1.3      0.000      0.000
REMARK  7 active torsions:
REMARK  status: ('A' for Active; 'I' for Inactive)
REMARK    1  A    between atoms: C_5  and  C_1 
REMARK    2  A    between atoms: N_6  and  C_2 
REMARK       I    between atoms: N_10  and  C_5 
REMARK    3  A    between atoms: C_20  and  N_6 
REMARK    4  A    between atoms: C_9  and  C_12 
REMARK    5  A    between atoms: C_22  and  N_10 
REMARK    6  A    between atoms: C_11  and  C_22 
REMARK    7  A    between atoms: O_30  and  C_25 
ROOT
ATOM      1  C   UNL d   1     -43.968  12.560  21.881  0.00  0.00     0.099 A 
ATOM      2  C   UNL d   1     -44.731  12.730  22.141  0.00  0.00     0.187 A 
ATOM      3  C   UNL d   1     -43.594  11.860  22.146  0.00  0.00     0.010 A 
ATOM      4  O   UNL d   1     -45.124  12.223  22.654  0.00  0.00    -0.289 OA
ATOM      5  C   UNL d   1     -43.986  11.346  22.663  0.00  0.00     0.025 A 
ATOM      6  C   UNL d   1     -44.742  11.521  22.917  0.00  0.00     0.102 A 
ATOM      7  C   UNL d   1     -43.620  10.656  22.926  0.00  0.00     0.026 A 
ATOM      8  C   UNL d   1     -45.146  11.010  23.438  0.00  0.00     0.027 A 
ATOM      9  C   UNL d   1     -44.008  10.147  23.438  0.00  0.00     0.094 A 
ATOM     10  C   UNL d   1     -44.772  10.318  23.698  0.00  0.00     0.026 A 
ENDROOT
BRANCH   2  11
ATOM     11  N   UNL d   1     -45.101  13.432  21.872  0.00  0.00    -0.222 NA
BRANCH  11  12
ATOM     12  C   UNL d   1     -45.863  13.611  22.132  0.00  0.00     0.084 A 
ATOM     13  C   UNL d   1     -46.507  13.219  21.798  0.00  0.00     0.019 A 
ATOM     14  C   UNL d   1     -47.260  13.398  22.057  0.00  0.00     0.008 A 
ATOM     15  C   UNL d   1     -47.387  13.968  22.649  0.00  0.00     0.065 A 
ATOM     16  C   UNL d   1     -46.738  14.359  22.981  0.00  0.00     0.008 A 
ATOM     17  C   UNL d   1     -45.979  14.175  22.716  0.00  0.00     0.019 A 
BRANCH  15  18
ATOM     18  C   UNL d   1     -48.149  14.146  22.908  0.00  0.00     0.211 C 
ATOM     19  O   UNL d   1     -48.624  13.556  23.248  0.00  0.00    -0.644 OA
ATOM     20  O   UNL d   1     -48.455  14.912  22.834  0.00  0.00    -0.644 OA
ENDBRANCH  15  18
ENDBRANCH  11  12
ENDBRANCH   2  11
BRANCH   1  21
ATOM     21  C   UNL d   1     -43.572  13.066  21.367  0.00  0.00     0.283 C 
ATOM     22  N   UNL d   1     -42.780  13.296  21.530  0.00  0.00    -0.204 NA
ATOM     23  O   UNL d   1     -43.941  13.362  20.677  0.00  0.00    -0.265 OA
BRANCH  22  24
ATOM     24  C   UNL d   1     -42.378  13.806  21.013  0.00  0.00     0.127 C 
BRANCH  24  25
ATOM     25  C   UNL d   1     -41.584  13.986  21.138  0.00  0.00     0.119 A 
ATOM     26  O   UNL d   1     -40.970  13.590  21.523  0.00  0.00    -0.304 OA
ATOM     27  C   UNL d   1     -40.289  14.040  21.470  0.00  0.00     0.123 A 
ATOM     28  C   UNL d   1     -40.463  14.716  21.056  0.00  0.00     0.029 A 
ATOM     29  C   UNL d   1     -41.262  14.689  20.848  0.00  0.00     0.028 A 
ENDBRANCH  24  25
ENDBRANCH  22  24
ENDBRANCH   1  21
BRANCH   9  30
ATOM     30  O   UNL d   1     -43.630   9.454  23.697  0.00  0.00    -0.328 OA
ATOM     31  C   UNL d   1     -43.884   8.708  23.416  0.00  0.00     0.181 C 
ENDBRANCH   9  30
TORSDOF 7
ENDMDL
MODEL 2
REMARK VINA RESULT:       0.5      2.624      5.364
REMARK  7 active torsions:
REMARK  status: ('A' for Active; 'I' for Inactive)
REMARK    1  A    between atoms: C_5  and  C_1 
REMARK    2  A    between atoms: N_6  and  C_2 
REMARK       I    between atoms: N_10  and  C_5 
REMARK    3  A    between atoms: C_20  and  N_6 
REMARK    4  A    between atoms: C_9  and  C_12 
REMARK    5  A    between atoms: C_22  and  N_10 
REMARK    6  A    between atoms: C_11  and  C_22 
REMARK    7  A    between atoms: O_30  and  C_25 
ROOT
ATOM      1  C   UNL d   1     -40.211  14.991  20.292  0.00  0.00     0.099 A 
ATOM      2  C   UNL d   1     -40.727  14.463  20.658  0.00  0.00     0.187 A 
ATOM      3  C   UNL d   1     -39.543  15.265  20.714  0.00  0.00     0.010 A 
ATOM      4  O   UNL d   1     -40.592  14.206  21.426  0.00  0.00    -0.289 OA
ATOM      5  C   UNL d   1     -39.403  15.009  21.489  0.00  0.00     0.025 A 
ATOM      6  C   UNL d   1     -39.918  14.486  21.844  0.00  0.00     0.102 A 
ATOM      7  C   UNL d   1     -38.745  15.278  21.907  0.00  0.00     0.026 A 
ATOM      8  C   UNL d   1     -39.787  14.222  22.625  0.00  0.00     0.027 A 
ATOM      9  C   UNL d   1     -38.606  15.024  22.674  0.00  0.00     0.094 A 
ATOM     10  C   UNL d   1     -39.123  14.496  23.039  0.00  0.00     0.026 A 
ENDROOT
BRANCH   2  11
ATOM     11  N   UNL d   1     -41.395  14.191  20.231  0.00  0.00    -0.222 NA
BRANCH  11  12
ATOM     12  C   UNL d   1     -42.000  13.801  20.633  0.00  0.00     0.084 A 
ATOM     13  C   UNL d   1     -42.021  12.977  20.633  0.00  0.00     0.019 A 
ATOM     14  C   UNL d   1     -42.621  12.594  21.033  0.00  0.00     0.008 A 
ATOM     15  C   UNL d   1     -43.208  13.021  21.438  0.00  0.00     0.065 A 
ATOM     16  C   UNL d   1     -43.183  13.848  21.435  0.00  0.00     0.008 A 
ATOM     17  C   UNL d   1     -42.576  14.230  21.031  0.00  0.00     0.019 A 
BRANCH  15  18
ATOM     18  C   UNL d   1     -43.812  12.631  21.840  0.00  0.00     0.211 C 
ATOM     19  O   UNL d   1     -43.653  11.930  22.257  0.00  0.00    -0.644 OA
ATOM     20  O   UNL d   1     -44.587  12.926  21.837  0.00  0.00    -0.644 OA
ENDBRANCH  15  18
ENDBRANCH  11  12
ENDBRANCH   2  11
BRANCH   1  21
ATOM     21  C   UNL d   1     -40.343  15.250  19.522  0.00  0.00     0.283 C 
ATOM     22  N   UNL d   1     -39.911  14.913  18.885  0.00  0.00    -0.204 NA
ATOM     23  O   UNL d   1     -40.905  15.847  19.354  0.00  0.00    -0.265 OA
BRANCH  22  24
ATOM     24  C   UNL d   1     -40.043  15.172  18.107  0.00  0.00     0.127 C 
BRANCH  24  25
ATOM     25  C   UNL d   1     -39.524  14.961  17.504  0.00  0.00     0.119 A 
ATOM     26  O   UNL d   1     -38.787  15.248  17.268  0.00  0.00    -0.304 OA
ATOM     27  C   UNL d   1     -38.528  14.819  16.622  0.00  0.00     0.123 A 
ATOM     28  C   UNL d   1     -39.091  14.262  16.445  0.00  0.00     0.029 A 
ATOM     29  C   UNL d   1     -39.710  14.345  16.986  0.00  0.00     0.028 A 
ENDBRANCH  24  25
ENDBRANCH  22  24
ENDBRANCH   1  21
BRANCH   9  30
ATOM     30  O   UNL d   1     -37.940  15.301  23.086  0.00  0.00    -0.328 OA
ATOM     31  C   UNL d   1     -38.020  15.922  23.641  0.00  0.00     0.181 C 
ENDBRANCH   9  30
TORSDOF 7
ENDMDL
MODEL 3
REMARK VINA RESULT:       0.6      1.563      2.381
REMARK  7 active torsions:
REMARK  status: ('A' for Active; 'I' for Inactive)
REMARK    1  A    between atoms: C_5  and  C_1 
REMARK    2  A    between atoms: N_6  and  C_2 
REMARK       I    between atoms: N_10  and  C_5 
REMARK    3  A    between atoms: C_20  and  N_6 
REMARK    4  A    between atoms: C_9  and  C_12 
REMARK    5  A    between atoms: C_22  and  N_10 
REMARK    6  A    between atoms: C_11  and  C_22 
REMARK    7  A    between atoms: O_30  and  C_25 
ROOT
ATOM      1  C   UNL d   1     -45.966  13.368  22.646  0.00  0.00     0.099 A 
ATOM      2  C   UNL d   1     -46.748  13.614  22.727  0.00  0.00     0.187 A 
ATOM      3  C   UNL d   1     -45.768  12.576  22.828  0.00  0.00     0.010 A 
ATOM      4  O   UNL d   1     -47.330  13.092  22.981  0.00  0.00    -0.289 OA
ATOM      5  C   UNL d   1     -46.350  12.047  23.085  0.00  0.00     0.025 A 
ATOM      6  C   UNL d   1     -47.123  12.298  23.162  0.00  0.00     0.102 A 
ATOM      7  C   UNL d   1     -46.157  11.265  23.265  0.00  0.00     0.026 A 
ATOM      8  C   UNL d   1     -47.718  11.772  23.421  0.00  0.00     0.027 A 
ATOM      9  C   UNL d   1     -46.734  10.742  23.519  0.00  0.00     0.094 A 
ATOM     10  C   UNL d   1     -47.517  10.988  23.600  0.00  0.00     0.026 A 
ENDROOT
BRANCH   2  11
ATOM     11  N   UNL d   1     -46.943  14.408  22.543  0.00  0.00    -0.222 NA
BRANCH  11  12
ATOM     12  C   UNL d   1     -47.735  14.634  22.515  0.00  0.00     0.084 A 
ATOM     13  C   UNL d   1     -48.175  14.485  21.834  0.00  0.00     0.019 A 
ATOM     14  C   UNL d   1     -48.959  14.710  21.810  0.00  0.00     0.008 A 
ATOM     15  C   UNL d   1     -49.319  15.085  22.458  0.00  0.00     0.065 A 
ATOM     16  C   UNL d   1     -48.874  15.233  23.140  0.00  0.00     0.008 A 
ATOM     17  C   UNL d   1     -48.083  15.004  23.160  0.00  0.00     0.019 A 
BRANCH  15  18
ATOM     18  C   UNL d   1     -50.111  15.310  22.429  0.00  0.00     0.211 C 
ATOM     19  O   UNL d   1     -50.538  15.249  21.720  0.00  0.00    -0.644 OA
ATOM     20  O   UNL d   1     -50.496  15.602  23.103  0.00  0.00    -0.644 OA
ENDBRANCH  15  18
ENDBRANCH  11  12
ENDBRANCH   2  11
BRANCH   1  21
ATOM     21  C   UNL d   1     -45.382  13.888  22.391  0.00  0.00     0.283 C 
ATOM     22  N   UNL d   1     -44.733  13.603  21.941  0.00  0.00    -0.204 NA
ATOM     23  O   UNL d   1     -45.417  14.705  22.571  0.00  0.00    -0.265 OA
BRANCH  22  24
ATOM     24  C   UNL d   1     -44.142  14.126  21.682  0.00  0.00     0.127 C 
BRANCH  24  25
ATOM     25  C   UNL d   1     -43.400  13.842  21.463  0.00  0.00     0.119 A 
ATOM     26  O   UNL d   1     -42.661  14.201  21.378  0.00  0.00    -0.304 OA
ATOM     27  C   UNL d   1     -42.117  13.638  21.143  0.00  0.00     0.123 A 
ATOM     28  C   UNL d   1     -42.501  12.926  21.077  0.00  0.00     0.029 A 
ATOM     29  C   UNL d   1     -43.295  13.045  21.273  0.00  0.00     0.028 A 
ENDBRANCH  24  25
ENDBRANCH  22  24
ENDBRANCH   1  21
BRANCH   9  30
ATOM     30  O   UNL d   1     -46.529   9.956  23.698  0.00  0.00    -0.328 OA
ATOM     31  C   UNL d   1     -45.766   9.670  23.511  0.00  0.00     0.181 C 
ENDBRANCH   9  30
TORSDOF 7
ENDMDL
