MODEL 1
REMARK VINA RESULT:     119.0      0.000      0.000
REMARK  4 active torsions:
REMARK  status: ('A' for Active; 'I' for Inactive)
REMARK    1  A    between atoms: S_4  and  C_3 
REMARK    2  A    between atoms: C_12  and  S_4 
REMARK    3  A    between atoms: C_23  and  N_6 
REMARK    4  A    between atoms: C_27  and  C_23 
ROOT
ATOM      1  C   UNL d   1     -55.421-101.152 -42.704  0.00  0.00     0.155 A 
ATOM      2  C   UNL d   1     -55.276-100.524 -42.196  0.00  0.00     0.092 A 
ATOM      3  C   UNL d   1     -55.360-101.413 -41.086  0.00  0.00     0.124 A 
ATOM      4  N   UNL d   1     -55.453-101.026 -43.517  0.00  0.00    -0.210 NA
ATOM      5  N   UNL d   1     -55.535-101.907 -42.405  0.00  0.00    -0.273 N 
ATOM      6  C   UNL d   1     -55.505-102.037 -41.592  0.00  0.00     0.181 A 
ATOM      7  C   UNL d   1     -55.161 -99.763 -42.496  0.00  0.00     0.269 A 
ATOM      8  N   UNL d   1     -55.193 -99.637 -43.308  0.00  0.00    -0.258 N 
ATOM      9  C   UNL d   1     -55.245-100.649 -41.383  0.00  0.00     0.022 A 
ATOM     10  C   UNL d   1     -55.338-100.269 -43.819  0.00  0.00     0.152 A 
ATOM     11  N   UNL d   1     -55.620-102.801 -41.294  0.00  0.00    -0.128 N 
ATOM     12  C   UNL d   1     -55.077 -98.874 -43.606  0.00  0.00     0.084 A 
ATOM     13  O   UNL d   1     -55.016 -99.137 -41.979  0.00  0.00    -0.266 OA
ATOM     14  C   UNL d   1     -55.368-100.136 -44.627  0.00  0.00     0.038 A 
ATOM     15  C   UNL d   1     -55.110 -98.759 -44.417  0.00  0.00     0.019 A 
ATOM     16  C   UNL d   1     -55.256 -99.391 -44.928  0.00  0.00     0.005 A 
ENDROOT
BRANCH   3  17
ATOM     17  S   UNL d   1     -55.329-101.544 -40.266  0.00  0.00     0.213 S 
ATOM     18  O   UNL d   1     -54.755-102.116 -40.383  0.00  0.00    -0.217 OA
ATOM     19  O   UNL d   1     -55.914-100.960 -40.158  0.00  0.00    -0.217 OA
BRANCH  17  20
ATOM     20  C   UNL d   1     -55.305-101.667 -39.449  0.00  0.00     0.088 A 
ATOM     21  C   UNL d   1     -55.154-101.031 -38.945  0.00  0.00     0.011 A 
ATOM     22  C   UNL d   1     -55.130-101.151 -38.136  0.00  0.00     0.001 A 
ATOM     23  C   UNL d   1     -54.979-100.515 -37.631  0.00  0.00     0.000 C 
ATOM     24  C   UNL d   1     -55.257-101.908 -37.822  0.00  0.00     0.000 A 
ATOM     25  C   UNL d   1     -55.408-102.544 -38.325  0.00  0.00     0.001 A 
ATOM     26  C   UNL d   1     -55.232-102.028 -37.001  0.00  0.00     0.000 C 
ATOM     27  C   UNL d   1     -55.433-102.425 -39.146  0.00  0.00     0.011 A 
ENDBRANCH  17  20
ENDBRANCH   3  17
BRANCH   5  28
ATOM     28  C   UNL d   1     -55.680-102.532 -42.923  0.00  0.00     0.083 C 
BRANCH  28  29
ATOM     29  C   UNL d   1     -55.750-102.385 -43.732  0.00  0.00     0.019 C 
ATOM     30  C   UNL d   1     -55.076-102.336 -44.205  0.00  0.00     0.002 C 
ENDBRANCH  28  29
ENDBRANCH   5  28
TORSDOF 4
ENDMDL
MODEL 2
REMARK VINA RESULT:     121.8      0.977      1.979
REMARK  4 active torsions:
REMARK  status: ('A' for Active; 'I' for Inactive)
REMARK    1  A    between atoms: S_4  and  C_3 
REMARK    2  A    between atoms: C_12  and  S_4 
REMARK    3  A    between atoms: C_23  and  N_6 
REMARK    4  A    between atoms: C_27  and  C_23 
ROOT
ATOM      1  C   UNL d   1     -55.204-100.462 -42.690  0.00  0.00     0.155 A 
ATOM      2  C   UNL d   1     -55.161-101.256 -42.486  0.00  0.00     0.092 A 
ATOM      3  C   UNL d   1     -55.099-100.891 -41.111  0.00  0.00     0.124 A 
ATOM      4  N   UNL d   1     -55.256-100.242 -43.482  0.00  0.00    -0.210 NA
ATOM      5  N   UNL d   1     -55.194 -99.886 -42.108  0.00  0.00    -0.273 N 
ATOM      6  C   UNL d   1     -55.142-100.102 -41.314  0.00  0.00     0.181 A 
ATOM      7  C   UNL d   1     -55.170-101.838 -43.072  0.00  0.00     0.269 A 
ATOM      8  N   UNL d   1     -55.223-101.617 -43.863  0.00  0.00    -0.258 N 
ATOM      9  C   UNL d   1     -55.108-101.477 -41.695  0.00  0.00     0.022 A 
ATOM     10  C   UNL d   1     -55.266-100.819 -44.068  0.00  0.00     0.152 A 
ATOM     11  N   UNL d   1     -55.132 -99.516 -40.729  0.00  0.00    -0.128 N 
ATOM     12  C   UNL d   1     -55.232-102.202 -44.448  0.00  0.00     0.084 A 
ATOM     13  O   UNL d   1     -55.126-102.634 -42.860  0.00  0.00    -0.266 OA
ATOM     14  C   UNL d   1     -55.318-100.607 -44.858  0.00  0.00     0.038 A 
ATOM     15  C   UNL d   1     -55.285-101.973 -45.234  0.00  0.00     0.019 A 
ATOM     16  C   UNL d   1     -55.328-101.174 -45.438  0.00  0.00     0.005 A 
ENDROOT
BRANCH   3  17
ATOM     17  S   UNL d   1     -55.046-101.110 -40.311  0.00  0.00     0.213 S 
ATOM     18  O   UNL d   1     -54.775-100.359 -40.128  0.00  0.00    -0.217 OA
ATOM     19  O   UNL d   1     -55.322-101.871 -40.508  0.00  0.00    -0.217 OA
BRANCH  17  20
ATOM     20  C   UNL d   1     -54.996-101.337 -39.517  0.00  0.00     0.088 A 
ATOM     21  C   UNL d   1     -55.181-100.793 -38.925  0.00  0.00     0.011 A 
ATOM     22  C   UNL d   1     -55.132-101.015 -38.139  0.00  0.00     0.001 A 
ATOM     23  C   UNL d   1     -55.316-100.472 -37.547  0.00  0.00     0.000 C 
ATOM     24  C   UNL d   1     -54.898-101.786 -37.937  0.00  0.00     0.000 A 
ATOM     25  C   UNL d   1     -54.714-102.330 -38.529  0.00  0.00     0.001 A 
ATOM     26  C   UNL d   1     -54.850-102.009 -37.139  0.00  0.00     0.000 C 
ATOM     27  C   UNL d   1     -54.762-102.106 -39.327  0.00  0.00     0.011 A 
ENDBRANCH  17  20
ENDBRANCH   3  17
BRANCH   5  28
ATOM     28  C   UNL d   1     -55.238 -99.090 -42.321  0.00  0.00     0.083 C 
BRANCH  28  29
ATOM     29  C   UNL d   1     -55.921 -98.801 -42.684  0.00  0.00     0.019 C 
ATOM     30  C   UNL d   1     -56.049 -98.927 -43.489  0.00  0.00     0.002 C 
ENDBRANCH  28  29
ENDBRANCH   5  28
TORSDOF 4
ENDMDL
