MODEL 1
REMARK VINA RESULT:      -8.1      0.000      0.000
REMARK  4 active torsions:
REMARK  status: ('A' for Active; 'I' for Inactive)
REMARK    1  A    between atoms: C_2  and  S_1 
REMARK    2  A    between atoms: N_3  and  S_1 
REMARK    3  A    between atoms: C_6  and  N_3 
REMARK    4  A    between atoms: C_4  and  C_6 
REMARK       I    between atoms: N_5  and  C_4 
ROOT
ATOM      1  S   UNL d   1      53.007  33.355  53.445  0.00  0.00     0.287 S 
ATOM      2  O   UNL d   1      53.773  33.485  53.133  0.00  0.00    -0.198 OA
ATOM      3  O   UNL d   1      52.236  33.234  53.764  0.00  0.00    -0.198 OA
ENDROOT
BRANCH   1   4
ATOM      4  C   UNL d   1      53.053  34.098  53.859  0.00  0.00     0.126 A 
ATOM      5  C   UNL d   1      53.493  34.155  54.560  0.00  0.00     0.071 A 
ATOM      6 CL   UNL d   1      53.901  33.485  54.876  0.00  0.00    -0.082 Cl
ATOM      7  C   UNL d   1      53.537  34.883  54.964  0.00  0.00     0.012 A 
ATOM      8  C   UNL d   1      53.140  35.536  54.656  0.00  0.00     0.002 A 
ATOM      9  C   UNL d   1      52.701  35.471  53.953  0.00  0.00     0.012 A 
ATOM     10  C   UNL d   1      52.657  34.755  53.554  0.00  0.00     0.071 A 
ATOM     11 CL   UNL d   1      52.221  34.689  52.855  0.00  0.00    -0.082 Cl
ENDBRANCH   1   4
BRANCH   1  12
ATOM     12  N   UNL d   1      52.960  32.622  53.037  0.00  0.00    -0.152 NA
BRANCH  12  13
ATOM     13  C   UNL d   1      53.015  31.906  53.466  0.00  0.00     0.173 C 
BRANCH  13  14
ATOM     14  C   UNL d   1      52.894  31.182  53.071  0.00  0.00     0.285 C 
ATOM     15  N   UNL d   1      53.005  30.460  53.459  0.00  0.00    -0.271 N 
ATOM     16  C   UNL d   1      53.239  30.509  54.247  0.00  0.00     0.083 A 
ATOM     17  C   UNL d   1      52.868  29.794  53.009  0.00  0.00     0.083 A 
ATOM     18  C   UNL d   1      53.390  29.895  54.770  0.00  0.00     0.019 A 
ATOM     19  C   UNL d   1      53.346  29.085  54.637  0.00  0.00     0.002 A 
ATOM     20  C   UNL d   1      53.144  28.690  53.965  0.00  0.00     0.002 A 
ATOM     21  C   UNL d   1      52.930  29.002  53.234  0.00  0.00     0.019 A 
ATOM     22  O   UNL d   1      52.709  31.208  52.447  0.00  0.00    -0.265 OA
ENDBRANCH  13  14
ENDBRANCH  12  13
ENDBRANCH   1  12
TORSDOF 4
ENDMDL
MODEL 2
REMARK VINA RESULT:      -7.7      2.466      4.298
REMARK  4 active torsions:
REMARK  status: ('A' for Active; 'I' for Inactive)
REMARK    1  A    between atoms: C_2  and  S_1 
REMARK    2  A    between atoms: N_3  and  S_1 
REMARK    3  A    between atoms: C_6  and  N_3 
REMARK    4  A    between atoms: C_4  and  C_6 
REMARK       I    between atoms: N_5  and  C_4 
ROOT
ATOM      1  S   UNL d   1      52.617  33.645  53.309  0.00  0.00     0.287 S 
ATOM      2  O   UNL d   1      52.065  33.152  53.701  0.00  0.00    -0.198 OA
ATOM      3  O   UNL d   1      53.181  34.140  52.924  0.00  0.00    -0.198 OA
ENDROOT
BRANCH   1   4
ATOM      4  C   UNL d   1      53.169  33.528  53.949  0.00  0.00     0.126 A 
ATOM      5  C   UNL d   1      53.316  34.143  54.486  0.00  0.00     0.071 A 
ATOM      6 CL   UNL d   1      52.926  34.890  54.413  0.00  0.00    -0.082 Cl
ATOM      7  C   UNL d   1      53.856  34.027  55.111  0.00  0.00     0.012 A 
ATOM      8  C   UNL d   1      54.236  33.300  55.181  0.00  0.00     0.002 A 
ATOM      9  C   UNL d   1      54.084  32.688  54.639  0.00  0.00     0.012 A 
ATOM     10  C   UNL d   1      53.552  32.801  54.024  0.00  0.00     0.071 A 
ATOM     11 CL   UNL d   1      53.400  32.194  53.483  0.00  0.00    -0.082 Cl
ENDBRANCH   1   4
BRANCH   1  12
ATOM     12  N   UNL d   1      52.075  33.760  52.680  0.00  0.00    -0.152 NA
BRANCH  12  13
ATOM     13  C   UNL d   1      51.315  34.073  52.840  0.00  0.00     0.173 C 
BRANCH  13  14
ATOM     14  C   UNL d   1      50.765  34.150  52.218  0.00  0.00     0.285 C 
ATOM     15  N   UNL d   1      50.043  34.536  52.333  0.00  0.00    -0.271 N 
ATOM     16  C   UNL d   1      49.911  34.832  53.090  0.00  0.00     0.083 A 
ATOM     17  C   UNL d   1      49.556  34.573  51.680  0.00  0.00     0.083 A 
ATOM     18  C   UNL d   1      49.253  35.236  53.369  0.00  0.00     0.019 A 
ATOM     19  C   UNL d   1      48.569  35.444  52.964  0.00  0.00     0.002 A 
ATOM     20  C   UNL d   1      48.370  35.306  52.196  0.00  0.00     0.002 A 
ATOM     21  C   UNL d   1      48.808  34.917  51.617  0.00  0.00     0.019 A 
ATOM     22  O   UNL d   1      50.927  33.895  51.641  0.00  0.00    -0.265 OA
ENDBRANCH  13  14
ENDBRANCH  12  13
ENDBRANCH   1  12
TORSDOF 4
ENDMDL
MODEL 3
REMARK VINA RESULT:      -7.6      2.470      4.277
REMARK  4 active torsions:
REMARK  status: ('A' for Active; 'I' for Inactive)
REMARK    1  A    between atoms: C_2  and  S_1 
REMARK    2  A    between atoms: N_3  and  S_1 
REMARK    3  A    between atoms: C_6  and  N_3 
REMARK    4  A    between atoms: C_4  and  C_6 
REMARK       I    between atoms: N_5  and  C_4 
ROOT
ATOM      1  S   UNL d   1      52.620  33.681  53.309  0.00  0.00     0.287 S 
ATOM      2  O   UNL d   1      52.048  33.216  53.706  0.00  0.00    -0.198 OA
ATOM      3  O   UNL d   1      53.204  34.146  52.918  0.00  0.00    -0.198 OA
ENDROOT
BRANCH   1   4
ATOM      4  C   UNL d   1      53.171  33.538  53.944  0.00  0.00     0.126 A 
ATOM      5  C   UNL d   1      53.534  32.796  54.019  0.00  0.00     0.071 A 
ATOM      6 CL   UNL d   1      53.367  32.171  53.474  0.00  0.00    -0.082 Cl
ATOM      7  C   UNL d   1      54.072  32.659  54.641  0.00  0.00     0.012 A 
ATOM      8  C   UNL d   1      54.234  33.268  55.171  0.00  0.00     0.002 A 
ATOM      9  C   UNL d   1      53.866  34.010  55.089  0.00  0.00     0.012 A 
ATOM     10  C   UNL d   1      53.336  34.145  54.478  0.00  0.00     0.071 A 
ATOM     11 CL   UNL d   1      52.970  34.882  54.395  0.00  0.00    -0.082 Cl
ENDBRANCH   1   4
BRANCH   1  12
ATOM     12  N   UNL d   1      52.079  33.821  52.683  0.00  0.00    -0.152 NA
BRANCH  12  13
ATOM     13  C   UNL d   1      51.306  34.089  52.857  0.00  0.00     0.173 C 
BRANCH  13  14
ATOM     14  C   UNL d   1      50.750  34.165  52.240  0.00  0.00     0.285 C 
ATOM     15  N   UNL d   1      50.030  34.554  52.359  0.00  0.00    -0.271 N 
ATOM     16  C   UNL d   1      49.906  34.854  53.116  0.00  0.00     0.083 A 
ATOM     17  C   UNL d   1      49.537  34.589  51.711  0.00  0.00     0.083 A 
ATOM     18  C   UNL d   1      49.252  35.263  53.399  0.00  0.00     0.019 A 
ATOM     19  C   UNL d   1      48.566  35.471  52.999  0.00  0.00     0.002 A 
ATOM     20  C   UNL d   1      48.359  35.329  52.234  0.00  0.00     0.002 A 
ATOM     21  C   UNL d   1      48.790  34.935  51.653  0.00  0.00     0.019 A 
ATOM     22  O   UNL d   1      50.905  33.906  51.663  0.00  0.00    -0.265 OA
ENDBRANCH  13  14
ENDBRANCH  12  13
ENDBRANCH   1  12
TORSDOF 4
ENDMDL
MODEL 4
REMARK VINA RESULT:      -6.5      2.431      3.586
REMARK  4 active torsions:
REMARK  status: ('A' for Active; 'I' for Inactive)
REMARK    1  A    between atoms: C_2  and  S_1 
REMARK    2  A    between atoms: N_3  and  S_1 
REMARK    3  A    between atoms: C_6  and  N_3 
REMARK    4  A    between atoms: C_4  and  C_6 
REMARK       I    between atoms: N_5  and  C_4 
ROOT
ATOM      1  S   UNL d   1      50.714  33.995  52.412  0.00  0.00     0.287 S 
ATOM      2  O   UNL d   1      51.111  34.607  51.999  0.00  0.00    -0.198 OA
ATOM      3  O   UNL d   1      50.305  33.387  52.827  0.00  0.00    -0.198 OA
ENDROOT
BRANCH   1   4
ATOM      4  C   UNL d   1      50.000  34.461  52.407  0.00  0.00     0.126 A 
ATOM      5  C   UNL d   1      49.776  34.882  53.086  0.00  0.00     0.071 A 
ATOM      6 CL   UNL d   1      50.246  34.861  53.789  0.00  0.00    -0.082 Cl
ATOM      7  C   UNL d   1      49.077  35.337  53.080  0.00  0.00     0.012 A 
ATOM      8  C   UNL d   1      48.620  35.357  52.395  0.00  0.00     0.002 A 
ATOM      9  C   UNL d   1      48.850  34.932  51.719  0.00  0.00     0.012 A 
ATOM     10  C   UNL d   1      49.538  34.485  51.724  0.00  0.00     0.071 A 
ATOM     11 CL   UNL d   1      49.769  34.061  51.052  0.00  0.00    -0.082 Cl
ENDBRANCH   1   4
BRANCH   1  12
ATOM     12  N   UNL d   1      51.417  33.537  52.416  0.00  0.00    -0.152 NA
BRANCH  12  13
ATOM     13  C   UNL d   1      51.959  33.616  53.049  0.00  0.00     0.173 C 
BRANCH  13  14
ATOM     14  C   UNL d   1      52.640  33.135  53.068  0.00  0.00     0.285 C 
ATOM     15  N   UNL d   1      53.233  33.256  53.631  0.00  0.00    -0.271 N 
ATOM     16  C   UNL d   1      53.103  33.875  54.160  0.00  0.00     0.083 A 
ATOM     17  C   UNL d   1      53.868  32.748  53.589  0.00  0.00     0.083 A 
ATOM     18  C   UNL d   1      53.587  34.126  54.774  0.00  0.00     0.019 A 
ATOM     19  C   UNL d   1      54.314  33.826  55.010  0.00  0.00     0.002 A 
ATOM     20  C   UNL d   1      54.736  33.212  54.703  0.00  0.00     0.002 A 
ATOM     21  C   UNL d   1      54.541  32.726  54.067  0.00  0.00     0.019 A 
ATOM     22  O   UNL d   1      52.685  32.661  52.623  0.00  0.00    -0.265 OA
ENDBRANCH  13  14
ENDBRANCH  12  13
ENDBRANCH   1  12
TORSDOF 4
ENDMDL
MODEL 5
REMARK VINA RESULT:      -6.5      1.455      4.417
REMARK  4 active torsions:
REMARK  status: ('A' for Active; 'I' for Inactive)
REMARK    1  A    between atoms: C_2  and  S_1 
REMARK    2  A    between atoms: N_3  and  S_1 
REMARK    3  A    between atoms: C_6  and  N_3 
REMARK    4  A    between atoms: C_4  and  C_6 
REMARK       I    between atoms: N_5  and  C_4 
ROOT
ATOM      1  S   UNL d   1      53.000  31.005  53.264  0.00  0.00     0.287 S 
ATOM      2  O   UNL d   1      53.833  31.071  53.207  0.00  0.00    -0.198 OA
ATOM      3  O   UNL d   1      52.163  30.928  53.327  0.00  0.00    -0.198 OA
ENDROOT
BRANCH   1   4
ATOM      4  C   UNL d   1      53.089  30.230  53.610  0.00  0.00     0.126 A 
ATOM      5  C   UNL d   1      53.289  30.155  54.411  0.00  0.00     0.071 A 
ATOM      6 CL   UNL d   1      53.409  30.836  54.898  0.00  0.00    -0.082 Cl
ATOM      7  C   UNL d   1      53.375  29.396  54.747  0.00  0.00     0.012 A 
ATOM      8  C   UNL d   1      53.258  28.734  54.272  0.00  0.00     0.002 A 
ATOM      9  C   UNL d   1      53.058  28.817  53.470  0.00  0.00     0.012 A 
ATOM     10  C   UNL d   1      52.973  29.563  53.138  0.00  0.00     0.071 A 
ATOM     11 CL   UNL d   1      52.773  29.648  52.340  0.00  0.00    -0.082 Cl
ENDBRANCH   1   4
BRANCH   1  12
ATOM     12  N   UNL d   1      52.912  31.767  52.925  0.00  0.00    -0.152 NA
BRANCH  12  13
ATOM     13  C   UNL d   1      52.994  32.447  53.406  0.00  0.00     0.173 C 
BRANCH  13  14
ATOM     14  C   UNL d   1      52.791  33.194  53.097  0.00  0.00     0.285 C 
ATOM     15  N   UNL d   1      52.886  33.882  53.546  0.00  0.00    -0.271 N 
ATOM     16  C   UNL d   1      53.190  33.775  54.304  0.00  0.00     0.083 A 
ATOM     17  C   UNL d   1      52.667  34.575  53.178  0.00  0.00     0.083 A 
ATOM     18  C   UNL d   1      53.344  34.347  54.873  0.00  0.00     0.019 A 
ATOM     19  C   UNL d   1      53.235  35.160  54.826  0.00  0.00     0.002 A 
ATOM     20  C   UNL d   1      52.951  35.601  54.216  0.00  0.00     0.002 A 
ATOM     21  C   UNL d   1      52.695  35.345  53.476  0.00  0.00     0.019 A 
ATOM     22  O   UNL d   1      52.555  33.214  52.490  0.00  0.00    -0.265 OA
ENDBRANCH  13  14
ENDBRANCH  12  13
ENDBRANCH   1  12
TORSDOF 4
ENDMDL
