MODEL 1
REMARK VINA RESULT:      93.7      0.000      0.000
REMARK  8 active torsions:
REMARK  status: ('A' for Active; 'I' for Inactive)
REMARK    1  A    between atoms: C_8  and  N_3 
REMARK    2  A    between atoms: S_7  and  C_5 
REMARK    3  A    between atoms: C_17  and  S_7 
REMARK    4  A    between atoms: C_20  and  C_8 
REMARK    5  A    between atoms: C_9  and  C_17 
REMARK       I    between atoms: N_12  and  C_9 
REMARK    6  A    between atoms: C_11  and  C_13 
REMARK    7  A    between atoms: C_13  and  N_12 
REMARK    8  A    between atoms: O_21  and  C_15 
ROOT
ATOM      1  N   UNL d   1      61.691  47.741  49.880  0.00  0.00    -0.185 NA
ATOM      2  C   UNL d   1      61.738  46.938  50.069  0.00  0.00     0.354 A 
ATOM      3  N   UNL d   1      61.300  46.638  50.703  0.00  0.00    -0.258 N 
ATOM      4  C   UNL d   1      60.779  47.936  50.949  0.00  0.00     0.040 A 
ATOM      5  C   UNL d   1      61.212  48.240  50.320  0.00  0.00     0.117 A 
ATOM      6  C   UNL d   1      60.820  47.137  51.143  0.00  0.00     0.070 A 
ATOM      7  O   UNL d   1      62.228  46.428  49.620  0.00  0.00    -0.244 OA
ATOM      8  C   UNL d   1      60.258  48.283  51.487  0.00  0.00     0.004 A 
ATOM      9  C   UNL d   1      60.338  46.980  51.788  0.00  0.00     0.018 A 
ATOM     10  C   UNL d   1      59.985  47.705  52.001  0.00  0.00     0.002 A 
ENDROOT
BRANCH   5  11
ATOM     11  S   UNL d   1      61.165  49.044  50.130  0.00  0.00    -0.062 SA
BRANCH  11  12
ATOM     12  C   UNL d   1      60.549  49.505  50.422  0.00  0.00     0.099 C 
BRANCH  12  13
ATOM     13  C   UNL d   1      59.822  49.517  50.023  0.00  0.00     0.286 C 
ATOM     14  N   UNL d   1      59.125  49.392  50.428  0.00  0.00    -0.206 NA
ATOM     15  O   UNL d   1      59.803  49.657  49.201  0.00  0.00    -0.265 OA
BRANCH  14  16
ATOM     16  C   UNL d   1      58.399  49.404  50.029  0.00  0.00     0.104 C 
BRANCH  16  17
ATOM     17  C   UNL d   1      57.696  49.452  50.448  0.00  0.00     0.042 A 
ATOM     18  C   UNL d   1      56.974  49.297  50.074  0.00  0.00     0.096 A 
ATOM     19  C   UNL d   1      56.268  49.346  50.498  0.00  0.00     0.024 A 
ATOM     20  C   UNL d   1      56.274  49.549  51.293  0.00  0.00     0.002 A 
ATOM     21  C   UNL d   1      56.991  49.707  51.678  0.00  0.00     0.000 A 
ATOM     22  C   UNL d   1      57.709  49.659  51.256  0.00  0.00     0.004 A 
BRANCH  18  23
ATOM     23  O   UNL d   1      56.959  49.090  49.269  0.00  0.00    -0.328 OA
ATOM     24  C   UNL d   1      56.253  49.179  48.844  0.00  0.00     0.181 C 
ENDBRANCH  18  23
ENDBRANCH  16  17
ENDBRANCH  14  16
ENDBRANCH  12  13
ENDBRANCH  11  12
ENDBRANCH   5  11
BRANCH   3  25
ATOM     25  C   UNL d   1      61.346  45.834  50.893  0.00  0.00     0.085 C 
BRANCH  25  26
ATOM     26  C   UNL d   1      60.698  45.340  50.751  0.00  0.00     0.021 A 
ATOM     27  C   UNL d   1      60.032  45.394  51.227  0.00  0.00     0.022 A 
ATOM     28  C   UNL d   1      59.389  44.897  51.079  0.00  0.00     0.099 A 
ATOM     29  N   UNL d   1      59.412  44.351  50.461  0.00  0.00    -0.242 NA
ATOM     30  C   UNL d   1      60.078  44.303  49.992  0.00  0.00     0.099 A 
ATOM     31  C   UNL d   1      60.737  44.802  50.133  0.00  0.00     0.022 A 
ENDBRANCH  25  26
ENDBRANCH   3  25
TORSDOF 8
ENDMDL
