MODEL 1
REMARK VINA RESULT:      -3.5      0.000      0.000
REMARK  2 active torsions:
REMARK  status: ('A' for Active; 'I' for Inactive)
REMARK    1  A    between atoms: C_6  and  N_1 
REMARK    2  A    between atoms: C_11  and  C_6 
ROOT
ATOM      1  N   UNL d   1      31.257  16.440 -23.924  0.00  0.00    -0.251 N 
ATOM      2  C   UNL d   1      31.361  15.771 -23.441  0.00  0.00     0.378 A 
ATOM      3  C   UNL d   1      30.441  16.567 -23.999  0.00  0.00     0.092 A 
ATOM      4  O   UNL d   1      30.618  15.486 -23.218  0.00  0.00    -0.258 OA
ATOM      5  C   UNL d   1      30.042  15.981 -23.564  0.00  0.00     0.121 A 
ATOM      6  O   UNL d   1      32.088  15.453 -23.226  0.00  0.00    -0.237 OA
ATOM      7  C   UNL d   1      30.011  17.141 -24.406  0.00  0.00     0.020 A 
ATOM      8  C   UNL d   1      29.218  15.975 -23.542  0.00  0.00     0.026 A 
ATOM      9  C   UNL d   1      29.186  17.127 -24.378  0.00  0.00     0.002 A 
ATOM     10  C   UNL d   1      28.791  16.547 -23.948  0.00  0.00     0.002 A 
ATOM     11  C   UNL d   1      28.756  17.709 -24.791  0.00  0.00     0.000 C 
ENDROOT
BRANCH   1  12
ATOM     12  C   UNL d   1      31.825  16.918 -24.284  0.00  0.00     0.085 C 
BRANCH  12  13
ATOM     13  C   UNL d   1      32.255  17.453 -23.832  0.00  0.00     0.018 A 
ATOM     14  C   UNL d   1      32.812  17.180 -23.294  0.00  0.00     0.002 A 
ATOM     15  C   UNL d   1      33.241  17.725 -22.842  0.00  0.00     0.000 A 
ATOM     16  C   UNL d   1      33.107  18.534 -22.933  0.00  0.00     0.000 A 
ATOM     17  C   UNL d   1      32.547  18.800 -23.475  0.00  0.00     0.000 A 
ATOM     18  C   UNL d   1      32.119  18.261 -23.926  0.00  0.00     0.002 A 
ENDBRANCH  12  13
ENDBRANCH   1  12
TORSDOF 2
ENDMDL
MODEL 2
REMARK VINA RESULT:      -3.4      0.686      3.169
REMARK  2 active torsions:
REMARK  status: ('A' for Active; 'I' for Inactive)
REMARK    1  A    between atoms: C_6  and  N_1 
REMARK    2  A    between atoms: C_11  and  C_6 
ROOT
ATOM      1  N   UNL d   1      31.280  16.649 -24.086  0.00  0.00    -0.251 N 
ATOM      2  C   UNL d   1      31.481  16.178 -23.431  0.00  0.00     0.378 A 
ATOM      3  C   UNL d   1      31.835  17.262 -24.130  0.00  0.00     0.092 A 
ATOM      4  O   UNL d   1      32.154  16.494 -23.071  0.00  0.00    -0.258 OA
ATOM      5  C   UNL d   1      32.377  17.172 -23.505  0.00  0.00     0.121 A 
ATOM      6  O   UNL d   1      31.071  15.507 -23.188  0.00  0.00    -0.237 OA
ATOM      7  C   UNL d   1      31.917  17.891 -24.657  0.00  0.00     0.020 A 
ATOM      8  C   UNL d   1      32.995  17.711 -23.416  0.00  0.00     0.026 A 
ATOM      9  C   UNL d   1      32.539  18.426 -24.559  0.00  0.00     0.002 A 
ATOM     10  C   UNL d   1      33.075  18.336 -23.942  0.00  0.00     0.002 A 
ATOM     11  C   UNL d   1      32.617  19.059 -25.095  0.00  0.00     0.000 C 
ENDROOT
BRANCH   1  12
ATOM     12  C   UNL d   1      30.656  16.563 -24.620  0.00  0.00     0.085 C 
BRANCH  12  13
ATOM     13  C   UNL d   1      29.887  16.725 -24.381  0.00  0.00     0.018 A 
ATOM     14  C   UNL d   1      29.468  16.169 -23.947  0.00  0.00     0.002 A 
ATOM     15  C   UNL d   1      28.693  16.339 -23.709  0.00  0.00     0.000 A 
ATOM     16  C   UNL d   1      28.350  17.063 -23.907  0.00  0.00     0.000 A 
ATOM     17  C   UNL d   1      28.777  17.616 -24.341  0.00  0.00     0.000 A 
ATOM     18  C   UNL d   1      29.547  17.450 -24.580  0.00  0.00     0.002 A 
ENDBRANCH  12  13
ENDBRANCH   1  12
TORSDOF 2
ENDMDL
MODEL 3
REMARK VINA RESULT:      -2.8      1.488      2.024
REMARK  2 active torsions:
REMARK  status: ('A' for Active; 'I' for Inactive)
REMARK    1  A    between atoms: C_6  and  N_1 
REMARK    2  A    between atoms: C_11  and  C_6 
ROOT
ATOM      1  N   UNL d   1      30.679  16.808 -24.604  0.00  0.00    -0.251 N 
ATOM      2  C   UNL d   1      30.778  17.613 -24.787  0.00  0.00     0.378 A 
ATOM      3  C   UNL d   1      29.911  16.714 -24.307  0.00  0.00     0.092 A 
ATOM      4  O   UNL d   1      30.080  18.015 -24.606  0.00  0.00    -0.258 OA
ATOM      5  C   UNL d   1      29.536  17.457 -24.307  0.00  0.00     0.121 A 
ATOM      6  O   UNL d   1      31.464  17.945 -25.097  0.00  0.00    -0.237 OA
ATOM      7  C   UNL d   1      29.504  16.049 -24.038  0.00  0.00     0.020 A 
ATOM      8  C   UNL d   1      28.760  17.526 -24.037  0.00  0.00     0.026 A 
ATOM      9  C   UNL d   1      28.727  16.127 -23.770  0.00  0.00     0.002 A 
ATOM     10  C   UNL d   1      28.357  16.863 -23.769  0.00  0.00     0.002 A 
ATOM     11  C   UNL d   1      28.321  15.453 -23.499  0.00  0.00     0.000 C 
ENDROOT
BRANCH   1  12
ATOM     12  C   UNL d   1      31.213  16.183 -24.684  0.00  0.00     0.085 C 
BRANCH  12  13
ATOM     13  C   UNL d   1      31.848  16.119 -24.166  0.00  0.00     0.018 A 
ATOM     14  C   UNL d   1      32.502  16.607 -24.259  0.00  0.00     0.002 A 
ATOM     15  C   UNL d   1      33.138  16.537 -23.734  0.00  0.00     0.000 A 
ATOM     16  C   UNL d   1      33.112  15.982 -23.124  0.00  0.00     0.000 A 
ATOM     17  C   UNL d   1      32.452  15.496 -23.037  0.00  0.00     0.000 A 
ATOM     18  C   UNL d   1      31.818  15.563 -23.558  0.00  0.00     0.002 A 
ENDBRANCH  12  13
ENDBRANCH   1  12
TORSDOF 2
ENDMDL
MODEL 4
REMARK VINA RESULT:      -1.3      2.799      4.755
REMARK  2 active torsions:
REMARK  status: ('A' for Active; 'I' for Inactive)
REMARK    1  A    between atoms: C_6  and  N_1 
REMARK    2  A    between atoms: C_11  and  C_6 
ROOT
ATOM      1  N   UNL d   1      33.200  19.921 -23.115  0.00  0.00    -0.251 N 
ATOM      2  C   UNL d   1      33.199  20.449 -23.757  0.00  0.00     0.378 A 
ATOM      3  C   UNL d   1      33.150  20.372 -22.422  0.00  0.00     0.092 A 
ATOM      4  O   UNL d   1      33.148  21.221 -23.467  0.00  0.00    -0.258 OA
ATOM      5  C   UNL d   1      33.118  21.176 -22.634  0.00  0.00     0.121 A 
ATOM      6  O   UNL d   1      33.241  20.230 -24.550  0.00  0.00    -0.237 OA
ATOM      7  C   UNL d   1      33.129  20.155 -21.627  0.00  0.00     0.020 A 
ATOM      8  C   UNL d   1      33.066  21.754 -22.047  0.00  0.00     0.026 A 
ATOM      9  C   UNL d   1      33.077  20.741 -21.047  0.00  0.00     0.002 A 
ATOM     10  C   UNL d   1      33.045  21.536 -21.256  0.00  0.00     0.002 A 
ATOM     11  C   UNL d   1      33.056  20.516 -20.245  0.00  0.00     0.000 C 
ENDROOT
BRANCH   1  12
ATOM     12  C   UNL d   1      33.241  19.096 -23.117  0.00  0.00     0.085 C 
BRANCH  12  13
ATOM     13  C   UNL d   1      32.686  18.660 -23.538  0.00  0.00     0.018 A 
ATOM     14  C   UNL d   1      32.834  18.453 -24.319  0.00  0.00     0.002 A 
ATOM     15  C   UNL d   1      32.271  18.014 -24.737  0.00  0.00     0.000 A 
ATOM     16  C   UNL d   1      31.567  17.787 -24.369  0.00  0.00     0.000 A 
ATOM     17  C   UNL d   1      31.426  17.998 -23.586  0.00  0.00     0.000 A 
ATOM     18  C   UNL d   1      31.984  18.436 -23.167  0.00  0.00     0.002 A 
ENDBRANCH  12  13
ENDBRANCH   1  12
TORSDOF 2
ENDMDL
MODEL 5
REMARK VINA RESULT:      -1.2      4.151      5.674
REMARK  2 active torsions:
REMARK  status: ('A' for Active; 'I' for Inactive)
REMARK    1  A    between atoms: C_6  and  N_1 
REMARK    2  A    between atoms: C_11  and  C_6 
ROOT
ATOM      1  N   UNL d   1      33.221  21.466 -21.845  0.00  0.00    -0.251 N 
ATOM      2  C   UNL d   1      33.203  20.959 -21.187  0.00  0.00     0.378 A 
ATOM      3  C   UNL d   1      33.216  20.991 -22.524  0.00  0.00     0.092 A 
ATOM      4  O   UNL d   1      33.187  20.177 -21.453  0.00  0.00    -0.258 OA
ATOM      5  C   UNL d   1      33.195  20.194 -22.287  0.00  0.00     0.121 A 
ATOM      6  O   UNL d   1      33.202  21.205 -20.401  0.00  0.00    -0.237 OA
ATOM      7  C   UNL d   1      33.228  21.182 -23.327  0.00  0.00     0.020 A 
ATOM      8  C   UNL d   1      33.186  19.597 -22.856  0.00  0.00     0.026 A 
ATOM      9  C   UNL d   1      33.218  20.577 -23.889  0.00  0.00     0.002 A 
ATOM     10  C   UNL d   1      33.197  19.788 -23.654  0.00  0.00     0.002 A 
ATOM     11  C   UNL d   1      33.230  20.775 -24.697  0.00  0.00     0.000 C 
ENDROOT
BRANCH   1  12
ATOM     12  C   UNL d   1      33.241  22.291 -21.869  0.00  0.00     0.085 C 
BRANCH  12  13
ATOM     13  C   UNL d   1      32.632  22.725 -21.527  0.00  0.00     0.018 A 
ATOM     14  C   UNL d   1      32.617  22.838 -20.714  0.00  0.00     0.002 A 
ATOM     15  C   UNL d   1      32.001  23.276 -20.376  0.00  0.00     0.000 A 
ATOM     16  C   UNL d   1      31.409  23.594 -20.855  0.00  0.00     0.000 A 
ATOM     17  C   UNL d   1      31.431  23.477 -21.670  0.00  0.00     0.000 A 
ATOM     18  C   UNL d   1      32.043  23.042 -22.009  0.00  0.00     0.002 A 
ENDBRANCH  12  13
ENDBRANCH   1  12
TORSDOF 2
ENDMDL
MODEL 6
REMARK VINA RESULT:      -0.9      3.252      4.704
REMARK  2 active torsions:
REMARK  status: ('A' for Active; 'I' for Inactive)
REMARK    1  A    between atoms: C_6  and  N_1 
REMARK    2  A    between atoms: C_11  and  C_6 
ROOT
ATOM      1  N   UNL d   1      33.143  20.252 -22.522  0.00  0.00    -0.251 N 
ATOM      2  C   UNL d   1      33.115  20.822 -23.126  0.00  0.00     0.378 A 
ATOM      3  C   UNL d   1      33.087  19.507 -22.881  0.00  0.00     0.092 A 
ATOM      4  O   UNL d   1      33.043  20.436 -23.854  0.00  0.00    -0.258 OA
ATOM      5  C   UNL d   1      33.026  19.616 -23.704  0.00  0.00     0.121 A 
ATOM      6  O   UNL d   1      33.154  21.636 -23.010  0.00  0.00    -0.237 OA
ATOM      7  C   UNL d   1      33.085  18.745 -22.566  0.00  0.00     0.020 A 
ATOM      8  C   UNL d   1      32.962  18.961 -24.201  0.00  0.00     0.026 A 
ATOM      9  C   UNL d   1      33.021  18.095 -23.071  0.00  0.00     0.002 A 
ATOM     10  C   UNL d   1      32.960  18.203 -23.885  0.00  0.00     0.002 A 
ATOM     11  C   UNL d   1      33.019  17.328 -22.748  0.00  0.00     0.000 C 
ENDROOT
BRANCH   1  12
ATOM     12  C   UNL d   1      33.212  20.358 -21.706  0.00  0.00     0.085 C 
BRANCH  12  13
ATOM     13  C   UNL d   1      32.849  21.001 -21.345  0.00  0.00     0.018 A 
ATOM     14  C   UNL d   1      33.241  21.721 -21.304  0.00  0.00     0.002 A 
ATOM     15  C   UNL d   1      32.870  22.365 -20.939  0.00  0.00     0.000 A 
ATOM     16  C   UNL d   1      32.113  22.280 -20.621  0.00  0.00     0.000 A 
ATOM     17  C   UNL d   1      31.727  21.554 -20.666  0.00  0.00     0.000 A 
ATOM     18  C   UNL d   1      32.093  20.912 -21.028  0.00  0.00     0.002 A 
ENDBRANCH  12  13
ENDBRANCH   1  12
TORSDOF 2
ENDMDL
