MODEL 1
REMARK VINA RESULT:      12.2      0.000      0.000
REMARK  2 active torsions:
REMARK  status: ('A' for Active; 'I' for Inactive)
REMARK       I    between atoms: N_2  and  C_1 
REMARK    1  A    between atoms: C_4  and  N_2 
REMARK    2  A    between atoms: O_8  and  C_7 
ROOT
ATOM      1  C   UNL d   1      58.107  49.706  50.240  0.00  0.00     0.102 A 
ATOM      2  C   UNL d   1      58.913  49.704  50.059  0.00  0.00     0.044 A 
ATOM      3  C   UNL d   1      59.474  49.703  50.665  0.00  0.00     0.096 A 
ATOM      4  C   UNL d   1      58.421  49.708  51.633  0.00  0.00     0.004 A 
ATOM      5  C   UNL d   1      57.860  49.708  51.027  0.00  0.00     0.020 A 
ATOM      6  C   UNL d   1      59.227  49.705  51.452  0.00  0.00     0.024 A 
ENDROOT
BRANCH   1   7
ATOM      7  N   UNL d   1      57.543  49.706  49.635  0.00  0.00    -0.056 NA
ATOM      8  C   UNL d   1      56.734  49.698  49.816  0.00  0.00     0.787 C 
ATOM      9  N   UNL d   1      56.168  49.698  49.216  0.00  0.00     0.064 N 
ATOM     10  N   UNL d   1      56.498  49.689  50.608  0.00  0.00     0.064 N 
ENDBRANCH   1   7
BRANCH   3  11
ATOM     11  O   UNL d   1      60.280  49.701  50.483  0.00  0.00    -0.328 OA
ATOM     12  C   UNL d   1      60.806  49.263  50.943  0.00  0.00     0.181 C 
ENDBRANCH   3  11
TORSDOF 2
ENDMDL
MODEL 2
REMARK VINA RESULT:      12.4      2.012      3.168
REMARK  2 active torsions:
REMARK  status: ('A' for Active; 'I' for Inactive)
REMARK       I    between atoms: N_2  and  C_1 
REMARK    1  A    between atoms: C_4  and  N_2 
REMARK    2  A    between atoms: O_8  and  C_7 
ROOT
ATOM      1  C   UNL d   1      58.754  49.707  50.994  0.00  0.00     0.102 A 
ATOM      2  C   UNL d   1      57.946  49.706  51.166  0.00  0.00     0.044 A 
ATOM      3  C   UNL d   1      57.392  49.706  50.553  0.00  0.00     0.096 A 
ATOM      4  C   UNL d   1      58.457  49.707  49.597  0.00  0.00     0.004 A 
ATOM      5  C   UNL d   1      59.010  49.708  50.209  0.00  0.00     0.020 A 
ATOM      6  C   UNL d   1      57.649  49.706  49.769  0.00  0.00     0.024 A 
ENDROOT
BRANCH   1   7
ATOM      7  N   UNL d   1      59.311  49.708  51.605  0.00  0.00    -0.056 NA
ATOM      8  C   UNL d   1      60.120  49.649  51.436  0.00  0.00     0.787 C 
ATOM      9  N   UNL d   1      60.679  49.649  52.042  0.00  0.00     0.064 N 
ATOM     10  N   UNL d   1      60.364  49.589  50.648  0.00  0.00     0.064 N 
ENDBRANCH   1   7
BRANCH   3  11
ATOM     11  O   UNL d   1      56.584  49.705  50.725  0.00  0.00    -0.328 OA
ATOM     12  C   UNL d   1      56.041  49.456  50.156  0.00  0.00     0.181 C 
ENDBRANCH   3  11
TORSDOF 2
ENDMDL
