MODEL 1
REMARK VINA RESULT:      -2.9      0.000      0.000
REMARK  4 active torsions:
REMARK  status: ('A' for Active; 'I' for Inactive)
REMARK    1  A    between atoms: C_8  and  C_1 
REMARK    2  A    between atoms: N_11  and  C_9 
REMARK    3  A    between atoms: C_15  and  N_11 
REMARK    4  A    between atoms: C_16  and  N_11 
ROOT
ATOM      1  C   UNL d   1      29.382  16.395 -24.133  0.00  0.00     0.102 A 
ATOM      2  C   UNL d   1      29.237  17.177 -24.396  0.00  0.00     0.303 A 
ATOM      3  C   UNL d   1      30.155  16.175 -23.942  0.00  0.00     0.011 A 
ATOM      4  O   UNL d   1      29.871  17.702 -24.457  0.00  0.00    -0.273 OA
ATOM      5  C   UNL d   1      30.635  17.480 -24.267  0.00  0.00     0.105 A 
ATOM      6  C   UNL d   1      30.781  16.698 -24.004  0.00  0.00     0.023 A 
ATOM      7  C   UNL d   1      31.245  17.999 -24.330  0.00  0.00     0.042 A 
ATOM      8  C   UNL d   1      32.013  17.779 -24.140  0.00  0.00     0.066 A 
ATOM      9  O   UNL d   1      28.465  17.417 -24.593  0.00  0.00    -0.259 OA
ATOM     10  C   UNL d   1      31.528  16.473 -23.816  0.00  0.00     0.004 A 
ATOM     11  C   UNL d   1      32.158  16.996 -23.877  0.00  0.00     0.018 A 
ENDROOT
BRANCH   8  12
ATOM     12  N   UNL d   1      32.636  18.321 -24.208  0.00  0.00    -0.304 N 
BRANCH  12  13
ATOM     13  C   UNL d   1      33.079  18.517 -23.532  0.00  0.00     0.080 C 
ATOM     14  C   UNL d   1      33.241  19.320 -23.365  0.00  0.00     0.021 C 
ENDBRANCH  12  13
BRANCH  12  15
ATOM     15  C   UNL d   1      32.812  18.659 -24.927  0.00  0.00     0.080 C 
ATOM     16  C   UNL d   1      33.241  19.341 -24.977  0.00  0.00     0.021 C 
ENDBRANCH  12  15
ENDBRANCH   8  12
BRANCH   1  17
ATOM     17  C   UNL d   1      28.756  15.852 -24.065  0.00  0.00     0.201 C 
ATOM     18  O   UNL d   1      28.461  15.463 -24.743  0.00  0.00    -0.286 OA
ATOM     19  C   UNL d   1      28.427  15.702 -23.320  0.00  0.00     0.045 C 
ENDBRANCH   1  17
TORSDOF 4
ENDMDL
MODEL 2
REMARK VINA RESULT:      -2.1      1.800      2.563
REMARK  4 active torsions:
REMARK  status: ('A' for Active; 'I' for Inactive)
REMARK    1  A    between atoms: C_8  and  C_1 
REMARK    2  A    between atoms: N_11  and  C_9 
REMARK    3  A    between atoms: C_15  and  N_11 
REMARK    4  A    between atoms: C_16  and  N_11 
ROOT
ATOM      1  C   UNL d   1      31.806  16.753 -24.010  0.00  0.00     0.102 A 
ATOM      2  C   UNL d   1      31.489  17.381 -24.465  0.00  0.00     0.303 A 
ATOM      3  C   UNL d   1      32.321  16.931 -23.389  0.00  0.00     0.011 A 
ATOM      4  O   UNL d   1      31.701  18.157 -24.277  0.00  0.00    -0.273 OA
ATOM      5  C   UNL d   1      32.211  18.329 -23.661  0.00  0.00     0.105 A 
ATOM      6  C   UNL d   1      32.529  17.700 -23.207  0.00  0.00     0.023 A 
ATOM      7  C   UNL d   1      32.411  19.087 -23.488  0.00  0.00     0.042 A 
ATOM      8  C   UNL d   1      32.923  19.261 -22.870  0.00  0.00     0.066 A 
ATOM      9  O   UNL d   1      30.968  17.223 -25.094  0.00  0.00    -0.259 OA
ATOM     10  C   UNL d   1      33.031  17.861 -22.600  0.00  0.00     0.004 A 
ATOM     11  C   UNL d   1      33.241  18.633 -22.415  0.00  0.00     0.018 A 
ENDROOT
BRANCH   8  12
ATOM     12  N   UNL d   1      33.124  20.047 -22.698  0.00  0.00    -0.304 N 
BRANCH  12  13
ATOM     13  C   UNL d   1      33.241  20.583 -23.324  0.00  0.00     0.080 C 
ATOM     14  C   UNL d   1      33.221  21.404 -23.172  0.00  0.00     0.021 C 
ENDBRANCH  12  13
BRANCH  12  15
ATOM     15  C   UNL d   1      33.205  20.292 -21.928  0.00  0.00     0.080 C 
ATOM     16  C   UNL d   1      32.824  20.949 -21.653  0.00  0.00     0.021 C 
ENDBRANCH  12  15
ENDBRANCH   8  12
BRANCH   1  17
ATOM     17  C   UNL d   1      31.604  15.966 -24.184  0.00  0.00     0.201 C 
ATOM     18  O   UNL d   1      30.913  15.627 -23.859  0.00  0.00    -0.286 OA
ATOM     19  C   UNL d   1      32.094  15.522 -24.682  0.00  0.00     0.045 C 
ENDBRANCH   1  17
TORSDOF 4
ENDMDL
MODEL 3
REMARK VINA RESULT:      -2.0      1.692      4.141
REMARK  4 active torsions:
REMARK  status: ('A' for Active; 'I' for Inactive)
REMARK    1  A    between atoms: C_8  and  C_1 
REMARK    2  A    between atoms: N_11  and  C_9 
REMARK    3  A    between atoms: C_15  and  N_11 
REMARK    4  A    between atoms: C_16  and  N_11 
ROOT
ATOM      1  C   UNL d   1      32.234  18.104 -24.123  0.00  0.00     0.102 A 
ATOM      2  C   UNL d   1      32.397  17.396 -23.704  0.00  0.00     0.303 A 
ATOM      3  C   UNL d   1      31.490  18.202 -24.466  0.00  0.00     0.011 A 
ATOM      4  O   UNL d   1      31.807  16.820 -23.650  0.00  0.00    -0.273 OA
ATOM      5  C   UNL d   1      31.071  16.921 -23.992  0.00  0.00     0.105 A 
ATOM      6  C   UNL d   1      30.909  17.629 -24.410  0.00  0.00     0.023 A 
ATOM      7  C   UNL d   1      30.506  16.354 -23.932  0.00  0.00     0.042 A 
ATOM      8  C   UNL d   1      29.766  16.454 -24.275  0.00  0.00     0.066 A 
ATOM      9  O   UNL d   1      33.141  17.278 -23.351  0.00  0.00    -0.259 OA
ATOM     10  C   UNL d   1      30.188  17.736 -24.749  0.00  0.00     0.004 A 
ATOM     11  C   UNL d   1      29.603  17.162 -24.693  0.00  0.00     0.018 A 
ENDROOT
BRANCH   8  12
ATOM     12  N   UNL d   1      29.188  15.863 -24.208  0.00  0.00    -0.304 N 
BRANCH  12  13
ATOM     13  C   UNL d   1      28.863  15.695 -23.462  0.00  0.00     0.080 C 
ATOM     14  C   UNL d   1      28.038  15.587 -23.387  0.00  0.00     0.021 C 
ENDBRANCH  12  13
BRANCH  12  15
ATOM     15  C   UNL d   1      28.941  15.453 -24.865  0.00  0.00     0.080 C 
ATOM     16  C   UNL d   1      28.167  15.455 -25.096  0.00  0.00     0.021 C 
ENDBRANCH  12  15
ENDBRANCH   8  12
BRANCH   1  17
ATOM     17  C   UNL d   1      32.815  18.695 -24.188  0.00  0.00     0.201 C 
ATOM     18  O   UNL d   1      32.967  19.208 -23.547  0.00  0.00    -0.286 OA
ATOM     19  C   UNL d   1      33.241  18.768 -24.894  0.00  0.00     0.045 C 
ENDBRANCH   1  17
TORSDOF 4
ENDMDL
MODEL 4
REMARK VINA RESULT:      -1.5      3.275      4.949
REMARK  4 active torsions:
REMARK  status: ('A' for Active; 'I' for Inactive)
REMARK    1  A    between atoms: C_8  and  C_1 
REMARK    2  A    between atoms: N_11  and  C_9 
REMARK    3  A    between atoms: C_15  and  N_11 
REMARK    4  A    between atoms: C_16  and  N_11 
ROOT
ATOM      1  C   UNL d   1      32.955  20.931 -21.660  0.00  0.00     0.102 A 
ATOM      2  C   UNL d   1      33.076  20.302 -21.121  0.00  0.00     0.303 A 
ATOM      3  C   UNL d   1      32.884  20.759 -22.465  0.00  0.00     0.011 A 
ATOM      4  O   UNL d   1      33.120  19.530 -21.412  0.00  0.00    -0.273 OA
ATOM      5  C   UNL d   1      33.048  19.364 -22.209  0.00  0.00     0.105 A 
ATOM      6  C   UNL d   1      32.927  19.994 -22.749  0.00  0.00     0.023 A 
ATOM      7  C   UNL d   1      33.093  18.609 -22.480  0.00  0.00     0.042 A 
ATOM      8  C   UNL d   1      33.021  18.440 -23.281  0.00  0.00     0.066 A 
ATOM      9  O   UNL d   1      33.151  20.455 -20.307  0.00  0.00    -0.259 OA
ATOM     10  C   UNL d   1      32.856  19.838 -23.534  0.00  0.00     0.004 A 
ATOM     11  C   UNL d   1      32.900  19.070 -23.821  0.00  0.00     0.018 A 
ENDROOT
BRANCH   8  12
ATOM     12  N   UNL d   1      33.068  17.658 -23.552  0.00  0.00    -0.304 N 
BRANCH  12  13
ATOM     13  C   UNL d   1      32.938  17.499 -24.358  0.00  0.00     0.080 C 
ATOM     14  C   UNL d   1      33.240  16.796 -24.692  0.00  0.00     0.021 C 
ENDBRANCH  12  13
BRANCH  12  15
ATOM     15  C   UNL d   1      33.239  17.053 -23.037  0.00  0.00     0.080 C 
ATOM     16  C   UNL d   1      32.831  16.356 -23.057  0.00  0.00     0.021 C 
ENDBRANCH  12  15
ENDBRANCH   8  12
BRANCH   1  17
ATOM     17  C   UNL d   1      32.909  21.715 -21.386  0.00  0.00     0.201 C 
ATOM     18  O   UNL d   1      33.237  22.338 -21.835  0.00  0.00    -0.286 OA
ATOM     19  C   UNL d   1      32.533  21.870 -20.665  0.00  0.00     0.045 C 
ENDBRANCH   1  17
TORSDOF 4
ENDMDL
MODEL 5
REMARK VINA RESULT:      -0.7      5.551      6.817
REMARK  4 active torsions:
REMARK  status: ('A' for Active; 'I' for Inactive)
REMARK    1  A    between atoms: C_8  and  C_1 
REMARK    2  A    between atoms: N_11  and  C_9 
REMARK    3  A    between atoms: C_15  and  N_11 
REMARK    4  A    between atoms: C_16  and  N_11 
ROOT
ATOM      1  C   UNL d   1      32.905  22.615 -20.135  0.00  0.00     0.102 A 
ATOM      2  C   UNL d   1      32.861  21.827 -20.418  0.00  0.00     0.303 A 
ATOM      3  C   UNL d   1      32.977  23.231 -20.680  0.00  0.00     0.011 A 
ATOM      4  O   UNL d   1      32.891  21.694 -21.232  0.00  0.00    -0.273 OA
ATOM      5  C   UNL d   1      32.962  22.307 -21.769  0.00  0.00     0.105 A 
ATOM      6  C   UNL d   1      33.006  23.095 -21.486  0.00  0.00     0.023 A 
ATOM      7  C   UNL d   1      32.990  22.165 -22.559  0.00  0.00     0.042 A 
ATOM      8  C   UNL d   1      33.062  22.780 -23.099  0.00  0.00     0.066 A 
ATOM      9  O   UNL d   1      32.789  21.193 -19.885  0.00  0.00    -0.259 OA
ATOM     10  C   UNL d   1      33.076  23.702 -22.006  0.00  0.00     0.004 A 
ATOM     11  C   UNL d   1      33.105  23.567 -22.816  0.00  0.00     0.018 A 
ENDROOT
BRANCH   8  12
ATOM     12  N   UNL d   1      33.090  22.624 -23.913  0.00  0.00    -0.304 N 
BRANCH  12  13
ATOM     13  C   UNL d   1      33.241  23.248 -24.441  0.00  0.00     0.080 C 
ATOM     14  C   UNL d   1      32.622  23.541 -24.919  0.00  0.00     0.021 C 
ENDBRANCH  12  13
BRANCH  12  15
ATOM     15  C   UNL d   1      32.971  21.869 -24.192  0.00  0.00     0.080 C 
ATOM     16  C   UNL d   1      33.201  21.656 -24.937  0.00  0.00     0.021 C 
ENDBRANCH  12  15
ENDBRANCH   8  12
BRANCH   1  17
ATOM     17  C   UNL d   1      32.877  22.769 -19.319  0.00  0.00     0.201 C 
ATOM     18  O   UNL d   1      33.214  22.231 -18.777  0.00  0.00    -0.286 OA
ATOM     19  C   UNL d   1      32.510  23.461 -19.049  0.00  0.00     0.045 C 
ENDBRANCH   1  17
TORSDOF 4
ENDMDL
