MODEL 1
REMARK VINA RESULT:      88.2      0.000      0.000
REMARK  5 active torsions:
REMARK  status: ('A' for Active; 'I' for Inactive)
REMARK    1  A    between atoms: C_12  and  N_3 
REMARK    2  A    between atoms: C_11  and  C_5 
REMARK       I    between atoms: N_16  and  C_11 
REMARK    3  A    between atoms: C_15  and  C_12 
REMARK    4  A    between atoms: C_26  and  N_16 
REMARK    5  A    between atoms: C_27  and  C_26 
ROOT
ATOM      1  C   UNL d   1     -57.783 -98.945 -44.559  0.00  0.00     0.155 A 
ATOM      2  C   UNL d   1     -57.259 -99.096 -45.179  0.00  0.00     0.091 A 
ATOM      3  N   UNL d   1     -57.519 -98.907 -43.787  0.00  0.00    -0.272 N 
ATOM      4  N   UNL d   1     -58.588 -98.832 -44.727  0.00  0.00    -0.210 NA
ATOM      5  C   UNL d   1     -56.185 -99.171 -44.233  0.00  0.00     0.094 A 
ATOM      6  C   UNL d   1     -56.714 -99.021 -43.619  0.00  0.00     0.175 A 
ATOM      7  C   UNL d   1     -57.528 -99.133 -45.955  0.00  0.00     0.269 A 
ATOM      8  N   UNL d   1     -58.327 -99.020 -46.119  0.00  0.00    -0.258 N 
ATOM      9  C   UNL d   1     -58.857 -98.869 -45.505  0.00  0.00     0.152 A 
ATOM     10  C   UNL d   1     -56.460 -99.209 -45.015  0.00  0.00     0.016 A 
ATOM     11  N   UNL d   1     -56.447 -98.982 -42.833  0.00  0.00    -0.128 N 
ATOM     12  C   UNL d   1     -58.596 -99.058 -46.895  0.00  0.00     0.084 A 
ATOM     13  O   UNL d   1     -56.998 -99.284 -46.569  0.00  0.00    -0.266 OA
ATOM     14  C   UNL d   1     -59.656 -98.756 -45.667  0.00  0.00     0.038 A 
ATOM     15  C   UNL d   1     -59.398 -98.945 -47.062  0.00  0.00     0.019 A 
ATOM     16  C   UNL d   1     -59.928 -98.794 -46.448  0.00  0.00     0.005 A 
ENDROOT
BRANCH   5  17
ATOM     17  C   UNL d   1     -55.382 -99.285 -44.067  0.00  0.00     0.282 C 
ATOM     18  N   UNL d   1     -54.979 -99.923 -44.395  0.00  0.00    -0.206 NA
ATOM     19  O   UNL d   1     -54.979 -98.762 -43.572  0.00  0.00    -0.265 OA
BRANCH  18  20
ATOM     20  C   UNL d   1     -55.374-100.451 -44.891  0.00  0.00     0.102 C 
BRANCH  20  21
ATOM     21  C   UNL d   1     -55.182-101.255 -44.888  0.00  0.00     0.019 A 
ATOM     22  C   UNL d   1     -55.120-101.649 -44.163  0.00  0.00     0.002 A 
ATOM     23  C   UNL d   1     -54.927-102.457 -44.149  0.00  0.00     0.000 A 
ATOM     24  C   UNL d   1     -54.798-102.864 -44.864  0.00  0.00     0.000 A 
ATOM     25  C   UNL d   1     -54.862-102.459 -45.586  0.00  0.00     0.000 A 
ATOM     26  C   UNL d   1     -55.053-101.658 -45.597  0.00  0.00     0.002 A 
ENDBRANCH  20  21
ENDBRANCH  18  20
ENDBRANCH   5  17
BRANCH   3  27
ATOM     27  C   UNL d   1     -58.049 -98.756 -43.173  0.00  0.00     0.107 C 
BRANCH  27  28
ATOM     28  C   UNL d   1     -58.735 -99.204 -43.101  0.00  0.00     0.118 A 
ATOM     29  O   UNL d   1     -59.341 -98.961 -42.588  0.00  0.00    -0.304 OA
ATOM     30  C   UNL d   1     -59.957 -99.519 -42.633  0.00  0.00     0.123 A 
ATOM     31  C   UNL d   1     -59.728-100.094 -43.166  0.00  0.00     0.029 A 
ATOM     32  C   UNL d   1     -58.979 -99.910 -43.459  0.00  0.00     0.028 A 
ENDBRANCH  27  28
ENDBRANCH   3  27
TORSDOF 5
ENDMDL
