MODEL 1
REMARK VINA RESULT:      -9.9      0.000      0.000
REMARK  5 active torsions:
REMARK  status: ('A' for Active; 'I' for Inactive)
REMARK    1  A    between atoms: S_5  and  C_2 
REMARK    2  A    between atoms: C_16  and  S_5 
REMARK    3  A    between atoms: N_13  and  C_10 
REMARK    4  A    between atoms: C_23  and  N_13 
REMARK    5  A    between atoms: C_18  and  C_23 
ROOT
ATOM      1  C   UNL d   1      52.916  34.164  53.989  0.00  0.00     0.198 A 
ATOM      2  C   UNL d   1      52.394  34.728  53.695  0.00  0.00     0.227 A 
ATOM      3  N   UNL d   1      53.478  34.553  54.449  0.00  0.00    -0.192 N 
ATOM      4  N   UNL d   1      52.952  33.345  53.898  0.00  0.00    -0.205 NA
ATOM      5  N   UNL d   1      52.629  35.463  53.968  0.00  0.00    -0.115 NA
ATOM      6  N   UNL d   1      53.300  35.361  54.437  0.00  0.00    -0.058 NA
ATOM      7  C   UNL d   1      54.075  34.123  54.817  0.00  0.00     0.096 A 
ATOM      8  C   UNL d   1      54.111  33.304  54.726  0.00  0.00     0.083 A 
ATOM      9  C   UNL d   1      53.554  32.910  54.268  0.00  0.00     0.172 A 
ATOM     10  S   UNL d   1      54.767  33.020  55.157  0.00  0.00    -0.082 SA
ATOM     11  C   UNL d   1      54.708  34.361  55.306  0.00  0.00     0.027 A 
ATOM     12  C   UNL d   1      55.135  33.676  55.515  0.00  0.00     0.037 A 
ENDROOT
BRANCH   2  13
ATOM     13  S   UNL d   1      51.740  34.578  53.203  0.00  0.00     0.231 S 
ATOM     14  O   UNL d   1      51.271  34.368  53.856  0.00  0.00    -0.215 OA
ATOM     15  O   UNL d   1      52.213  34.788  52.555  0.00  0.00    -0.215 OA
BRANCH  13  16
ATOM     16  C   UNL d   1      51.112  34.438  52.682  0.00  0.00     0.090 A 
ATOM     17  C   UNL d   1      51.254  34.251  51.895  0.00  0.00     0.011 A 
ATOM     18  C   UNL d   1      50.628  34.112  51.377  0.00  0.00     0.001 A 
ATOM     19  C   UNL d   1      49.849  34.161  51.650  0.00  0.00     0.000 A 
ATOM     20  C   UNL d   1      49.701  34.352  52.452  0.00  0.00     0.001 A 
ATOM     21  C   UNL d   1      50.340  34.490  52.966  0.00  0.00     0.011 A 
ENDBRANCH  13  16
ENDBRANCH   2  13
BRANCH   9  22
ATOM     22  N   UNL d   1      53.590  32.083  54.176  0.00  0.00    -0.223 NA
BRANCH  22  23
ATOM     23  C   UNL d   1      53.369  31.737  53.462  0.00  0.00     0.125 C 
BRANCH  23  24
ATOM     24  C   UNL d   1      53.215  30.928  53.425  0.00  0.00     0.119 A 
ATOM     25  O   UNL d   1      53.556  30.345  53.894  0.00  0.00    -0.304 OA
ATOM     26  C   UNL d   1      53.240  29.612  53.668  0.00  0.00     0.123 A 
ATOM     27  C   UNL d   1      52.701  29.743  53.057  0.00  0.00     0.029 A 
ATOM     28  C   UNL d   1      52.685  30.556  52.907  0.00  0.00     0.028 A 
ENDBRANCH  23  24
ENDBRANCH  22  23
ENDBRANCH   9  22
TORSDOF 5
ENDMDL
MODEL 2
REMARK VINA RESULT:      -8.9      1.123      3.809
REMARK  5 active torsions:
REMARK  status: ('A' for Active; 'I' for Inactive)
REMARK    1  A    between atoms: S_5  and  C_2 
REMARK    2  A    between atoms: C_16  and  S_5 
REMARK    3  A    between atoms: N_13  and  C_10 
REMARK    4  A    between atoms: C_23  and  N_13 
REMARK    5  A    between atoms: C_18  and  C_23 
ROOT
ATOM      1  C   UNL d   1      53.439  33.240  54.207  0.00  0.00     0.198 A 
ATOM      2  C   UNL d   1      53.818  32.520  54.330  0.00  0.00     0.227 A 
ATOM      3  N   UNL d   1      53.817  33.809  54.666  0.00  0.00    -0.192 N 
ATOM      4  N   UNL d   1      52.797  33.450  53.734  0.00  0.00    -0.205 NA
ATOM      5  N   UNL d   1      54.429  32.640  54.863  0.00  0.00    -0.115 NA
ATOM      6  N   UNL d   1      54.433  33.437  55.075  0.00  0.00    -0.058 NA
ATOM      7  C   UNL d   1      53.553  34.588  54.653  0.00  0.00     0.096 A 
ATOM      8  C   UNL d   1      52.911  34.799  54.180  0.00  0.00     0.083 A 
ATOM      9  C   UNL d   1      52.530  34.236  53.719  0.00  0.00     0.172 A 
ATOM     10  S   UNL d   1      52.770  35.616  54.277  0.00  0.00    -0.082 SA
ATOM     11  C   UNL d   1      53.821  35.271  55.051  0.00  0.00     0.027 A 
ATOM     12  C   UNL d   1      53.334  35.905  54.817  0.00  0.00     0.037 A 
ENDROOT
BRANCH   2  13
ATOM     13  S   UNL d   1      53.617  31.795  53.976  0.00  0.00     0.231 S 
ATOM     14  O   UNL d   1      54.054  31.984  53.294  0.00  0.00    -0.215 OA
ATOM     15  O   UNL d   1      53.183  31.613  54.657  0.00  0.00    -0.215 OA
BRANCH  13  16
ATOM     16  C   UNL d   1      53.396  31.065  53.655  0.00  0.00     0.090 A 
ATOM     17  C   UNL d   1      53.111  31.013  52.886  0.00  0.00     0.011 A 
ATOM     18  C   UNL d   1      52.891  30.286  52.567  0.00  0.00     0.001 A 
ATOM     19  C   UNL d   1      52.956  29.599  53.024  0.00  0.00     0.000 A 
ATOM     20  C   UNL d   1      53.246  29.649  53.808  0.00  0.00     0.001 A 
ATOM     21  C   UNL d   1      53.465  30.387  54.120  0.00  0.00     0.011 A 
ENDBRANCH  13  16
ENDBRANCH   2  13
BRANCH   9  22
ATOM     22  N   UNL d   1      51.882  34.448  53.241  0.00  0.00    -0.223 NA
BRANCH  22  23
ATOM     23  C   UNL d   1      51.264  33.916  53.122  0.00  0.00     0.125 C 
BRANCH  23  24
ATOM     24  C   UNL d   1      50.611  34.135  52.668  0.00  0.00     0.119 A 
ATOM     25  O   UNL d   1      49.917  34.477  52.947  0.00  0.00    -0.304 OA
ATOM     26  C   UNL d   1      49.413  34.604  52.300  0.00  0.00     0.123 A 
ATOM     27  C   UNL d   1      49.797  34.339  51.620  0.00  0.00     0.029 A 
ATOM     28  C   UNL d   1      50.538  34.049  51.847  0.00  0.00     0.028 A 
ENDBRANCH  23  24
ENDBRANCH  22  23
ENDBRANCH   9  22
TORSDOF 5
ENDMDL
