MODEL 1
REMARK VINA RESULT:      10.0      0.000      0.000
REMARK  5 active torsions:
REMARK  status: ('A' for Active; 'I' for Inactive)
REMARK    1  A    between atoms: C_6  and  C_1 
REMARK    2  A    between atoms: C_9  and  C_5 
REMARK       I    between atoms: N_13  and  C_6 
REMARK    3  A    between atoms: C_7  and  C_15 
REMARK    4  A    between atoms: N_10  and  N_13 
REMARK    5  A    between atoms: C_15  and  N_10 
ROOT
ATOM      1  C   UNL d   1     -41.372-122.035 -51.447  0.00  0.00     0.316 C 
ATOM      2  N   UNL d   1     -41.311-122.901 -51.015  0.00  0.00    -0.104 NA
ATOM      3  O   UNL d   1     -41.250-121.381 -50.966  0.00  0.00    -0.262 OA
ENDROOT
BRANCH   1   4
ATOM      4  C   UNL d   1     -41.533-121.924 -52.242  0.00  0.00     0.164 A 
ATOM      5  C   UNL d   1     -41.951-122.497 -52.656  0.00  0.00     0.047 A 
ATOM      6  C   UNL d   1     -41.864-121.719 -53.831  0.00  0.00     0.105 A 
ATOM      7  N   UNL d   1     -41.446-121.146 -53.417  0.00  0.00    -0.148 NA
ATOM      8  N   UNL d   1     -41.279-121.248 -52.620  0.00  0.00    -0.143 NA
BRANCH   6   9
ATOM      9  C   UNL d   1     -42.123-121.806 -54.602  0.00  0.00     0.019 A 
ATOM     10  C   UNL d   1     -41.829-121.311 -55.183  0.00  0.00     0.002 A 
ATOM     11  C   UNL d   1     -42.088-121.395 -55.960  0.00  0.00     0.000 A 
ATOM     12  C   UNL d   1     -41.797-120.904 -56.543  0.00  0.00     0.000 A 
ATOM     13  C   UNL d   1     -42.641-121.978 -56.145  0.00  0.00     0.000 A 
ATOM     14  C   UNL d   1     -42.053-120.987 -57.311  0.00  0.00     0.000 A 
ATOM     15  C   UNL d   1     -42.605-121.566 -57.506  0.00  0.00     0.000 A 
ATOM     16  C   UNL d   1     -42.898-122.060 -56.925  0.00  0.00     0.000 A 
ATOM     17  C   UNL d   1     -42.924-122.461 -55.561  0.00  0.00     0.000 A 
ATOM     18  C   UNL d   1     -42.665-122.375 -54.789  0.00  0.00     0.002 A 
ENDBRANCH   6   9
ENDBRANCH   1   4
BRANCH   2  19
ATOM     19  N   UNL d   1     -41.123-123.165 -50.066  0.00  0.00    -0.143 NA
BRANCH  19  20
ATOM     20  C   UNL d   1     -41.562-123.804 -49.697  0.00  0.00     0.126 C 
BRANCH  20  21
ATOM     21  C   UNL d   1     -42.233-123.626 -49.183  0.00  0.00     0.060 A 
ATOM     22  C   UNL d   1     -42.108-123.442 -48.352  0.00  0.00     0.005 A 
ATOM     23  C   UNL d   1     -42.779-123.265 -47.838  0.00  0.00     0.000 A 
ATOM     24  C   UNL d   1     -41.303-123.434 -48.027  0.00  0.00     0.000 A 
ATOM     25  C   UNL d   1     -42.651-123.079 -46.998  0.00  0.00     0.000 A 
ATOM     26  C   UNL d   1     -43.586-123.271 -48.153  0.00  0.00     0.003 A 
ATOM     27  C   UNL d   1     -41.848-123.072 -46.677  0.00  0.00     0.000 A 
ATOM     28  C   UNL d   1     -41.175-123.248 -47.187  0.00  0.00     0.000 A 
ATOM     29  C   UNL d   1     -43.705-123.457 -48.990  0.00  0.00     0.042 A 
ATOM     30  C   UNL d   1     -43.032-123.634 -49.505  0.00  0.00     0.197 A 
ATOM     31  O   UNL d   1     -43.158-123.817 -50.331  0.00  0.00    -0.286 OA
ENDBRANCH  20  21
ENDBRANCH  19  20
ENDBRANCH   2  19
TORSDOF 5
ENDMDL
