MODEL 1
REMARK VINA RESULT:      66.7      0.000      0.000
REMARK  4 active torsions:
REMARK  status: ('A' for Active; 'I' for Inactive)
REMARK    1  A    between atoms: C_13  and  N_3 
REMARK    2  A    between atoms: C_11  and  C_6 
REMARK    3  A    between atoms: O_22  and  C_11 
REMARK    4  A    between atoms: C_21  and  C_13 
ROOT
ATOM      1  C   UNL d   1      46.250 -18.466  42.554  0.00  0.00     0.155 A 
ATOM      2  C   UNL d   1      45.989 -17.864  42.057  0.00  0.00     0.091 A 
ATOM      3  N   UNL d   1      46.386 -19.219  42.254  0.00  0.00    -0.274 N 
ATOM      4  N   UNL d   1      46.375 -18.313  43.355  0.00  0.00    -0.210 NA
ATOM      5  N   UNL d   1      45.977 -16.956  43.156  0.00  0.00    -0.258 N 
ATOM      6  C   UNL d   1      46.003 -18.778  40.957  0.00  0.00     0.100 A 
ATOM      7  C   UNL d   1      46.238 -17.556  43.662  0.00  0.00     0.152 A 
ATOM      8  C   UNL d   1      46.264 -19.375  41.460  0.00  0.00     0.175 A 
ATOM      9  C   UNL d   1      45.849 -17.103  42.350  0.00  0.00     0.269 A 
ATOM     10  C   UNL d   1      45.863 -18.016  41.250  0.00  0.00     0.016 A 
ATOM     11  C   UNL d   1      46.362 -17.403  44.458  0.00  0.00     0.035 A 
ATOM     12  C   UNL d   1      45.838 -16.192  43.458  0.00  0.00     0.084 A 
ATOM     13  N   UNL d   1      46.401 -20.135  41.156  0.00  0.00    -0.128 N 
ATOM     14  O   UNL d   1      45.589 -16.501  41.853  0.00  0.00    -0.266 OA
ATOM     15  C   UNL d   1      45.965 -16.048  44.261  0.00  0.00     0.019 A 
ATOM     16  C   UNL d   1      46.227 -16.653  44.761  0.00  0.00     0.005 A 
ATOM     17  C   UNL d   1      46.624 -18.013  44.951  0.00  0.00     0.003 C 
ENDROOT
BRANCH   3  18
ATOM     18  C   UNL d   1      46.646 -19.818  42.754  0.00  0.00     0.084 C 
BRANCH  18  19
ATOM     19  C   UNL d   1      46.229 -19.989  43.448  0.00  0.00     0.037 A 
ATOM     20  C   UNL d   1      45.419 -20.088  43.419  0.00  0.00     0.100 A 
ATOM     21  N   UNL d   1      44.997 -20.259  44.107  0.00  0.00    -0.242 NA
ATOM     22  C   UNL d   1      45.402 -20.327  44.820  0.00  0.00     0.099 A 
ATOM     23  C   UNL d   1      46.221 -20.227  44.850  0.00  0.00     0.021 A 
ATOM     24  C   UNL d   1      46.631 -20.058  44.158  0.00  0.00     0.005 A 
ENDBRANCH  18  19
ENDBRANCH   3  18
BRANCH   6  25
ATOM     25  C   UNL d   1      45.879 -18.931  40.156  0.00  0.00     0.299 C 
ATOM     26  O   UNL d   1      46.353 -19.485  39.754  0.00  0.00    -0.259 OA
BRANCH  25  27
ATOM     27  O   UNL d   1      45.284 -18.537  39.749  0.00  0.00    -0.296 OA
ATOM     28  C   UNL d   1      45.347 -18.411  38.935  0.00  0.00     0.185 C 
ENDBRANCH  25  27
ENDBRANCH   6  25
TORSDOF 4
ENDMDL
MODEL 2
REMARK VINA RESULT:      67.6      2.563      4.485
REMARK  4 active torsions:
REMARK  status: ('A' for Active; 'I' for Inactive)
REMARK    1  A    between atoms: C_13  and  N_3 
REMARK    2  A    between atoms: C_11  and  C_6 
REMARK    3  A    between atoms: O_22  and  C_11 
REMARK    4  A    between atoms: C_21  and  C_13 
ROOT
ATOM      1  C   UNL d   1      45.678 -14.857  43.705  0.00  0.00     0.155 A 
ATOM      2  C   UNL d   1      46.057 -15.073  43.007  0.00  0.00     0.091 A 
ATOM      3  N   UNL d   1      45.474 -15.430  44.258  0.00  0.00    -0.274 N 
ATOM      4  N   UNL d   1      45.502 -14.063  43.850  0.00  0.00    -0.210 NA
ATOM      5  N   UNL d   1      46.086 -13.707  42.596  0.00  0.00    -0.258 N 
ATOM      6  C   UNL d   1      46.026 -16.440  43.423  0.00  0.00     0.100 A 
ATOM      7  C   UNL d   1      45.705 -13.483  43.295  0.00  0.00     0.152 A 
ATOM      8  C   UNL d   1      45.647 -16.217  44.119  0.00  0.00     0.175 A 
ATOM      9  C   UNL d   1      46.266 -14.503  42.444  0.00  0.00     0.269 A 
ATOM     10  C   UNL d   1      46.235 -15.871  42.860  0.00  0.00     0.016 A 
ATOM     11  C   UNL d   1      45.531 -12.695  43.437  0.00  0.00     0.035 A 
ATOM     12  C   UNL d   1      46.294 -13.129  42.034  0.00  0.00     0.084 A 
ATOM     13  N   UNL d   1      45.441 -16.796  44.677  0.00  0.00    -0.128 N 
ATOM     14  O   UNL d   1      46.646 -14.719  41.747  0.00  0.00    -0.266 OA
ATOM     15  C   UNL d   1      46.114 -12.338  42.187  0.00  0.00     0.019 A 
ATOM     16  C   UNL d   1      45.733 -12.120  42.888  0.00  0.00     0.005 A 
ATOM     17  C   UNL d   1      45.150 -12.485  44.141  0.00  0.00     0.003 C 
ENDROOT
BRANCH   3  18
ATOM     18  C   UNL d   1      45.095 -15.210  44.954  0.00  0.00     0.084 C 
BRANCH  18  19
ATOM     19  C   UNL d   1      44.281 -15.059  44.953  0.00  0.00     0.037 A 
ATOM     20  C   UNL d   1      43.754 -15.682  44.952  0.00  0.00     0.100 A 
ATOM     21  N   UNL d   1      42.942 -15.539  44.951  0.00  0.00    -0.242 NA
ATOM     22  C   UNL d   1      42.671 -14.762  44.950  0.00  0.00     0.099 A 
ATOM     23  C   UNL d   1      43.203 -14.131  44.951  0.00  0.00     0.021 A 
ATOM     24  C   UNL d   1      44.011 -14.286  44.953  0.00  0.00     0.005 A 
ENDBRANCH  18  19
ENDBRANCH   3  18
BRANCH   6  25
ATOM     25  C   UNL d   1      46.201 -17.233  43.279  0.00  0.00     0.299 C 
ATOM     26  O   UNL d   1      46.646 -17.673  43.828  0.00  0.00    -0.259 OA
BRANCH  25  27
ATOM     27  O   UNL d   1      45.938 -17.595  42.591  0.00  0.00    -0.296 OA
ATOM     28  C   UNL d   1      46.336 -18.250  42.283  0.00  0.00     0.185 C 
ENDBRANCH  25  27
ENDBRANCH   6  25
TORSDOF 4
ENDMDL
