MODEL 1
REMARK VINA RESULT:      -2.4      0.000      0.000
REMARK  9 active torsions:
REMARK  status: ('A' for Active; 'I' for Inactive)
REMARK    1  A    between atoms: N_5  and  S_1 
REMARK    2  A    between atoms: C_8  and  S_1 
REMARK    3  A    between atoms: C_2  and  N_10 
REMARK    4  A    between atoms: C_9  and  N_5 
REMARK    5  A    between atoms: C_25  and  N_5 
REMARK    6  A    between atoms: C_13  and  C_9 
REMARK    7  A    between atoms: N_10  and  O_14 
REMARK    8  A    between atoms: C_17  and  C_13 
REMARK    9  A    between atoms: O_14  and  C_17 
ROOT
ATOM      1  C   UNL d   1      32.044  16.632 -23.172  0.00  0.00     0.240 C 
ATOM      2  O   UNL d   1      32.123  15.807 -23.149  0.00  0.00    -0.283 OA
ENDROOT
BRANCH   1   3
ATOM      3  C   UNL d   1      31.228  16.481 -23.196  0.00  0.00     0.136 C 
BRANCH   3   4
ATOM      4  N   UNL d   1      30.865  16.342 -23.926  0.00  0.00    -0.226 N 
BRANCH   4   5
ATOM      5  S   UNL d   1      30.038  16.348 -23.989  0.00  0.00     0.271 S 
ATOM      6  O   UNL d   1      30.267  16.648 -24.727  0.00  0.00    -0.200 OA
ATOM      7  O   UNL d   1      29.610  16.077 -23.338  0.00  0.00    -0.200 OA
BRANCH   5   8
ATOM      8  C   UNL d   1      29.240  16.259 -23.815  0.00  0.00     0.104 A 
ATOM      9  C   UNL d   1      28.803  16.902 -23.549  0.00  0.00     0.013 A 
ATOM     10  C   UNL d   1      27.998  16.811 -23.374  0.00  0.00     0.001 A 
ATOM     11  C   UNL d   1      27.635  16.070 -23.469  0.00  0.00     0.000 A 
ATOM     12  C   UNL d   1      28.122  15.460 -23.740  0.00  0.00     0.001 A 
ATOM     13  C   UNL d   1      26.834  15.955 -23.301  0.00  0.00     0.000 C 
ATOM     14  C   UNL d   1      28.919  15.511 -23.923  0.00  0.00     0.013 A 
ENDBRANCH   5   8
ENDBRANCH   4   5
BRANCH   4  15
ATOM     15  C   UNL d   1      31.175  16.185 -24.675  0.00  0.00     0.092 C 
ATOM     16  C   UNL d   1      31.617  15.499 -24.799  0.00  0.00     0.021 C 
ENDBRANCH   4  15
ENDBRANCH   3   4
ENDBRANCH   1   3
BRANCH   1  17
ATOM     17  C   UNL d   1      32.709  17.118 -23.161  0.00  0.00     0.193 C 
BRANCH  17  18
ATOM     18  O   UNL d   1      32.613  17.940 -23.143  0.00  0.00    -0.206 OA
BRANCH  18  19
ATOM     19  N   UNL d   1      33.197  18.417 -22.814  0.00  0.00    -0.126 NA
BRANCH  19  20
ATOM     20  C   UNL d   1      33.192  19.233 -22.947  0.00  0.00     0.108 A 
ATOM     21  C   UNL d   1      33.172  19.822 -22.365  0.00  0.00     0.020 A 
ATOM     22  C   UNL d   1      33.174  20.555 -22.744  0.00  0.00     0.002 A 
ATOM     23  C   UNL d   1      33.152  19.784 -21.541  0.00  0.00     0.002 A 
ATOM     24  C   UNL d   1      33.156  21.250 -22.299  0.00  0.00     0.000 A 
ATOM     25  C   UNL d   1      33.196  20.430 -23.556  0.00  0.00     0.002 A 
ATOM     26  C   UNL d   1      33.136  21.212 -21.475  0.00  0.00     0.000 A 
ATOM     27  C   UNL d   1      33.134  20.480 -21.095  0.00  0.00     0.000 A 
ATOM     28  C   UNL d   1      33.207  19.614 -23.679  0.00  0.00     0.020 A 
ATOM     29  C   UNL d   1      33.207  20.941 -24.201  0.00  0.00     0.000 A 
ATOM     30  C   UNL d   1      33.229  19.310 -24.443  0.00  0.00     0.002 A 
ATOM     31  C   UNL d   1      33.240  19.821 -25.090  0.00  0.00     0.000 A 
ATOM     32  C   UNL d   1      33.229  20.641 -24.967  0.00  0.00     0.000 A 
ENDBRANCH  19  20
ENDBRANCH  18  19
ENDBRANCH  17  18
ENDBRANCH   1  17
TORSDOF 9
ENDMDL
MODEL 2
REMARK VINA RESULT:      -0.7      1.059      1.517
REMARK  9 active torsions:
REMARK  status: ('A' for Active; 'I' for Inactive)
REMARK    1  A    between atoms: N_5  and  S_1 
REMARK    2  A    between atoms: C_8  and  S_1 
REMARK    3  A    between atoms: C_2  and  N_10 
REMARK    4  A    between atoms: C_9  and  N_5 
REMARK    5  A    between atoms: C_25  and  N_5 
REMARK    6  A    between atoms: C_13  and  C_9 
REMARK    7  A    between atoms: N_10  and  O_14 
REMARK    8  A    between atoms: C_17  and  C_13 
REMARK    9  A    between atoms: O_14  and  C_17 
ROOT
ATOM      1  C   UNL d   1      32.589  18.135 -23.432  0.00  0.00     0.240 C 
ATOM      2  O   UNL d   1      32.762  17.326 -23.499  0.00  0.00    -0.283 OA
ENDROOT
BRANCH   1   3
ATOM      3  C   UNL d   1      32.009  17.984 -24.006  0.00  0.00     0.136 C 
BRANCH   3   4
ATOM      4  N   UNL d   1      31.680  17.226 -24.058  0.00  0.00    -0.226 N 
BRANCH   4   5
ATOM      5  S   UNL d   1      30.859  17.130 -24.127  0.00  0.00     0.271 S 
ATOM      6  O   UNL d   1      31.017  17.687 -24.721  0.00  0.00    -0.200 OA
ATOM      7  O   UNL d   1      30.498  16.600 -23.608  0.00  0.00    -0.200 OA
BRANCH   5   8
ATOM      8  C   UNL d   1      30.089  16.873 -24.003  0.00  0.00     0.104 A 
ATOM      9  C   UNL d   1      29.490  17.109 -24.513  0.00  0.00     0.013 A 
ATOM     10  C   UNL d   1      28.713  16.849 -24.387  0.00  0.00     0.001 A 
ATOM     11  C   UNL d   1      28.543  16.351 -23.746  0.00  0.00     0.000 A 
ATOM     12  C   UNL d   1      29.183  16.146 -23.266  0.00  0.00     0.001 A 
ATOM     13  C   UNL d   1      27.776  16.079 -23.600  0.00  0.00     0.000 C 
ATOM     14  C   UNL d   1      29.962  16.382 -23.357  0.00  0.00     0.013 A 
ENDBRANCH   5   8
ENDBRANCH   4   5
BRANCH   4  15
ATOM     15  C   UNL d   1      32.024  16.475 -24.056  0.00  0.00     0.092 C 
ATOM     16  C   UNL d   1      32.399  16.195 -24.737  0.00  0.00     0.021 C 
ENDBRANCH   4  15
ENDBRANCH   3   4
ENDBRANCH   1   3
BRANCH   1  17
ATOM     17  C   UNL d   1      33.011  18.613 -22.911  0.00  0.00     0.193 C 
BRANCH  17  18
ATOM     18  O   UNL d   1      32.796  19.406 -22.820  0.00  0.00    -0.206 OA
BRANCH  18  19
ATOM     19  N   UNL d   1      33.223  19.896 -22.315  0.00  0.00    -0.126 NA
BRANCH  19  20
ATOM     20  C   UNL d   1      33.078  20.710 -22.303  0.00  0.00     0.108 A 
ATOM     21  C   UNL d   1      32.893  21.161 -21.634  0.00  0.00     0.020 A 
ATOM     22  C   UNL d   1      32.794  21.944 -21.875  0.00  0.00     0.002 A 
ATOM     23  C   UNL d   1      32.803  20.961 -20.838  0.00  0.00     0.002 A 
ATOM     24  C   UNL d   1      32.604  22.526 -21.320  0.00  0.00     0.000 A 
ATOM     25  C   UNL d   1      32.915  21.986 -22.687  0.00  0.00     0.002 A 
ATOM     26  C   UNL d   1      32.514  22.325 -20.526  0.00  0.00     0.000 A 
ATOM     27  C   UNL d   1      32.613  21.542 -20.284  0.00  0.00     0.000 A 
ATOM     28  C   UNL d   1      33.090  21.223 -22.949  0.00  0.00     0.020 A 
ATOM     29  C   UNL d   1      32.890  22.609 -23.225  0.00  0.00     0.000 A 
ATOM     30  C   UNL d   1      33.241  21.083 -23.745  0.00  0.00     0.002 A 
ATOM     31  C   UNL d   1      33.217  21.706 -24.285  0.00  0.00     0.000 A 
ATOM     32  C   UNL d   1      33.040  22.472 -24.023  0.00  0.00     0.000 A 
ENDBRANCH  19  20
ENDBRANCH  18  19
ENDBRANCH  17  18
ENDBRANCH   1  17
TORSDOF 9
ENDMDL
