MODEL 1
REMARK VINA RESULT:      -2.3      0.000      0.000
REMARK  1 active torsions:
REMARK  status: ('A' for Active; 'I' for Inactive)
REMARK       I    between atoms: N_2  and  C_1 
REMARK    1  A    between atoms: C_5  and  N_2 
ROOT
ATOM      1  C   UNL d   1      30.320  15.704 -23.661  0.00  0.00     0.100 A 
ATOM      2  C   UNL d   1      28.771  16.203 -23.385  0.00  0.00     0.000 A 
ATOM      3  C   UNL d   1      29.944  16.205 -24.201  0.00  0.00     0.020 A 
ATOM      4  C   UNL d   1      29.922  15.453 -22.984  0.00  0.00     0.020 A 
ATOM      5  C   UNL d   1      29.170  16.454 -24.063  0.00  0.00     0.002 A 
ATOM      6  C   UNL d   1      29.148  15.703 -22.845  0.00  0.00     0.002 A 
ATOM      7  C   UNL d   1      27.994  16.453 -23.245  0.00  0.00     0.000 C 
ENDROOT
BRANCH   1   8
ATOM      8  N   UNL d   1      31.096  15.453 -23.797  0.00  0.00    -0.056 NA
ATOM      9  C   UNL d   1      31.728  15.930 -23.581  0.00  0.00     0.787 C 
ATOM     10  N   UNL d   1      32.511  15.683 -23.714  0.00  0.00     0.064 N 
ATOM     11  N   UNL d   1      31.583  16.663 -23.227  0.00  0.00     0.064 N 
ENDBRANCH   1   8
TORSDOF 1
ENDMDL
MODEL 2
REMARK VINA RESULT:      -2.2      1.210      1.366
REMARK  1 active torsions:
REMARK  status: ('A' for Active; 'I' for Inactive)
REMARK       I    between atoms: N_2  and  C_1 
REMARK    1  A    between atoms: C_5  and  N_2 
ROOT
ATOM      1  C   UNL d   1      30.232  16.764 -24.624  0.00  0.00     0.100 A 
ATOM      2  C   UNL d   1      28.799  16.596 -23.824  0.00  0.00     0.000 A 
ATOM      3  C   UNL d   1      29.617  17.298 -24.761  0.00  0.00     0.020 A 
ATOM      4  C   UNL d   1      30.131  16.146 -24.087  0.00  0.00     0.020 A 
ATOM      5  C   UNL d   1      28.900  17.214 -24.361  0.00  0.00     0.002 A 
ATOM      6  C   UNL d   1      29.415  16.062 -23.687  0.00  0.00     0.002 A 
ATOM      7  C   UNL d   1      28.080  16.511 -23.421  0.00  0.00     0.000 C 
ENDROOT
BRANCH   1   8
ATOM      8  N   UNL d   1      30.952  16.845 -25.024  0.00  0.00    -0.056 NA
ATOM      9  C   UNL d   1      31.554  17.299 -24.700  0.00  0.00     0.787 C 
ATOM     10  N   UNL d   1      32.280  17.385 -25.096  0.00  0.00     0.064 N 
ATOM     11  N   UNL d   1      31.436  17.674 -23.972  0.00  0.00     0.064 N 
ENDBRANCH   1   8
TORSDOF 1
ENDMDL
MODEL 3
REMARK VINA RESULT:      -2.2      1.712      2.716
REMARK  1 active torsions:
REMARK  status: ('A' for Active; 'I' for Inactive)
REMARK       I    between atoms: N_2  and  C_1 
REMARK    1  A    between atoms: C_5  and  N_2 
ROOT
ATOM      1  C   UNL d   1      29.693  16.061 -24.097  0.00  0.00     0.100 A 
ATOM      2  C   UNL d   1      31.099  16.923 -24.086  0.00  0.00     0.000 A 
ATOM      3  C   UNL d   1      29.778  16.720 -24.588  0.00  0.00     0.020 A 
ATOM      4  C   UNL d   1      30.310  15.833 -23.601  0.00  0.00     0.020 A 
ATOM      5  C   UNL d   1      30.481  17.151 -24.582  0.00  0.00     0.002 A 
ATOM      6  C   UNL d   1      31.014  16.264 -23.595  0.00  0.00     0.002 A 
ATOM      7  C   UNL d   1      31.806  17.355 -24.078  0.00  0.00     0.000 C 
ENDROOT
BRANCH   1   8
ATOM      8  N   UNL d   1      28.989  15.626 -24.101  0.00  0.00    -0.056 NA
ATOM      9  C   UNL d   1      28.343  15.884 -23.665  0.00  0.00     0.787 C 
ATOM     10  N   UNL d   1      27.632  15.453 -23.664  0.00  0.00     0.064 N 
ATOM     11  N   UNL d   1      28.401  16.581 -23.223  0.00  0.00     0.064 N 
ENDBRANCH   1   8
TORSDOF 1
ENDMDL
MODEL 4
REMARK VINA RESULT:      -2.2      6.010      6.603
REMARK  1 active torsions:
REMARK  status: ('A' for Active; 'I' for Inactive)
REMARK       I    between atoms: N_2  and  C_1 
REMARK    1  A    between atoms: C_5  and  N_2 
ROOT
ATOM      1  C   UNL d   1      32.932  21.236 -21.225  0.00  0.00     0.100 A 
ATOM      2  C   UNL d   1      32.389  22.792 -21.141  0.00  0.00     0.000 A 
ATOM      3  C   UNL d   1      32.350  21.443 -20.674  0.00  0.00     0.020 A 
ATOM      4  C   UNL d   1      33.241  21.807 -21.734  0.00  0.00     0.020 A 
ATOM      5  C   UNL d   1      32.079  22.221 -20.633  0.00  0.00     0.002 A 
ATOM      6  C   UNL d   1      32.970  22.585 -21.692  0.00  0.00     0.002 A 
ATOM      7  C   UNL d   1      32.118  23.574 -21.100  0.00  0.00     0.000 C 
ENDROOT
BRANCH   1   8
ATOM      8  N   UNL d   1      33.206  20.457 -21.270  0.00  0.00    -0.056 NA
ATOM      9  C   UNL d   1      32.969  19.972 -21.888  0.00  0.00     0.787 C 
ATOM     10  N   UNL d   1      33.241  19.187 -21.939  0.00  0.00     0.064 N 
ATOM     11  N   UNL d   1      32.456  20.267 -22.465  0.00  0.00     0.064 N 
ENDBRANCH   1   8
TORSDOF 1
ENDMDL
MODEL 5
REMARK VINA RESULT:      -2.2      5.977      6.910
REMARK  1 active torsions:
REMARK  status: ('A' for Active; 'I' for Inactive)
REMARK       I    between atoms: N_2  and  C_1 
REMARK    1  A    between atoms: C_5  and  N_2 
ROOT
ATOM      1  C   UNL d   1      33.238  21.464 -20.947  0.00  0.00     0.100 A 
ATOM      2  C   UNL d   1      33.236  20.139 -21.932  0.00  0.00     0.000 A 
ATOM      3  C   UNL d   1      33.240  20.704 -20.620  0.00  0.00     0.020 A 
ATOM      4  C   UNL d   1      33.235  21.560 -21.767  0.00  0.00     0.020 A 
ATOM      5  C   UNL d   1      33.239  20.042 -21.113  0.00  0.00     0.002 A 
ATOM      6  C   UNL d   1      33.233  20.899 -22.259  0.00  0.00     0.002 A 
ATOM      7  C   UNL d   1      33.234  19.476 -22.428  0.00  0.00     0.000 C 
ENDROOT
BRANCH   1   8
ATOM      8  N   UNL d   1      33.239  22.129 -20.457  0.00  0.00    -0.056 NA
ATOM      9  C   UNL d   1      32.547  22.552 -20.334  0.00  0.00     0.787 C 
ATOM     10  N   UNL d   1      32.541  23.223 -19.842  0.00  0.00     0.064 N 
ATOM     11  N   UNL d   1      31.849  22.309 -20.705  0.00  0.00     0.064 N 
ENDBRANCH   1   8
TORSDOF 1
ENDMDL
