MODEL 1
REMARK VINA RESULT:      -3.1      0.000      0.000
REMARK  5 active torsions:
REMARK  status: ('A' for Active; 'I' for Inactive)
REMARK    1  A    between atoms: C_10  and  N_6 
REMARK    2  A    between atoms: N_13  and  C_9 
REMARK    3  A    between atoms: C_14  and  C_10 
REMARK    4  A    between atoms: C_21  and  N_13 
REMARK    5  A    between atoms: C_24  and  C_21 
ROOT
ATOM      1  C   UNL d   1      59.699  -1.964  29.013  0.00  0.00     0.176 A 
ATOM      2  C   UNL d   1      58.905  -2.054  29.021  0.00  0.00     0.159 A 
ATOM      3  N   UNL d   1      60.039  -1.261  29.186  0.00  0.00    -0.181 NA
ATOM      4  N   UNL d   1      60.177  -2.593  28.827  0.00  0.00    -0.240 N 
ATOM      5  N   UNL d   1      59.052  -3.393  28.659  0.00  0.00    -0.223 N 
ATOM      6  N   UNL d   1      58.760  -0.727  29.379  0.00  0.00    -0.258 N 
ATOM      7  C   UNL d   1      59.859  -3.302  28.651  0.00  0.00     0.343 A 
ATOM      8  C   UNL d   1      58.584  -2.772  28.843  0.00  0.00     0.287 A 
ATOM      9  C   UNL d   1      59.580  -0.646  29.368  0.00  0.00     0.292 A 
ATOM     10  O   UNL d   1      60.332  -3.931  28.465  0.00  0.00    -0.245 OA
ATOM     11  O   UNL d   1      57.769  -2.864  28.851  0.00  0.00    -0.265 OA
ATOM     12  C   UNL d   1      60.979  -2.503  28.819  0.00  0.00     0.105 C 
ATOM     13  C   UNL d   1      58.712  -4.134  28.476  0.00  0.00     0.107 C 
ENDROOT
BRANCH   6  14
ATOM     14  C   UNL d   1      58.010  -0.404  29.495  0.00  0.00     0.084 C 
BRANCH  14  15
ATOM     15  C   UNL d   1      57.736  -0.236  30.263  0.00  0.00     0.018 A 
ATOM     16  C   UNL d   1      57.343  -0.828  30.683  0.00  0.00     0.002 A 
ATOM     17  C   UNL d   1      57.068  -0.660  31.451  0.00  0.00     0.000 A 
ATOM     18  C   UNL d   1      56.658  -1.095  32.037  0.00  0.00     0.000 C 
ATOM     19  C   UNL d   1      57.191   0.097  31.788  0.00  0.00     0.000 A 
ATOM     20  C   UNL d   1      57.587   0.672  31.345  0.00  0.00     0.000 A 
ATOM     21  C   UNL d   1      57.859   0.506  30.585  0.00  0.00     0.002 A 
ENDBRANCH  14  15
ENDBRANCH   6  14
BRANCH   9  22
ATOM     22  N   UNL d   1      59.898   0.063  29.544  0.00  0.00    -0.365 NA
BRANCH  22  23
ATOM     23  C   UNL d   1      60.411   0.678  29.778  0.00  0.00     0.164 C 
BRANCH  23  24
ATOM     24  C   UNL d   1      61.111   0.499  30.205  0.00  0.00     0.035 C 
ATOM     25  C   UNL d   1      61.133   0.587  31.033  0.00  0.00     0.003 C 
ENDBRANCH  23  24
ENDBRANCH  22  23
ENDBRANCH   9  22
TORSDOF 5
ENDMDL
MODEL 2
REMARK VINA RESULT:      -0.9      3.064      4.998
REMARK  5 active torsions:
REMARK  status: ('A' for Active; 'I' for Inactive)
REMARK    1  A    between atoms: C_10  and  N_6 
REMARK    2  A    between atoms: N_13  and  C_9 
REMARK    3  A    between atoms: C_14  and  C_10 
REMARK    4  A    between atoms: C_21  and  N_13 
REMARK    5  A    between atoms: C_24  and  C_21 
ROOT
ATOM      1  C   UNL d   1      57.041   0.646  33.467  0.00  0.00     0.176 A 
ATOM      2  C   UNL d   1      56.563   0.636  32.826  0.00  0.00     0.159 A 
ATOM      3  N   UNL d   1      57.838   0.662  33.388  0.00  0.00    -0.181 NA
ATOM      4  N   UNL d   1      56.722   0.641  34.212  0.00  0.00    -0.240 N 
ATOM      5  N   UNL d   1      55.446   0.616  33.661  0.00  0.00    -0.223 N 
ATOM      6  N   UNL d   1      57.670   0.657  31.999  0.00  0.00    -0.258 N 
ATOM      7  C   UNL d   1      55.932   0.626  34.312  0.00  0.00     0.343 A 
ATOM      8  C   UNL d   1      55.763   0.621  32.928  0.00  0.00     0.287 A 
ATOM      9  C   UNL d   1      58.154   0.667  32.667  0.00  0.00     0.292 A 
ATOM     10  O   UNL d   1      55.609   0.620  35.053  0.00  0.00    -0.245 OA
ATOM     11  O   UNL d   1      55.272   0.611  32.271  0.00  0.00    -0.265 OA
ATOM     12  C   UNL d   1      57.205   0.651  34.859  0.00  0.00     0.105 C 
ATOM     13  C   UNL d   1      54.616   0.600  33.758  0.00  0.00     0.107 C 
ENDROOT
BRANCH   6  14
ATOM     14  C   UNL d   1      57.581   0.654  31.180  0.00  0.00     0.084 C 
BRANCH  14  15
ATOM     15  C   UNL d   1      57.748  -0.032  30.738  0.00  0.00     0.018 A 
ATOM     16  C   UNL d   1      58.136   0.046  30.014  0.00  0.00     0.002 A 
ATOM     17  C   UNL d   1      58.302  -0.640  29.572  0.00  0.00     0.000 A 
ATOM     18  C   UNL d   1      58.674  -0.790  28.837  0.00  0.00     0.000 C 
ATOM     19  C   UNL d   1      58.079  -1.394  29.861  0.00  0.00     0.000 A 
ATOM     20  C   UNL d   1      57.692  -1.443  30.590  0.00  0.00     0.000 A 
ATOM     21  C   UNL d   1      57.527  -0.765  31.027  0.00  0.00     0.002 A 
ENDBRANCH  14  15
ENDBRANCH   6  14
BRANCH   9  22
ATOM     22  N   UNL d   1      58.944   0.682  32.567  0.00  0.00    -0.365 NA
BRANCH  22  23
ATOM     23  C   UNL d   1      59.769   0.682  32.689  0.00  0.00     0.164 C 
BRANCH  23  24
ATOM     24  C   UNL d   1      60.289   0.597  32.036  0.00  0.00     0.035 C 
ATOM     25  C   UNL d   1      61.115   0.627  32.147  0.00  0.00     0.003 C 
ENDBRANCH  23  24
ENDBRANCH  22  23
ENDBRANCH   9  22
TORSDOF 5
ENDMDL
