MODEL 1
REMARK VINA RESULT:      10.2      0.000      0.000
REMARK  5 active torsions:
REMARK  status: ('A' for Active; 'I' for Inactive)
REMARK    1  A    between atoms: C_11  and  N_2 
REMARK    2  A    between atoms: C_5  and  C_3 
REMARK    3  A    between atoms: C_7  and  C_5 
REMARK    4  A    between atoms: C_8  and  C_7 
REMARK    5  A    between atoms: C_10  and  C_8 
ROOT
ATOM      1  C   UNL d   1      45.690 -16.507  44.446  0.00  0.00     0.006 C 
ENDROOT
BRANCH   1   2
ATOM      2  C   UNL d   1      45.859 -15.704  44.385  0.00  0.00     0.039 A 
ATOM      3  C   UNL d   1      46.516 -15.294  44.108  0.00  0.00     0.122 A 
ATOM      4  N   UNL d   1      46.365 -14.490  44.185  0.00  0.00    -0.164 NA
ATOM      5  N   UNL d   1      45.620 -14.398  44.508  0.00  0.00    -0.228 N 
ATOM      6  C   UNL d   1      45.301 -15.152  44.634  0.00  0.00     0.085 A 
ATOM      7  C   UNL d   1      44.552 -15.313  44.955  0.00  0.00     0.021 C 
BRANCH   5   8
ATOM      8  C   UNL d   1      45.255 -13.679  44.676  0.00  0.00     0.101 C 
ATOM      9  C   UNL d   1      45.526 -12.984  44.320  0.00  0.00     0.022 C 
ENDBRANCH   5   8
ENDBRANCH   1   2
BRANCH   1  10
ATOM     10  C   UNL d   1      46.030 -17.040  43.916  0.00  0.00     0.042 C 
BRANCH  10  11
ATOM     11  C   UNL d   1      46.124 -17.837  44.127  0.00  0.00     0.196 C 
ATOM     12  O   UNL d   1      46.045 -18.068  44.913  0.00  0.00    -0.287 OA
BRANCH  11  13
ATOM     13  C   UNL d   1      46.299 -18.404  43.544  0.00  0.00     0.039 A 
ATOM     14  C   UNL d   1      46.297 -19.209  43.740  0.00  0.00     0.003 A 
ATOM     15  C   UNL d   1      46.469 -19.774  43.166  0.00  0.00     0.000 A 
ATOM     16  C   UNL d   1      46.645 -19.539  42.394  0.00  0.00     0.000 A 
ATOM     17  C   UNL d   1      46.647 -18.737  42.201  0.00  0.00     0.000 A 
ATOM     18  C   UNL d   1      46.474 -18.174  42.776  0.00  0.00     0.003 A 
ENDBRANCH  11  13
ENDBRANCH  10  11
ENDBRANCH   1  10
TORSDOF 5
ENDMDL
MODEL 2
REMARK VINA RESULT:      11.2      1.703      4.435
REMARK  5 active torsions:
REMARK  status: ('A' for Active; 'I' for Inactive)
REMARK    1  A    between atoms: C_11  and  N_2 
REMARK    2  A    between atoms: C_5  and  C_3 
REMARK    3  A    between atoms: C_7  and  C_5 
REMARK    4  A    between atoms: C_8  and  C_7 
REMARK    5  A    between atoms: C_10  and  C_8 
ROOT
ATOM      1  C   UNL d   1      45.946 -16.822  44.055  0.00  0.00     0.006 C 
ENDROOT
BRANCH   1   2
ATOM      2  C   UNL d   1      46.148 -17.601  44.228  0.00  0.00     0.039 A 
ATOM      3  C   UNL d   1      46.258 -18.001  44.938  0.00  0.00     0.122 A 
ATOM      4  N   UNL d   1      46.457 -18.778  44.765  0.00  0.00    -0.164 NA
ATOM      5  N   UNL d   1      46.471 -18.864  43.952  0.00  0.00    -0.228 N 
ATOM      6  C   UNL d   1      46.280 -18.133  43.614  0.00  0.00     0.085 A 
ATOM      7  C   UNL d   1      46.231 -17.973  42.800  0.00  0.00     0.021 C 
BRANCH   5   8
ATOM      8  C   UNL d   1      46.646 -19.558  43.545  0.00  0.00     0.101 C 
ATOM      9  C   UNL d   1      46.547 -20.291  43.914  0.00  0.00     0.022 C 
ENDBRANCH   5   8
ENDBRANCH   1   2
BRANCH   1  10
ATOM     10  C   UNL d   1      45.891 -16.266  44.662  0.00  0.00     0.042 C 
BRANCH  10  11
ATOM     11  C   UNL d   1      45.283 -15.701  44.658  0.00  0.00     0.196 C 
ATOM     12  O   UNL d   1      44.498 -15.941  44.714  0.00  0.00    -0.287 OA
BRANCH  11  13
ATOM     13  C   UNL d   1      45.467 -14.892  44.596  0.00  0.00     0.039 A 
ATOM     14  C   UNL d   1      46.153 -14.598  44.954  0.00  0.00     0.003 A 
ATOM     15  C   UNL d   1      46.339 -13.799  44.896  0.00  0.00     0.000 A 
ATOM     16  C   UNL d   1      45.841 -13.287  44.480  0.00  0.00     0.000 A 
ATOM     17  C   UNL d   1      45.158 -13.582  44.124  0.00  0.00     0.000 A 
ATOM     18  C   UNL d   1      44.974 -14.382  44.183  0.00  0.00     0.003 A 
ENDBRANCH  11  13
ENDBRANCH  10  11
ENDBRANCH   1  10
TORSDOF 5
ENDMDL
