MODEL 1
REMARK VINA RESULT:       3.7      0.000      0.000
REMARK  6 active torsions:
REMARK  status: ('A' for Active; 'I' for Inactive)
REMARK    1  A    between atoms: N_6  and  C_1 
REMARK    2  A    between atoms: C_3  and  N_6 
REMARK    3  A    between atoms: N_4  and  C_3 
REMARK       I    between atoms: C_9  and  N_4 
REMARK    4  A    between atoms: C_12  and  C_9 
REMARK    5  A    between atoms: C_10  and  C_13 
REMARK    6  A    between atoms: C_16  and  C_10 
ROOT
ATOM      1  N   UNL d   1     -41.737-121.890 -52.316  0.00  0.00    -0.179 NA
ATOM      2  C   UNL d   1     -41.535-121.623 -51.590  0.00  0.00     0.281 C 
ATOM      3  O   UNL d   1     -41.244-120.836 -51.507  0.00  0.00    -0.265 OA
ENDROOT
BRANCH   2   4
ATOM      4  C   UNL d   1     -41.597-122.080 -50.911  0.00  0.00     0.058 A 
ATOM      5  C   UNL d   1     -41.973-121.799 -50.233  0.00  0.00     0.005 A 
ATOM      6  C   UNL d   1     -42.033-122.236 -49.585  0.00  0.00     0.003 A 
ATOM      7  C   UNL d   1     -41.721-122.997 -49.550  0.00  0.00     0.039 A 
ATOM      8  C   UNL d   1     -41.342-123.283 -50.227  0.00  0.00     0.003 A 
ATOM      9  C   UNL d   1     -41.283-122.846 -50.876  0.00  0.00     0.005 A 
BRANCH   7  10
ATOM     10  C   UNL d   1     -41.783-123.454 -48.871  0.00  0.00     0.196 C 
ATOM     11  O   UNL d   1     -41.124-123.816 -48.527  0.00  0.00    -0.287 OA
BRANCH  10  12
ATOM     12  C   UNL d   1     -42.513-123.578 -48.493  0.00  0.00     0.039 A 
ATOM     13  C   UNL d   1     -43.178-123.657 -48.898  0.00  0.00     0.003 A 
ATOM     14  C   UNL d   1     -43.898-123.780 -48.520  0.00  0.00     0.000 A 
ATOM     15  C   UNL d   1     -43.892-123.817 -47.695  0.00  0.00     0.000 A 
ATOM     16  C   UNL d   1     -43.226-123.738 -47.290  0.00  0.00     0.000 A 
ATOM     17  C   UNL d   1     -42.497-123.614 -47.667  0.00  0.00     0.003 A 
ENDBRANCH  10  12
ENDBRANCH   7  10
ENDBRANCH   2   4
BRANCH   1  18
ATOM     18  C   UNL d   1     -41.662-121.419 -52.940  0.00  0.00     0.225 C 
ATOM     19  S   UNL d   1     -41.932-120.661 -52.944  0.00  0.00    -0.037 SA
BRANCH  18  20
ATOM     20  N   UNL d   1     -41.286-121.702 -53.644  0.00  0.00    -0.192 NA
BRANCH  20  21
ATOM     21  C   UNL d   1     -41.762-122.017 -54.243  0.00  0.00     0.196 A 
ATOM     22  N   UNL d   1     -42.247-121.625 -54.736  0.00  0.00    -0.221 NA
ATOM     23  C   UNL d   1     -42.585-122.193 -55.219  0.00  0.00     0.090 A 
ATOM     24  C   UNL d   1     -43.131-122.141 -55.837  0.00  0.00     0.020 A 
ATOM     25  C   UNL d   1     -42.274-122.923 -54.980  0.00  0.00     0.050 A 
ATOM     26  C   UNL d   1     -43.356-122.847 -56.212  0.00  0.00     0.002 A 
ATOM     27  C   UNL d   1     -43.044-123.577 -55.973  0.00  0.00     0.001 A 
ATOM     28  C   UNL d   1     -42.510-123.594 -55.362  0.00  0.00     0.008 A 
ATOM     29  S   UNL d   1     -41.760-122.766 -54.363  0.00  0.00    -0.047 SA
ENDBRANCH  20  21
ENDBRANCH  18  20
ENDBRANCH   1  18
TORSDOF 6
ENDMDL
