MODEL 1
REMARK VINA RESULT:      -8.9      0.000      0.000
REMARK  4 active torsions:
REMARK  status: ('A' for Active; 'I' for Inactive)
REMARK    1  A    between atoms: N_5  and  C_1 
REMARK    2  A    between atoms: C_10  and  C_2 
REMARK    3  A    between atoms: C_12  and  N_3 
REMARK       I    between atoms: C_8  and  N_5 
REMARK    4  A    between atoms: C_9  and  C_8 
ROOT
ATOM      1  C   UNL d   1      53.043  33.083  53.641  0.00  0.00     0.170 A 
ATOM      2  C   UNL d   1      52.433  32.741  53.201  0.00  0.00     0.076 A 
ATOM      3  N   UNL d   1      53.684  32.617  53.890  0.00  0.00    -0.212 N 
ATOM      4  N   UNL d   1      53.705  31.814  53.695  0.00  0.00    -0.161 NA
ATOM      5  C   UNL d   1      52.460  31.935  53.009  0.00  0.00     0.218 A 
ATOM      6  C   UNL d   1      53.094  31.473  53.255  0.00  0.00     0.140 A 
ATOM      7  O   UNL d   1      51.850  31.593  52.569  0.00  0.00    -0.285 OA
ATOM      8  C   UNL d   1      53.113  30.667  53.058  0.00  0.00     0.026 C 
ENDROOT
BRANCH   1   9
ATOM      9  N   UNL d   1      53.021  33.877  53.832  0.00  0.00    -0.188 NA
ATOM     10  C   UNL d   1      53.162  34.668  53.634  0.00  0.00     0.286 C 
ATOM     11  O   UNL d   1      53.485  34.843  52.898  0.00  0.00    -0.265 OA
BRANCH  10  12
ATOM     12  C   UNL d   1      52.981  35.263  54.167  0.00  0.00     0.087 A 
ATOM     13  S   UNL d   1      53.238  36.049  54.137  0.00  0.00    -0.082 SA
ATOM     14  C   UNL d   1      52.918  36.441  54.785  0.00  0.00     0.036 A 
ATOM     15  C   UNL d   1      52.465  35.915  55.219  0.00  0.00     0.008 A 
ATOM     16  C   UNL d   1      52.502  35.177  54.835  0.00  0.00     0.012 A 
ENDBRANCH  10  12
ENDBRANCH   1   9
BRANCH   2  17
ATOM     17  C   UNL d   1      51.798  33.199  52.952  0.00  0.00     0.006 A 
ATOM     18  C   UNL d   1      51.832  33.592  52.233  0.00  0.00     0.001 A 
ATOM     19  C   UNL d   1      51.189  34.055  51.982  0.00  0.00     0.011 A 
ATOM     20  C   UNL d   1      50.521  34.117  52.459  0.00  0.00     0.058 A 
ATOM     21  C   UNL d   1      50.485  33.720  53.187  0.00  0.00     0.011 A 
ATOM     22 CL   UNL d   1      49.885  34.577  52.206  0.00  0.00    -0.082 Cl
ATOM     23  C   UNL d   1      51.126  33.263  53.428  0.00  0.00     0.001 A 
ENDBRANCH   2  17
BRANCH   3  24
ATOM     24  C   UNL d   1      54.293  32.955  54.328  0.00  0.00     0.085 A 
ATOM     25  C   UNL d   1      54.231  32.995  55.151  0.00  0.00     0.019 A 
ATOM     26  C   UNL d   1      54.848  33.337  55.593  0.00  0.00     0.002 A 
ATOM     27  C   UNL d   1      55.511  33.631  55.213  0.00  0.00     0.000 A 
ATOM     28  C   UNL d   1      55.565  33.587  54.386  0.00  0.00     0.002 A 
ATOM     29  C   UNL d   1      54.956  33.249  53.948  0.00  0.00     0.019 A 
ENDBRANCH   3  24
TORSDOF 4
ENDMDL
MODEL 2
REMARK VINA RESULT:      -8.8      1.467      3.200
REMARK  4 active torsions:
REMARK  status: ('A' for Active; 'I' for Inactive)
REMARK    1  A    between atoms: N_5  and  C_1 
REMARK    2  A    between atoms: C_10  and  C_2 
REMARK    3  A    between atoms: C_12  and  N_3 
REMARK       I    between atoms: C_8  and  N_5 
REMARK    4  A    between atoms: C_9  and  C_8 
ROOT
ATOM      1  C   UNL d   1      52.774  33.092  53.462  0.00  0.00     0.170 A 
ATOM      2  C   UNL d   1      53.383  32.579  53.685  0.00  0.00     0.076 A 
ATOM      3  N   UNL d   1      52.131  32.803  53.023  0.00  0.00    -0.212 N 
ATOM      4  N   UNL d   1      52.107  32.004  52.812  0.00  0.00    -0.161 NA
ATOM      5  C   UNL d   1      53.352  31.779  53.470  0.00  0.00     0.218 A 
ATOM      6  C   UNL d   1      52.716  31.492  53.035  0.00  0.00     0.140 A 
ATOM      7  O   UNL d   1      53.961  31.267  53.693  0.00  0.00    -0.285 OA
ATOM      8  C   UNL d   1      52.693  30.690  52.825  0.00  0.00     0.026 C 
ENDROOT
BRANCH   1   9
ATOM      9  N   UNL d   1      52.800  33.881  53.671  0.00  0.00    -0.188 NA
ATOM     10  C   UNL d   1      52.972  34.669  53.484  0.00  0.00     0.286 C 
ATOM     11  O   UNL d   1      53.269  34.845  52.737  0.00  0.00    -0.265 OA
BRANCH  10  12
ATOM     12  C   UNL d   1      52.846  35.259  54.037  0.00  0.00     0.087 A 
ATOM     13  S   UNL d   1      53.189  36.012  54.043  0.00  0.00    -0.082 SA
ATOM     14  C   UNL d   1      52.901  36.413  54.701  0.00  0.00     0.036 A 
ATOM     15  C   UNL d   1      52.384  35.923  55.106  0.00  0.00     0.008 A 
ATOM     16  C   UNL d   1      52.348  35.201  54.693  0.00  0.00     0.012 A 
ENDBRANCH  10  12
ENDBRANCH   1   9
BRANCH   2  17
ATOM     17  C   UNL d   1      54.020  32.862  54.120  0.00  0.00     0.006 A 
ATOM     18  C   UNL d   1      54.693  33.129  53.734  0.00  0.00     0.001 A 
ATOM     19  C   UNL d   1      55.338  33.415  54.174  0.00  0.00     0.011 A 
ATOM     20  C   UNL d   1      55.296  33.427  54.996  0.00  0.00     0.058 A 
ATOM     21  C   UNL d   1      54.617  33.156  55.387  0.00  0.00     0.011 A 
ATOM     22 CL   UNL d   1      55.939  33.711  55.429  0.00  0.00    -0.082 Cl
ATOM     23  C   UNL d   1      53.982  32.875  54.944  0.00  0.00     0.001 A 
ENDBRANCH   2  17
BRANCH   3  24
ATOM     24  C   UNL d   1      51.524  33.311  52.800  0.00  0.00     0.085 A 
ATOM     25  C   UNL d   1      50.872  33.414  53.298  0.00  0.00     0.019 A 
ATOM     26  C   UNL d   1      50.259  33.928  53.071  0.00  0.00     0.002 A 
ATOM     27  C   UNL d   1      50.302  34.329  52.358  0.00  0.00     0.000 A 
ATOM     28  C   UNL d   1      50.959  34.220  51.863  0.00  0.00     0.002 A 
ATOM     29  C   UNL d   1      51.567  33.712  52.087  0.00  0.00     0.019 A 
ENDBRANCH   3  24
TORSDOF 4
ENDMDL
MODEL 3
REMARK VINA RESULT:      -6.3      1.297      2.878
REMARK  4 active torsions:
REMARK  status: ('A' for Active; 'I' for Inactive)
REMARK    1  A    between atoms: N_5  and  C_1 
REMARK    2  A    between atoms: C_10  and  C_2 
REMARK    3  A    between atoms: C_12  and  N_3 
REMARK       I    between atoms: C_8  and  N_5 
REMARK    4  A    between atoms: C_9  and  C_8 
ROOT
ATOM      1  C   UNL d   1      52.756  34.051  53.927  0.00  0.00     0.170 A 
ATOM      2  C   UNL d   1      52.182  34.601  53.702  0.00  0.00     0.076 A 
ATOM      3  N   UNL d   1      53.338  34.263  54.479  0.00  0.00    -0.212 N 
ATOM      4  N   UNL d   1      53.338  35.025  54.800  0.00  0.00    -0.161 NA
ATOM      5  C   UNL d   1      52.188  35.363  54.027  0.00  0.00     0.218 A 
ATOM      6  C   UNL d   1      52.763  35.575  54.575  0.00  0.00     0.140 A 
ATOM      7  O   UNL d   1      51.613  35.914  53.803  0.00  0.00    -0.285 OA
ATOM      8  C   UNL d   1      52.761  36.340  54.895  0.00  0.00     0.026 C 
ENDROOT
BRANCH   1   9
ATOM      9  N   UNL d   1      52.755  33.298  53.608  0.00  0.00    -0.188 NA
ATOM     10  C   UNL d   1      52.986  32.768  53.016  0.00  0.00     0.286 C 
ATOM     11  O   UNL d   1      53.451  33.042  52.395  0.00  0.00    -0.265 OA
BRANCH  10  12
ATOM     12  C   UNL d   1      52.752  31.984  53.053  0.00  0.00     0.087 A 
ATOM     13  S   UNL d   1      53.053  31.357  52.605  0.00  0.00    -0.082 SA
ATOM     14  C   UNL d   1      52.652  30.674  52.830  0.00  0.00     0.036 A 
ATOM     15  C   UNL d   1      52.107  30.864  53.410  0.00  0.00     0.008 A 
ATOM     16  C   UNL d   1      52.166  31.682  53.552  0.00  0.00     0.012 A 
ENDBRANCH  10  12
ENDBRANCH   1   9
BRANCH   2  17
ATOM     17  C   UNL d   1      51.605  34.394  53.155  0.00  0.00     0.006 A 
ATOM     18  C   UNL d   1      51.744  34.495  52.353  0.00  0.00     0.001 A 
ATOM     19  C   UNL d   1      51.160  34.285  51.801  0.00  0.00     0.011 A 
ATOM     20  C   UNL d   1      50.444  33.977  52.063  0.00  0.00     0.058 A 
ATOM     21  C   UNL d   1      50.301  33.874  52.874  0.00  0.00     0.011 A 
ATOM     22 CL   UNL d   1      49.865  33.770  51.511  0.00  0.00    -0.082 Cl
ATOM     23  C   UNL d   1      50.885  34.084  53.415  0.00  0.00     0.001 A 
ENDBRANCH   2  17
BRANCH   3  24
ATOM     24  C   UNL d   1      53.911  33.717  54.705  0.00  0.00     0.085 A 
ATOM     25  C   UNL d   1      53.755  33.191  55.323  0.00  0.00     0.019 A 
ATOM     26  C   UNL d   1      54.335  32.640  55.550  0.00  0.00     0.002 A 
ATOM     27  C   UNL d   1      55.056  32.619  55.161  0.00  0.00     0.000 A 
ATOM     28  C   UNL d   1      55.205  33.150  54.542  0.00  0.00     0.002 A 
ATOM     29  C   UNL d   1      54.632  33.696  54.316  0.00  0.00     0.019 A 
ENDBRANCH   3  24
TORSDOF 4
ENDMDL
