MODEL 1
REMARK VINA RESULT:       9.7      0.000      0.000
REMARK  2 active torsions:
REMARK  status: ('A' for Active; 'I' for Inactive)
REMARK    1  A    between atoms: C_13  and  N_8 
REMARK    2  A    between atoms: C_14  and  C_13 
ROOT
ATOM      1  C   UNL d   1     -51.418  25.065  33.307  0.00  0.00     0.093 A 
ATOM      2  N   UNL d   1     -50.882  26.388  33.307  0.00  0.00    -0.179 NA
ATOM      3  C   UNL d   1     -51.538  25.881  33.306  0.00  0.00     0.284 A 
ATOM      4  C   UNL d   1     -50.650  24.759  33.307  0.00  0.00     0.091 A 
ATOM      5  C   UNL d   1     -50.115  26.083  33.307  0.00  0.00     0.223 A 
ATOM      6  N   UNL d   1     -50.002  25.270  33.308  0.00  0.00    -0.217 NA
ATOM      7  C   UNL d   1     -52.066  24.554  33.307  0.00  0.00     0.087 A 
ATOM      8  N   UNL d   1     -51.943  23.746  33.307  0.00  0.00    -0.302 N 
ATOM      9  C   UNL d   1     -50.530  23.943  33.308  0.00  0.00     0.038 A 
ATOM     10  S   UNL d   1     -49.463  26.592  33.307  0.00  0.00    -0.037 SA
ATOM     11  O   UNL d   1     -52.303  26.195  33.306  0.00  0.00    -0.265 OA
ATOM     12  C   UNL d   1     -51.174  23.441  33.307  0.00  0.00     0.082 A 
ENDROOT
BRANCH   8  13
ATOM     13  C   UNL d   1     -52.594  23.227  33.307  0.00  0.00     0.080 C 
BRANCH  13  14
ATOM     14  C   UNL d   1     -53.312  23.469  33.638  0.00  0.00     0.019 C 
ATOM     15  C   UNL d   1     -54.019  23.199  33.313  0.00  0.00     0.002 C 
ENDBRANCH  13  14
ENDBRANCH   8  13
TORSDOF 2
ENDMDL
