MODEL 1
REMARK VINA RESULT:       0.7      0.000      0.000
REMARK  1 active torsions:
REMARK  status: ('A' for Active; 'I' for Inactive)
REMARK    1  A    between atoms: C_5  and  C_8 
ROOT
ATOM      1  C   UNL d   1      24.629  13.212  -1.659  0.00  0.00     0.084 A 
ATOM      2  C   UNL d   1      24.570  12.503  -1.244  0.00  0.00     0.057 A 
ATOM      3  N   UNL d   1      24.638  13.927  -1.254  0.00  0.00    -0.245 NA
ATOM      4  C   UNL d   1      24.519  12.501  -0.424  0.00  0.00     0.199 A 
ATOM      5  C   UNL d   1      24.527  13.218  -0.015  0.00  0.00     0.061 A 
ATOM      6  C   UNL d   1      24.586  13.926  -0.430  0.00  0.00     0.085 A 
ATOM      7  C   UNL d   1      24.671  12.493  -2.890  0.00  0.00     0.073 A 
ATOM      8  C   UNL d   1      24.680  13.207  -2.485  0.00  0.00     0.023 A 
ATOM      9  C   UNL d   1      24.561  11.787  -1.652  0.00  0.00     0.005 A 
ATOM     10  O   UNL d   1      24.460  11.788  -0.016  0.00  0.00    -0.286 OA
ATOM     11  C   UNL d   1      24.612  11.780  -2.472  0.00  0.00     0.004 A 
ATOM     12  C   UNL d   1      24.595  14.645  -0.019  0.00  0.00     0.021 C 
ENDROOT
BRANCH   7  13
ATOM     13  C   UNL d   1      24.722  12.481  -3.716  0.00  0.00     0.419 C 
ATOM     14  F   UNL d   1      24.768  12.469  -4.464  0.00  0.00    -0.166 F 
ATOM     15  F   UNL d   1      24.768  13.143  -4.265  0.00  0.00    -0.166 F 
ATOM     16  F   UNL d   1      24.742  11.806  -4.247  0.00  0.00    -0.166 F 
ENDBRANCH   7  13
TORSDOF 1
ENDMDL
