MODEL 1
REMARK VINA RESULT:     -10.5      0.000      0.000
REMARK  2 active torsions:
REMARK  status: ('A' for Active; 'I' for Inactive)
REMARK    1  A    between atoms: C_10  and  N_1 
REMARK    2  A    between atoms: C_13  and  C_10 
ROOT
ATOM      1  N   UNL d   1      53.373  32.105  53.131  0.00  0.00    -0.260 N 
ATOM      2  C   UNL d   1      53.805  32.481  53.715  0.00  0.00     0.174 A 
ATOM      3  C   UNL d   1      52.710  32.297  52.691  0.00  0.00     0.348 A 
ATOM      4  N   UNL d   1      52.214  32.934  52.653  0.00  0.00    -0.216 NA
ATOM      5  C   UNL d   1      52.166  33.659  53.040  0.00  0.00     0.137 A 
ATOM      6  O   UNL d   1      53.760  33.196  54.101  0.00  0.00    -0.316 OA
ATOM      7  C   UNL d   1      52.859  32.833  53.132  0.00  0.00     0.079 A 
ATOM      8  C   UNL d   1      52.598  34.026  53.620  0.00  0.00     0.022 A 
ATOM      9  C   UNL d   1      53.254  33.836  54.056  0.00  0.00     0.094 A 
ATOM     10  O   UNL d   1      52.508  31.710  52.174  0.00  0.00    -0.245 OA
ATOM     11  C   UNL d   1      54.467  32.152  54.075  0.00  0.00     0.055 C 
ATOM     12  C   UNL d   1      52.218  34.743  53.726  0.00  0.00    -0.001 A 
ATOM     13  C   UNL d   1      53.538  34.376  54.613  0.00  0.00     0.024 A 
ATOM     14  C   UNL d   1      52.503  35.273  54.278  0.00  0.00    -0.000 A 
ATOM     15  C   UNL d   1      53.165  35.089  54.722  0.00  0.00     0.002 A 
ENDROOT
BRANCH   1  16
ATOM     16  C   UNL d   1      53.524  31.349  52.812  0.00  0.00     0.082 C 
BRANCH  16  17
ATOM     17  C   UNL d   1      53.278  30.656  53.239  0.00  0.00     0.017 A 
ATOM     18  C   UNL d   1      52.506  30.338  53.120  0.00  0.00     0.002 A 
ATOM     19  C   UNL d   1      52.258  29.645  53.547  0.00  0.00     0.000 A 
ATOM     20  C   UNL d   1      52.787  29.275  54.092  0.00  0.00     0.000 A 
ATOM     21  C   UNL d   1      53.571  29.597  54.214  0.00  0.00     0.000 A 
ATOM     22  C   UNL d   1      53.807  30.286  53.785  0.00  0.00     0.002 A 
ENDBRANCH  16  17
ENDBRANCH   1  16
TORSDOF 2
ENDMDL
MODEL 2
REMARK VINA RESULT:     -10.5      0.736      3.618
REMARK  2 active torsions:
REMARK  status: ('A' for Active; 'I' for Inactive)
REMARK    1  A    between atoms: C_10  and  N_1 
REMARK    2  A    between atoms: C_13  and  C_10 
ROOT
ATOM      1  N   UNL d   1      53.492  32.767  53.232  0.00  0.00    -0.260 N 
ATOM      2  C   UNL d   1      53.938  32.286  53.720  0.00  0.00     0.174 A 
ATOM      3  C   UNL d   1      52.844  32.651  52.744  0.00  0.00     0.348 A 
ATOM      4  N   UNL d   1      52.384  32.017  52.547  0.00  0.00    -0.216 NA
ATOM      5  C   UNL d   1      52.371  31.220  52.753  0.00  0.00     0.137 A 
ATOM      6  O   UNL d   1      53.929  31.499  53.926  0.00  0.00    -0.316 OA
ATOM      7  C   UNL d   1      53.018  32.035  53.051  0.00  0.00     0.079 A 
ATOM      8  C   UNL d   1      52.818  30.748  53.239  0.00  0.00     0.022 A 
ATOM      9  C   UNL d   1      53.458  30.863  53.721  0.00  0.00     0.094 A 
ATOM     10  O   UNL d   1      52.616  33.332  52.376  0.00  0.00    -0.245 OA
ATOM     11  C   UNL d   1      54.579  32.554  54.161  0.00  0.00     0.055 C 
ATOM     12  C   UNL d   1      52.476  30.009  53.165  0.00  0.00    -0.001 A 
ATOM     13  C   UNL d   1      53.766  30.222  54.142  0.00  0.00     0.024 A 
ATOM     14  C   UNL d   1      52.784  29.378  53.583  0.00  0.00    -0.000 A 
ATOM     15  C   UNL d   1      53.430  29.485  54.073  0.00  0.00     0.002 A 
ENDROOT
BRANCH   1  16
ATOM     16  C   UNL d   1      53.606  33.583  53.102  0.00  0.00     0.082 C 
BRANCH  16  17
ATOM     17  C   UNL d   1      53.293  34.144  53.660  0.00  0.00     0.017 A 
ATOM     18  C   UNL d   1      52.606  34.595  53.466  0.00  0.00     0.002 A 
ATOM     19  C   UNL d   1      52.292  35.155  54.024  0.00  0.00     0.000 A 
ATOM     20  C   UNL d   1      52.668  35.261  54.773  0.00  0.00     0.000 A 
ATOM     21  C   UNL d   1      53.365  34.805  54.971  0.00  0.00     0.000 A 
ATOM     22  C   UNL d   1      53.669  34.250  54.409  0.00  0.00     0.002 A 
ENDBRANCH  16  17
ENDBRANCH   1  16
TORSDOF 2
ENDMDL
MODEL 3
REMARK VINA RESULT:      -9.5      1.742      2.830
REMARK  2 active torsions:
REMARK  status: ('A' for Active; 'I' for Inactive)
REMARK    1  A    between atoms: C_10  and  N_1 
REMARK    2  A    between atoms: C_13  and  C_10 
ROOT
ATOM      1  N   UNL d   1      53.194  33.377  53.305  0.00  0.00    -0.260 N 
ATOM      2  C   UNL d   1      52.902  34.141  53.289  0.00  0.00     0.174 A 
ATOM      3  C   UNL d   1      52.868  32.633  53.198  0.00  0.00     0.348 A 
ATOM      4  N   UNL d   1      52.129  32.351  53.034  0.00  0.00    -0.216 NA
ATOM      5  C   UNL d   1      51.391  32.692  52.905  0.00  0.00     0.137 A 
ATOM      6  O   UNL d   1      52.174  34.482  53.162  0.00  0.00    -0.316 OA
ATOM      7  C   UNL d   1      52.360  33.123  53.123  0.00  0.00     0.079 A 
ATOM      8  C   UNL d   1      51.108  33.452  52.890  0.00  0.00     0.022 A 
ATOM      9  C   UNL d   1      51.429  34.188  52.996  0.00  0.00     0.094 A 
ATOM     10  O   UNL d   1      53.419  32.047  53.276  0.00  0.00    -0.245 OA
ATOM     11  C   UNL d   1      53.364  34.808  53.419  0.00  0.00     0.055 C 
ATOM     12  C   UNL d   1      50.312  33.363  52.725  0.00  0.00    -0.001 A 
ATOM     13  C   UNL d   1      50.944  34.853  52.935  0.00  0.00     0.024 A 
ATOM     14  C   UNL d   1      49.835  34.024  52.666  0.00  0.00    -0.000 A 
ATOM     15  C   UNL d   1      50.152  34.771  52.771  0.00  0.00     0.002 A 
ENDROOT
BRANCH   1  16
ATOM     16  C   UNL d   1      53.984  33.152  53.452  0.00  0.00     0.082 C 
BRANCH  16  17
ATOM     17  C   UNL d   1      54.307  33.241  54.234  0.00  0.00     0.017 A 
ATOM     18  C   UNL d   1      54.016  32.767  54.868  0.00  0.00     0.002 A 
ATOM     19  C   UNL d   1      54.338  32.856  55.650  0.00  0.00     0.000 A 
ATOM     20  C   UNL d   1      54.951  33.419  55.792  0.00  0.00     0.000 A 
ATOM     21  C   UNL d   1      55.248  33.901  55.150  0.00  0.00     0.000 A 
ATOM     22  C   UNL d   1      54.920  33.805  54.376  0.00  0.00     0.002 A 
ENDBRANCH  16  17
ENDBRANCH   1  16
TORSDOF 2
ENDMDL
MODEL 4
REMARK VINA RESULT:      -9.4      1.572      3.158
REMARK  2 active torsions:
REMARK  status: ('A' for Active; 'I' for Inactive)
REMARK    1  A    between atoms: C_10  and  N_1 
REMARK    2  A    between atoms: C_13  and  C_10 
ROOT
ATOM      1  N   UNL d   1      52.667  33.461  53.003  0.00  0.00    -0.260 N 
ATOM      2  C   UNL d   1      52.972  34.138  53.345  0.00  0.00     0.174 A 
ATOM      3  C   UNL d   1      52.757  32.658  53.134  0.00  0.00     0.348 A 
ATOM      4  N   UNL d   1      53.184  32.208  53.652  0.00  0.00    -0.216 NA
ATOM      5  C   UNL d   1      53.707  32.367  54.267  0.00  0.00     0.137 A 
ATOM      6  O   UNL d   1      53.489  34.299  53.952  0.00  0.00    -0.316 OA
ATOM      7  C   UNL d   1      53.158  33.016  53.598  0.00  0.00     0.079 A 
ATOM      8  C   UNL d   1      54.006  33.042  54.602  0.00  0.00     0.022 A 
ATOM      9  C   UNL d   1      53.917  33.837  54.473  0.00  0.00     0.094 A 
ATOM     10  O   UNL d   1      52.315  32.215  52.623  0.00  0.00    -0.245 OA
ATOM     11  C   UNL d   1      52.782  34.899  53.098  0.00  0.00     0.055 C 
ATOM     12  C   UNL d   1      54.499  32.767  55.194  0.00  0.00    -0.001 A 
ATOM     13  C   UNL d   1      54.330  34.371  54.947  0.00  0.00     0.024 A 
ATOM     14  C   UNL d   1      54.906  33.300  55.661  0.00  0.00    -0.000 A 
ATOM     15  C   UNL d   1      54.822  34.104  55.537  0.00  0.00     0.002 A 
ENDROOT
BRANCH   1  16
ATOM     16  C   UNL d   1      52.128  33.428  52.366  0.00  0.00     0.082 C 
BRANCH  16  17
ATOM     17  C   UNL d   1      51.338  33.726  52.469  0.00  0.00     0.017 A 
ATOM     18  C   UNL d   1      50.864  33.453  53.112  0.00  0.00     0.002 A 
ATOM     19  C   UNL d   1      50.074  33.751  53.216  0.00  0.00     0.000 A 
ATOM     20  C   UNL d   1      49.763  34.320  52.675  0.00  0.00     0.000 A 
ATOM     21  C   UNL d   1      50.243  34.598  52.022  0.00  0.00     0.000 A 
ATOM     22  C   UNL d   1      51.027  34.295  51.928  0.00  0.00     0.002 A 
ENDBRANCH  16  17
ENDBRANCH   1  16
TORSDOF 2
ENDMDL
MODEL 5
REMARK VINA RESULT:      -8.3      1.326      3.891
REMARK  2 active torsions:
REMARK  status: ('A' for Active; 'I' for Inactive)
REMARK    1  A    between atoms: C_10  and  N_1 
REMARK    2  A    between atoms: C_13  and  C_10 
ROOT
ATOM      1  N   UNL d   1      52.132  33.166  53.383  0.00  0.00    -0.260 N 
ATOM      2  C   UNL d   1      51.772  32.432  53.361  0.00  0.00     0.174 A 
ATOM      3  C   UNL d   1      52.908  33.428  53.391  0.00  0.00     0.348 A 
ATOM      4  N   UNL d   1      53.632  33.069  53.383  0.00  0.00    -0.216 NA
ATOM      5  C   UNL d   1      53.896  32.290  53.361  0.00  0.00     0.137 A 
ATOM      6  O   UNL d   1      52.029  31.659  53.340  0.00  0.00    -0.316 OA
ATOM      7  C   UNL d   1      52.902  32.718  53.371  0.00  0.00     0.079 A 
ATOM      8  C   UNL d   1      53.533  31.564  53.340  0.00  0.00     0.022 A 
ATOM      9  C   UNL d   1      52.766  31.305  53.331  0.00  0.00     0.094 A 
ATOM     10  O   UNL d   1      52.956  34.234  53.414  0.00  0.00    -0.245 OA
ATOM     11  C   UNL d   1      50.957  32.323  53.357  0.00  0.00     0.055 C 
ATOM     12  C   UNL d   1      54.155  31.033  53.326  0.00  0.00    -0.001 A 
ATOM     13  C   UNL d   1      52.614  30.494  53.308  0.00  0.00     0.024 A 
ATOM     14  C   UNL d   1      54.000  30.231  53.303  0.00  0.00    -0.000 A 
ATOM     15  C   UNL d   1      53.228  29.961  53.294  0.00  0.00     0.002 A 
ENDROOT
BRANCH   1  16
ATOM     16  C   UNL d   1      51.746  33.905  53.403  0.00  0.00     0.082 C 
BRANCH  16  17
ATOM     17  C   UNL d   1      51.219  34.121  52.771  0.00  0.00     0.017 A 
ATOM     18  C   UNL d   1      51.515  34.212  51.986  0.00  0.00     0.002 A 
ATOM     19  C   UNL d   1      50.989  34.427  51.353  0.00  0.00     0.000 A 
ATOM     20  C   UNL d   1      50.168  34.549  51.511  0.00  0.00     0.000 A 
ATOM     21  C   UNL d   1      49.866  34.456  52.307  0.00  0.00     0.000 A 
ATOM     22  C   UNL d   1      50.398  34.242  52.928  0.00  0.00     0.002 A 
ENDBRANCH  16  17
ENDBRANCH   1  16
TORSDOF 2
ENDMDL
