MODEL 1
REMARK VINA RESULT:      -4.7      0.000      0.000
REMARK  2 active torsions:
REMARK  status: ('A' for Active; 'I' for Inactive)
REMARK    1  A    between atoms: C_2  and  C_1 
REMARK       I    between atoms: N_3  and  C_2 
REMARK    2  A    between atoms: C_6  and  N_3 
ROOT
ATOM      1  C   UNL d   1     -41.784-122.005 -53.896  0.00  0.00     0.303 C 
ATOM      2  N   UNL d   1     -41.153-122.373 -53.502  0.00  0.00    -0.206 NA
ATOM      3  O   UNL d   1     -42.396-121.666 -53.463  0.00  0.00    -0.263 OA
ENDROOT
BRANCH   2   4
ATOM      4  C   UNL d   1     -41.143-122.396 -52.676  0.00  0.00     0.086 A 
ATOM      5  C   UNL d   1     -41.139-121.687 -52.242  0.00  0.00     0.031 A 
ATOM      6  C   UNL d   1     -41.130-121.724 -51.422  0.00  0.00     0.059 A 
ATOM      7 CL   UNL d   1     -41.126-121.018 -50.997  0.00  0.00    -0.082 Cl
ATOM      8  C   UNL d   1     -41.125-122.446 -51.042  0.00  0.00     0.011 A 
ATOM      9  C   UNL d   1     -41.129-123.147 -51.460  0.00  0.00     0.002 A 
ATOM     10  C   UNL d   1     -41.138-123.125 -52.286  0.00  0.00     0.018 A 
ATOM     11  C   UNL d   1     -41.142-123.817 -52.710  0.00  0.00     0.002 C 
ENDBRANCH   2   4
BRANCH   1  12
ATOM     12  C   UNL d   1     -41.794-121.982 -54.722  0.00  0.00     0.176 A 
ATOM     13  C   UNL d   1     -42.470-121.932 -55.197  0.00  0.00     0.110 A 
ATOM     14  N   UNL d   1     -42.230-121.923 -55.986  0.00  0.00    -0.233 NA
ATOM     15  C   UNL d   1     -43.243-121.898 -54.927  0.00  0.00     0.023 C 
ATOM     16  C   UNL d   1     -41.397-121.968 -55.998  0.00  0.00     0.259 A 
ATOM     17  O   UNL d   1     -41.136-122.004 -55.214  0.00  0.00    -0.296 OA
ENDBRANCH   1  12
TORSDOF 2
ENDMDL
MODEL 2
REMARK VINA RESULT:      -4.3      2.630      3.708
REMARK  2 active torsions:
REMARK  status: ('A' for Active; 'I' for Inactive)
REMARK    1  A    between atoms: C_2  and  C_1 
REMARK       I    between atoms: N_3  and  C_2 
REMARK    2  A    between atoms: C_6  and  N_3 
ROOT
ATOM      1  C   UNL d   1     -41.590-122.939 -50.569  0.00  0.00     0.303 C 
ATOM      2  N   UNL d   1     -42.074-123.527 -50.237  0.00  0.00    -0.206 NA
ATOM      3  O   UNL d   1     -41.256-122.363 -50.086  0.00  0.00    -0.263 OA
ENDROOT
BRANCH   2   4
ATOM      4  C   UNL d   1     -42.216-123.529 -49.423  0.00  0.00     0.086 A 
ATOM      5  C   UNL d   1     -41.591-123.390 -48.894  0.00  0.00     0.031 A 
ATOM      6  C   UNL d   1     -41.747-123.394 -48.088  0.00  0.00     0.059 A 
ATOM      7 CL   UNL d   1     -41.123-123.256 -47.566  0.00  0.00    -0.082 Cl
ATOM      8  C   UNL d   1     -42.503-123.533 -47.813  0.00  0.00     0.011 A 
ATOM      9  C   UNL d   1     -43.122-123.670 -48.327  0.00  0.00     0.002 A 
ATOM     10  C   UNL d   1     -42.980-123.668 -49.141  0.00  0.00     0.018 A 
ATOM     11  C   UNL d   1     -43.591-123.804 -49.659  0.00  0.00     0.002 C 
ENDBRANCH   2   4
BRANCH   1  12
ATOM     12  C   UNL d   1     -41.447-122.937 -51.383  0.00  0.00     0.176 A 
ATOM     13  C   UNL d   1     -41.231-122.278 -51.835  0.00  0.00     0.110 A 
ATOM     14  N   UNL d   1     -41.145-122.521 -52.618  0.00  0.00    -0.233 NA
ATOM     15  C   UNL d   1     -41.123-121.517 -51.550  0.00  0.00     0.023 C 
ATOM     16  C   UNL d   1     -41.309-123.338 -52.650  0.00  0.00     0.259 A 
ATOM     17  O   UNL d   1     -41.495-123.587 -51.883  0.00  0.00    -0.296 OA
ENDBRANCH   1  12
TORSDOF 2
ENDMDL
MODEL 3
REMARK VINA RESULT:      -2.7      2.698      4.556
REMARK  2 active torsions:
REMARK  status: ('A' for Active; 'I' for Inactive)
REMARK    1  A    between atoms: C_2  and  C_1 
REMARK       I    between atoms: N_3  and  C_2 
REMARK    2  A    between atoms: C_6  and  N_3 
ROOT
ATOM      1  C   UNL d   1     -41.843-123.230 -50.188  0.00  0.00     0.303 C 
ATOM      2  N   UNL d   1     -41.214-122.801 -50.521  0.00  0.00    -0.206 NA
ATOM      3  O   UNL d   1     -42.441-123.522 -50.673  0.00  0.00    -0.263 OA
ENDROOT
BRANCH   2   4
ATOM      4  C   UNL d   1     -41.193-122.671 -51.337  0.00  0.00     0.086 A 
ATOM      5  C   UNL d   1     -41.217-123.317 -51.859  0.00  0.00     0.031 A 
ATOM      6  C   UNL d   1     -41.196-123.173 -52.667  0.00  0.00     0.059 A 
ATOM      7 CL   UNL d   1     -41.219-123.818 -53.182  0.00  0.00    -0.082 Cl
ATOM      8  C   UNL d   1     -41.152-122.409 -52.950  0.00  0.00     0.011 A 
ATOM      9  C   UNL d   1     -41.129-121.769 -52.444  0.00  0.00     0.002 A 
ATOM     10  C   UNL d   1     -41.150-121.899 -51.628  0.00  0.00     0.018 A 
ATOM     11  C   UNL d   1     -41.127-121.268 -51.116  0.00  0.00     0.002 C 
ENDBRANCH   2   4
BRANCH   1  12
ATOM     12  C   UNL d   1     -41.864-123.361 -49.373  0.00  0.00     0.176 A 
ATOM     13  C   UNL d   1     -42.548-123.440 -48.913  0.00  0.00     0.110 A 
ATOM     14  N   UNL d   1     -42.318-123.563 -48.130  0.00  0.00    -0.233 NA
ATOM     15  C   UNL d   1     -43.318-123.403 -49.190  0.00  0.00     0.023 C 
ATOM     16  C   UNL d   1     -41.484-123.559 -48.107  0.00  0.00     0.259 A 
ATOM     17  O   UNL d   1     -41.212-123.434 -48.878  0.00  0.00    -0.296 OA
ENDBRANCH   1  12
TORSDOF 2
ENDMDL
