MODEL 1
REMARK VINA RESULT:      41.0      0.000      0.000
REMARK  4 active torsions:
REMARK  status: ('A' for Active; 'I' for Inactive)
REMARK    1  A    between atoms: C_2  and  N_1 
REMARK       I    between atoms: C_3  and  N_1 
REMARK    2  A    between atoms: N_4  and  C_2 
REMARK    3  A    between atoms: C_7  and  C_3 
REMARK    4  A    between atoms: C_8  and  N_4 
ROOT
ATOM      1  C   UNL d   1     -54.746-101.727 -41.779  0.00  0.00     0.179 C 
ATOM      2  S   UNL d   1     -54.777-102.550 -41.858  0.00  0.00    -0.040 SA
ENDROOT
BRANCH   1   3
ATOM      3  N   UNL d   1     -54.747-101.243 -42.447  0.00  0.00    -0.299 N 
ATOM      4  C   UNL d   1     -54.867-101.582 -43.178  0.00  0.00     0.259 C 
ATOM      5  O   UNL d   1     -54.986-102.398 -43.252  0.00  0.00    -0.267 OA
ATOM      6  H   UNL d   1     -54.629-100.438 -42.374  0.00  0.00     0.171 HD
BRANCH   4   7
ATOM      7  C   UNL d   1     -54.869-101.097 -43.858  0.00  0.00     0.056 A 
ATOM      8  C   UNL d   1     -55.021-100.298 -43.788  0.00  0.00     0.005 A 
ATOM      9  C   UNL d   1     -55.025 -99.814 -44.456  0.00  0.00     0.000 A 
ATOM     10  C   UNL d   1     -54.872-100.146 -45.196  0.00  0.00     0.000 A 
ATOM     11  C   UNL d   1     -54.720-100.945 -45.266  0.00  0.00     0.000 A 
ATOM     12  C   UNL d   1     -54.716-101.429 -44.598  0.00  0.00     0.005 A 
ENDBRANCH   4   7
ENDBRANCH   1   3
BRANCH   1  13
ATOM     13  N   UNL d   1     -54.713-101.381 -41.030  0.00  0.00    -0.332 N 
ATOM     14  H   UNL d   1     -54.323-100.673 -40.919  0.00  0.00     0.168 HD
BRANCH  13  15
ATOM     15  C   UNL d   1     -55.077-101.759 -40.400  0.00  0.00     0.058 A 
ATOM     16  C   UNL d   1     -55.475-102.477 -40.513  0.00  0.00     0.018 A 
ATOM     17  C   UNL d   1     -55.833-102.840 -39.869  0.00  0.00     0.013 A 
ATOM     18  C   UNL d   1     -55.807-102.511 -39.123  0.00  0.00     0.058 A 
ATOM     19  C   UNL d   1     -55.410-101.794 -39.010  0.00  0.00     0.013 A 
ATOM     20 CL   UNL d   1     -56.164-102.874 -38.485  0.00  0.00    -0.082 Cl
ATOM     21  C   UNL d   1     -55.044-101.415 -39.645  0.00  0.00     0.018 A 
ENDBRANCH  13  15
ENDBRANCH   1  13
TORSDOF 4
ENDMDL
MODEL 2
REMARK VINA RESULT:      43.2      4.099      5.407
REMARK  4 active torsions:
REMARK  status: ('A' for Active; 'I' for Inactive)
REMARK    1  A    between atoms: C_2  and  N_1 
REMARK       I    between atoms: C_3  and  N_1 
REMARK    2  A    between atoms: N_4  and  C_2 
REMARK    3  A    between atoms: C_7  and  C_3 
REMARK    4  A    between atoms: C_8  and  N_4 
ROOT
ATOM      1  C   UNL d   1     -57.993 -98.813 -44.782  0.00  0.00     0.179 C 
ATOM      2  S   UNL d   1     -58.617 -98.770 -45.325  0.00  0.00    -0.040 SA
ENDROOT
BRANCH   1   3
ATOM      3  N   UNL d   1     -58.148 -98.905 -43.976  0.00  0.00    -0.299 N 
ATOM      4  C   UNL d   1     -58.921 -98.904 -43.721  0.00  0.00     0.259 C 
ATOM      5  O   UNL d   1     -59.545 -98.812 -44.259  0.00  0.00    -0.267 OA
ATOM      6  H   UNL d   1     -57.534 -98.995 -43.446  0.00  0.00     0.171 HD
BRANCH   4   7
ATOM      7  C   UNL d   1     -59.084 -98.996 -42.907  0.00  0.00     0.056 A 
ATOM      8  C   UNL d   1     -59.793 -99.320 -42.667  0.00  0.00     0.005 A 
ATOM      9  C   UNL d   1     -59.958 -99.414 -41.864  0.00  0.00     0.000 A 
ATOM     10  C   UNL d   1     -59.399 -99.177 -41.306  0.00  0.00     0.000 A 
ATOM     11  C   UNL d   1     -58.689 -98.853 -41.546  0.00  0.00     0.000 A 
ATOM     12  C   UNL d   1     -58.524 -98.759 -42.349  0.00  0.00     0.005 A 
ENDBRANCH   4   7
ENDBRANCH   1   3
BRANCH   1  13
ATOM     13  N   UNL d   1     -57.211 -98.765 -45.040  0.00  0.00    -0.332 N 
ATOM     14  H   UNL d   1     -57.022 -98.332 -45.705  0.00  0.00     0.168 HD
BRANCH  13  15
ATOM     15  C   UNL d   1     -56.628 -99.159 -44.619  0.00  0.00     0.058 A 
ATOM     16  C   UNL d   1     -56.179 -98.762 -44.048  0.00  0.00     0.018 A 
ATOM     17  C   UNL d   1     -55.600 -99.175 -43.638  0.00  0.00     0.013 A 
ATOM     18  C   UNL d   1     -55.455 -99.965 -43.779  0.00  0.00     0.058 A 
ATOM     19  C   UNL d   1     -55.904-100.363 -44.351  0.00  0.00     0.013 A 
ATOM     20 CL   UNL d   1     -54.879-100.373 -43.370  0.00  0.00    -0.082 Cl
ATOM     21  C   UNL d   1     -56.490 -99.964 -44.772  0.00  0.00     0.018 A 
ENDBRANCH  13  15
ENDBRANCH   1  13
TORSDOF 4
ENDMDL
