MODEL 1
REMARK VINA RESULT:      -3.0      0.000      0.000
REMARK  8 active torsions:
REMARK  status: ('A' for Active; 'I' for Inactive)
REMARK    1  A    between atoms: C_9  and  N_1 
REMARK    2  A    between atoms: C_7  and  C_2 
REMARK    3  A    between atoms: C_6  and  C_4 
REMARK    4  A    between atoms: C_8  and  C_11 
REMARK       I    between atoms: N_23  and  C_8 
REMARK    5  A    between atoms: C_26  and  N_23 
REMARK    6  A    between atoms: C_24  and  C_26 
REMARK    7  A    between atoms: C_27  and  C_24 
REMARK    8  A    between atoms: O_25  and  C_27 
ROOT
ATOM      1  N   UNL d   1      56.011   0.267  32.960  0.00  0.00    -0.229 N 
ATOM      2  C   UNL d   1      56.340   0.476  33.704  0.00  0.00     0.090 A 
ATOM      3  N   UNL d   1      55.203   0.280  33.034  0.00  0.00    -0.161 NA
ATOM      4  C   UNL d   1      55.004   0.494  33.810  0.00  0.00     0.174 A 
ATOM      5  C   UNL d   1      55.716   0.614  34.224  0.00  0.00     0.044 A 
ENDROOT
BRANCH   1   6
ATOM      6  C   UNL d   1      56.432   0.081  32.278  0.00  0.00     0.083 A 
ATOM      7  C   UNL d   1      56.683  -0.695  32.146  0.00  0.00     0.019 A 
ATOM      8  C   UNL d   1      57.105  -0.888  31.464  0.00  0.00     0.006 A 
ATOM      9  C   UNL d   1      57.278  -0.293  30.910  0.00  0.00     0.058 A 
ATOM     10  C   UNL d   1      57.025   0.487  31.046  0.00  0.00     0.006 A 
ATOM     11  C   UNL d   1      56.606   0.668  31.724  0.00  0.00     0.019 A 
BRANCH   9  12
ATOM     12  C   UNL d   1      57.704  -0.483  30.222  0.00  0.00     0.279 C 
ATOM     13  O   UNL d   1      57.667   0.010  29.564  0.00  0.00    -0.265 OA
ATOM     14  N   UNL d   1      58.163  -1.164  30.199  0.00  0.00    -0.206 NA
BRANCH  14  15
ATOM     15  C   UNL d   1      58.586  -1.357  29.521  0.00  0.00     0.104 C 
BRANCH  15  16
ATOM     16  C   UNL d   1      59.086  -2.012  29.511  0.00  0.00     0.047 C 
BRANCH  16  17
ATOM     17  C   UNL d   1      59.556  -2.169  28.847  0.00  0.00     0.118 C 
BRANCH  17  18
ATOM     18  O   UNL d   1      59.627  -2.946  28.577  0.00  0.00    -0.326 OA
ATOM     19  C   UNL d   1      60.362  -3.334  28.620  0.00  0.00     0.181 C 
ENDBRANCH  17  18
ENDBRANCH  16  17
ENDBRANCH  15  16
ENDBRANCH  14  15
ENDBRANCH   9  12
ENDBRANCH   1   6
BRANCH   2  20
ATOM     20  C   UNL d   1      57.121   0.554  33.962  0.00  0.00     0.047 A 
ATOM     21  S   UNL d   1      57.913   0.637  33.710  0.00  0.00    -0.085 SA
ATOM     22  C   UNL d   1      58.391   0.681  34.387  0.00  0.00     0.035 A 
ATOM     23  C   UNL d   1      57.896   0.627  35.040  0.00  0.00     0.007 A 
ATOM     24  C   UNL d   1      57.120   0.549  34.783  0.00  0.00     0.009 A 
ENDBRANCH   2  20
BRANCH   4  25
ATOM     25  C   UNL d   1      54.244   0.573  34.120  0.00  0.00     0.437 C 
ATOM     26  F   UNL d   1      53.548   0.645  34.400  0.00  0.00    -0.164 F 
ATOM     27  F   UNL d   1      53.487   0.570  33.707  0.00  0.00    -0.164 F 
ATOM     28  F   UNL d   1      53.994   0.681  34.942  0.00  0.00    -0.164 F 
ENDBRANCH   4  25
TORSDOF 8
ENDMDL
MODEL 2
REMARK VINA RESULT:      -0.5      3.643      6.097
REMARK  8 active torsions:
REMARK  status: ('A' for Active; 'I' for Inactive)
REMARK    1  A    between atoms: C_9  and  N_1 
REMARK    2  A    between atoms: C_7  and  C_2 
REMARK    3  A    between atoms: C_6  and  C_4 
REMARK    4  A    between atoms: C_8  and  C_11 
REMARK       I    between atoms: N_23  and  C_8 
REMARK    5  A    between atoms: C_26  and  N_23 
REMARK    6  A    between atoms: C_24  and  C_26 
REMARK    7  A    between atoms: C_27  and  C_24 
REMARK    8  A    between atoms: O_25  and  C_27 
ROOT
ATOM      1  N   UNL d   1      59.109  -1.690  29.520  0.00  0.00    -0.229 N 
ATOM      2  C   UNL d   1      59.790  -1.426  29.103  0.00  0.00     0.090 A 
ATOM      3  N   UNL d   1      59.055  -2.494  29.423  0.00  0.00    -0.161 NA
ATOM      4  C   UNL d   1      59.687  -2.754  28.952  0.00  0.00     0.174 A 
ATOM      5  C   UNL d   1      60.142  -2.085  28.755  0.00  0.00     0.044 A 
ENDROOT
BRANCH   1   6
ATOM      6  C   UNL d   1      58.591  -1.218  29.949  0.00  0.00     0.083 A 
ATOM      7  C   UNL d   1      57.998  -0.794  29.559  0.00  0.00     0.019 A 
ATOM      8  C   UNL d   1      57.475  -0.319  29.983  0.00  0.00     0.006 A 
ATOM      9  C   UNL d   1      57.548  -0.270  30.809  0.00  0.00     0.058 A 
ATOM     10  C   UNL d   1      58.144  -0.698  31.200  0.00  0.00     0.006 A 
ATOM     11  C   UNL d   1      58.659  -1.166  30.771  0.00  0.00     0.019 A 
BRANCH   9  12
ATOM     12  C   UNL d   1      57.022   0.208  31.242  0.00  0.00     0.279 C 
ATOM     13  O   UNL d   1      56.471   0.677  30.851  0.00  0.00    -0.265 OA
ATOM     14  N   UNL d   1      57.053   0.211  32.063  0.00  0.00    -0.206 NA
BRANCH  14  15
ATOM     15  C   UNL d   1      56.537   0.681  32.497  0.00  0.00     0.104 C 
BRANCH  15  16
ATOM     16  C   UNL d   1      56.497   0.614  33.317  0.00  0.00     0.047 C 
BRANCH  16  17
ATOM     17  C   UNL d   1      55.793   0.372  33.683  0.00  0.00     0.118 C 
BRANCH  17  18
ATOM     18  O   UNL d   1      55.788   0.234  34.497  0.00  0.00    -0.326 OA
ATOM     19  C   UNL d   1      55.189   0.566  34.969  0.00  0.00     0.181 C 
ENDBRANCH  17  18
ENDBRANCH  16  17
ENDBRANCH  15  16
ENDBRANCH  14  15
ENDBRANCH   9  12
ENDBRANCH   1   6
BRANCH   2  20
ATOM     20  C   UNL d   1      60.122  -0.677  29.003  0.00  0.00     0.047 A 
ATOM     21  S   UNL d   1      60.047   0.048  28.595  0.00  0.00    -0.085 SA
ATOM     22  C   UNL d   1      60.666   0.543  28.842  0.00  0.00     0.035 A 
ATOM     23  C   UNL d   1      61.111   0.124  29.391  0.00  0.00     0.007 A 
ATOM     24  C   UNL d   1      60.780  -0.622  29.491  0.00  0.00     0.009 A 
ENDBRANCH   2  20
BRANCH   4  25
ATOM     25  C   UNL d   1      59.841  -3.531  28.719  0.00  0.00     0.437 C 
ATOM     26  F   UNL d   1      59.978  -4.240  28.506  0.00  0.00    -0.164 F 
ATOM     27  F   UNL d   1      59.291  -4.188  28.627  0.00  0.00    -0.164 F 
ATOM     28  F   UNL d   1      60.593  -3.900  28.502  0.00  0.00    -0.164 F 
ENDBRANCH   4  25
TORSDOF 8
ENDMDL
