MODEL 1
REMARK VINA RESULT:      -7.6      0.000      0.000
REMARK  6 active torsions:
REMARK  status: ('A' for Active; 'I' for Inactive)
REMARK    1  A    between atoms: C_8  and  C_3 
REMARK    2  A    between atoms: C_6  and  O_10 
REMARK    3  A    between atoms: S_9  and  C_8 
REMARK    4  A    between atoms: C_16  and  S_9 
REMARK    5  A    between atoms: O_10  and  C_17 
REMARK    6  A    between atoms: C_17  and  C_16 
ROOT
ATOM      1  S   UNL d   1      50.866  34.095  52.954  0.00  0.00    -0.081 SA
ENDROOT
BRANCH   1   2
ATOM      2  C   UNL d   1      50.262  34.346  52.455  0.00  0.00     0.074 C 
BRANCH   2   3
ATOM      3  C   UNL d   1      49.673  34.843  52.743  0.00  0.00     0.169 A 
ATOM      4  N   UNL d   1      49.305  35.340  53.307  0.00  0.00    -0.225 NA
ATOM      5  C   UNL d   1      48.586  35.618  52.978  0.00  0.00     0.101 A 
ATOM      6  C   UNL d   1      48.519  35.289  52.215  0.00  0.00     0.101 A 
ATOM      7  C   UNL d   1      47.985  36.118  53.257  0.00  0.00     0.021 A 
ATOM      8  N   UNL d   1      49.186  34.811  52.062  0.00  0.00    -0.225 NA
ATOM      9  C   UNL d   1      47.853  35.468  51.746  0.00  0.00     0.021 A 
ATOM     10  C   UNL d   1      47.271  35.961  52.035  0.00  0.00     0.002 A 
ATOM     11  C   UNL d   1      47.337  36.286  52.790  0.00  0.00     0.002 A 
ENDBRANCH   2   3
ENDBRANCH   1   2
BRANCH   1  12
ATOM     12  C   UNL d   1      51.587  33.854  52.637  0.00  0.00     0.062 C 
BRANCH  12  13
ATOM     13  C   UNL d   1      52.144  33.483  53.117  0.00  0.00     0.130 C 
BRANCH  13  14
ATOM     14  O   UNL d   1      52.564  32.836  52.824  0.00  0.00    -0.305 OA
BRANCH  14  15
ATOM     15  C   UNL d   1      53.073  32.891  53.471  0.00  0.00     0.100 A 
ATOM     16  C   UNL d   1      53.447  32.223  53.756  0.00  0.00     0.023 A 
ATOM     17  C   UNL d   1      53.313  31.488  53.392  0.00  0.00     0.002 C 
ATOM     18  C   UNL d   1      53.957  32.274  54.402  0.00  0.00     0.002 A 
ATOM     19  C   UNL d   1      54.089  33.000  54.762  0.00  0.00     0.000 A 
ATOM     20  C   UNL d   1      53.709  33.676  54.471  0.00  0.00     0.002 A 
ATOM     21  C   UNL d   1      53.200  33.616  53.824  0.00  0.00     0.025 A 
ENDBRANCH  14  15
ENDBRANCH  13  14
ENDBRANCH  12  13
ENDBRANCH   1  12
TORSDOF 6
ENDMDL
MODEL 2
REMARK VINA RESULT:      -7.3      1.531      5.527
REMARK  6 active torsions:
REMARK  status: ('A' for Active; 'I' for Inactive)
REMARK    1  A    between atoms: C_8  and  C_3 
REMARK    2  A    between atoms: C_6  and  O_10 
REMARK    3  A    between atoms: S_9  and  C_8 
REMARK    4  A    between atoms: C_16  and  S_9 
REMARK    5  A    between atoms: O_10  and  C_17 
REMARK    6  A    between atoms: C_17  and  C_16 
ROOT
ATOM      1  S   UNL d   1      50.931  34.325  53.025  0.00  0.00    -0.081 SA
ENDROOT
BRANCH   1   2
ATOM      2  C   UNL d   1      51.503  33.745  53.143  0.00  0.00     0.074 C 
BRANCH   2   3
ATOM      3  C   UNL d   1      52.139  33.893  53.643  0.00  0.00     0.169 A 
ATOM      4  N   UNL d   1      52.599  34.345  54.177  0.00  0.00    -0.225 NA
ATOM      5  C   UNL d   1      53.266  33.888  54.395  0.00  0.00     0.101 A 
ATOM      6  C   UNL d   1      53.211  33.160  53.994  0.00  0.00     0.101 A 
ATOM      7  C   UNL d   1      53.914  34.025  54.897  0.00  0.00     0.021 A 
ATOM      8  N   UNL d   1      52.518  33.155  53.528  0.00  0.00    -0.225 NA
ATOM      9  C   UNL d   1      53.803  32.583  54.103  0.00  0.00     0.021 A 
ATOM     10  C   UNL d   1      54.433  32.733  54.600  0.00  0.00     0.002 A 
ATOM     11  C   UNL d   1      54.488  33.454  54.997  0.00  0.00     0.002 A 
ENDBRANCH   2   3
ENDBRANCH   1   2
BRANCH   1  12
ATOM     12  C   UNL d   1      50.206  34.125  52.692  0.00  0.00     0.062 C 
BRANCH  12  13
ATOM     13  C   UNL d   1      49.625  34.701  52.593  0.00  0.00     0.130 C 
BRANCH  13  14
ATOM     14  O   UNL d   1      49.206  34.735  51.884  0.00  0.00    -0.305 OA
BRANCH  14  15
ATOM     15  C   UNL d   1      48.660  35.237  52.246  0.00  0.00     0.100 A 
ATOM     16  C   UNL d   1      47.984  35.463  51.848  0.00  0.00     0.023 A 
ATOM     17  C   UNL d   1      47.848  35.187  51.076  0.00  0.00     0.002 C 
ATOM     18  C   UNL d   1      47.436  35.965  52.207  0.00  0.00     0.002 A 
ATOM     19  C   UNL d   1      47.571  36.237  52.969  0.00  0.00     0.000 A 
ATOM     20  C   UNL d   1      48.257  36.006  53.371  0.00  0.00     0.002 A 
ATOM     21  C   UNL d   1      48.800  35.505  53.005  0.00  0.00     0.025 A 
ENDBRANCH  14  15
ENDBRANCH  13  14
ENDBRANCH  12  13
ENDBRANCH   1  12
TORSDOF 6
ENDMDL
MODEL 3
REMARK VINA RESULT:      -5.1     10.043     10.985
REMARK  6 active torsions:
REMARK  status: ('A' for Active; 'I' for Inactive)
REMARK    1  A    between atoms: C_8  and  C_3 
REMARK    2  A    between atoms: C_6  and  O_10 
REMARK    3  A    between atoms: S_9  and  C_8 
REMARK    4  A    between atoms: C_16  and  S_9 
REMARK    5  A    between atoms: O_10  and  C_17 
REMARK    6  A    between atoms: C_17  and  C_16 
ROOT
ATOM      1  S   UNL d   1      44.980  27.335  57.363  0.00  0.00    -0.081 SA
ENDROOT
BRANCH   1   2
ATOM      2  C   UNL d   1      44.705  26.563  57.428  0.00  0.00     0.074 C 
BRANCH   2   3
ATOM      3  C   UNL d   1      44.804  26.038  56.802  0.00  0.00     0.169 A 
ATOM      4  N   UNL d   1      45.020  25.812  56.025  0.00  0.00    -0.225 NA
ATOM      5  C   UNL d   1      44.867  24.992  55.943  0.00  0.00     0.101 A 
ATOM      6  C   UNL d   1      44.559  24.723  56.668  0.00  0.00     0.101 A 
ATOM      7  C   UNL d   1      44.963  24.454  55.318  0.00  0.00     0.021 A 
ATOM      8  N   UNL d   1      44.516  25.362  57.203  0.00  0.00    -0.225 NA
ATOM      9  C   UNL d   1      44.351  23.920  56.754  0.00  0.00     0.021 A 
ATOM     10  C   UNL d   1      44.451  23.403  56.131  0.00  0.00     0.002 A 
ATOM     11  C   UNL d   1      44.756  23.670  55.413  0.00  0.00     0.002 A 
ENDBRANCH   2   3
ENDBRANCH   1   2
BRANCH   1  12
ATOM     12  C   UNL d   1      44.735  27.905  57.904  0.00  0.00     0.062 C 
BRANCH  12  13
ATOM     13  C   UNL d   1      44.916  28.698  57.777  0.00  0.00     0.130 C 
BRANCH  13  14
ATOM     14  O   UNL d   1      45.318  29.121  58.361  0.00  0.00    -0.305 OA
BRANCH  14  15
ATOM     15  C   UNL d   1      45.064  29.823  58.009  0.00  0.00     0.100 A 
ATOM     16  C   UNL d   1      45.025  30.509  58.448  0.00  0.00     0.023 A 
ATOM     17  C   UNL d   1      45.240  30.500  59.250  0.00  0.00     0.002 C 
ATOM     18  C   UNL d   1      44.772  31.213  58.100  0.00  0.00     0.002 A 
ATOM     19  C   UNL d   1      44.559  31.223  57.307  0.00  0.00     0.000 A 
ATOM     20  C   UNL d   1      44.600  30.525  56.864  0.00  0.00     0.002 A 
ATOM     21  C   UNL d   1      44.854  29.825  57.220  0.00  0.00     0.025 A 
ENDBRANCH  14  15
ENDBRANCH  13  14
ENDBRANCH  12  13
ENDBRANCH   1  12
TORSDOF 6
ENDMDL
MODEL 4
REMARK VINA RESULT:      -5.0     10.069     10.561
REMARK  6 active torsions:
REMARK  status: ('A' for Active; 'I' for Inactive)
REMARK    1  A    between atoms: C_8  and  C_3 
REMARK    2  A    between atoms: C_6  and  O_10 
REMARK    3  A    between atoms: S_9  and  C_8 
REMARK    4  A    between atoms: C_16  and  S_9 
REMARK    5  A    between atoms: O_10  and  C_17 
REMARK    6  A    between atoms: C_17  and  C_16 
ROOT
ATOM      1  S   UNL d   1      44.929  27.117  56.825  0.00  0.00    -0.081 SA
ENDROOT
BRANCH   1   2
ATOM      2  C   UNL d   1      45.242  27.646  57.372  0.00  0.00     0.074 C 
BRANCH   2   3
ATOM      3  C   UNL d   1      45.063  28.447  57.316  0.00  0.00     0.169 A 
ATOM      4  N   UNL d   1      44.792  29.141  56.935  0.00  0.00    -0.225 NA
ATOM      5  C   UNL d   1      44.856  29.776  57.479  0.00  0.00     0.101 A 
ATOM      6  C   UNL d   1      45.166  29.466  58.187  0.00  0.00     0.101 A 
ATOM      7  C   UNL d   1      44.680  30.586  57.434  0.00  0.00     0.021 A 
ATOM      8  N   UNL d   1      45.297  28.647  58.095  0.00  0.00    -0.225 NA
ATOM      9  C   UNL d   1      45.294  29.973  58.837  0.00  0.00     0.021 A 
ATOM     10  C   UNL d   1      45.115  30.767  58.778  0.00  0.00     0.002 A 
ATOM     11  C   UNL d   1      44.808  31.073  58.076  0.00  0.00     0.002 A 
ENDBRANCH   2   3
ENDBRANCH   1   2
BRANCH   1  12
ATOM     12  C   UNL d   1      45.187  26.335  56.816  0.00  0.00     0.062 C 
BRANCH  12  13
ATOM     13  C   UNL d   1      44.804  25.781  56.343  0.00  0.00     0.130 C 
BRANCH  13  14
ATOM     14  O   UNL d   1      44.503  25.094  56.687  0.00  0.00    -0.305 OA
BRANCH  14  15
ATOM     15  C   UNL d   1      44.510  24.735  55.944  0.00  0.00     0.100 A 
ATOM     16  C   UNL d   1      44.711  23.947  55.872  0.00  0.00     0.023 A 
ATOM     17  C   UNL d   1      44.908  23.508  56.549  0.00  0.00     0.002 C 
ATOM     18  C   UNL d   1      44.719  23.585  55.131  0.00  0.00     0.002 A 
ATOM     19  C   UNL d   1      44.524  24.018  54.462  0.00  0.00     0.000 A 
ATOM     20  C   UNL d   1      44.320  24.817  54.538  0.00  0.00     0.002 A 
ATOM     21  C   UNL d   1      44.314  25.172  55.283  0.00  0.00     0.025 A 
ENDBRANCH  14  15
ENDBRANCH  13  14
ENDBRANCH  12  13
ENDBRANCH   1  12
TORSDOF 6
ENDMDL
MODEL 5
REMARK VINA RESULT:      -4.8     10.608     11.507
REMARK  6 active torsions:
REMARK  status: ('A' for Active; 'I' for Inactive)
REMARK    1  A    between atoms: C_8  and  C_3 
REMARK    2  A    between atoms: C_6  and  O_10 
REMARK    3  A    between atoms: S_9  and  C_8 
REMARK    4  A    between atoms: C_16  and  S_9 
REMARK    5  A    between atoms: O_10  and  C_17 
REMARK    6  A    between atoms: C_17  and  C_16 
ROOT
ATOM      1  S   UNL d   1      44.734  25.968  56.339  0.00  0.00    -0.081 SA
ENDROOT
BRANCH   1   2
ATOM      2  C   UNL d   1      44.544  25.440  55.737  0.00  0.00     0.074 C 
BRANCH   2   3
ATOM      3  C   UNL d   1      44.803  24.661  55.779  0.00  0.00     0.169 A 
ATOM      4  N   UNL d   1      45.118  23.983  56.156  0.00  0.00    -0.225 NA
ATOM      5  C   UNL d   1      45.163  23.369  55.587  0.00  0.00     0.101 A 
ATOM      6  C   UNL d   1      44.877  23.675  54.867  0.00  0.00     0.101 A 
ATOM      7  C   UNL d   1      45.422  22.580  55.617  0.00  0.00     0.021 A 
ATOM      8  N   UNL d   1      44.653  24.471  54.977  0.00  0.00    -0.225 NA
ATOM      9  C   UNL d   1      44.855  23.187  54.191  0.00  0.00     0.021 A 
ATOM     10  C   UNL d   1      45.113  22.414  54.237  0.00  0.00     0.002 A 
ATOM     11  C   UNL d   1      45.396  22.111  54.950  0.00  0.00     0.002 A 
ENDBRANCH   2   3
ENDBRANCH   1   2
BRANCH   1  12
ATOM     12  C   UNL d   1      44.439  26.737  56.319  0.00  0.00     0.062 C 
BRANCH  12  13
ATOM     13  C   UNL d   1      44.808  27.330  56.756  0.00  0.00     0.130 C 
BRANCH  13  14
ATOM     14  O   UNL d   1      45.060  28.017  56.374  0.00  0.00    -0.305 OA
BRANCH  14  15
ATOM     15  C   UNL d   1      45.062  28.405  57.102  0.00  0.00     0.100 A 
ATOM     16  C   UNL d   1      44.910  29.206  57.139  0.00  0.00     0.023 A 
ATOM     17  C   UNL d   1      44.754  29.630  56.442  0.00  0.00     0.002 C 
ATOM     18  C   UNL d   1      44.912  29.597  57.866  0.00  0.00     0.002 A 
ATOM     19  C   UNL d   1      45.066  29.179  58.554  0.00  0.00     0.000 A 
ATOM     20  C   UNL d   1      45.220  28.366  58.514  0.00  0.00     0.002 A 
ATOM     21  C   UNL d   1      45.217  27.983  57.784  0.00  0.00     0.025 A 
ENDBRANCH  14  15
ENDBRANCH  13  14
ENDBRANCH  12  13
ENDBRANCH   1  12
TORSDOF 6
ENDMDL
MODEL 6
REMARK VINA RESULT:      -4.7     11.225     11.695
REMARK  6 active torsions:
REMARK  status: ('A' for Active; 'I' for Inactive)
REMARK    1  A    between atoms: C_8  and  C_3 
REMARK    2  A    between atoms: C_6  and  O_10 
REMARK    3  A    between atoms: S_9  and  C_8 
REMARK    4  A    between atoms: C_16  and  S_9 
REMARK    5  A    between atoms: O_10  and  C_17 
REMARK    6  A    between atoms: C_17  and  C_16 
ROOT
ATOM      1  S   UNL d   1      44.853  26.258  58.556  0.00  0.00    -0.081 SA
ENDROOT
BRANCH   1   2
ATOM      2  C   UNL d   1      44.712  26.917  59.027  0.00  0.00     0.074 C 
BRANCH   2   3
ATOM      3  C   UNL d   1      44.882  27.670  58.741  0.00  0.00     0.169 A 
ATOM      4  N   UNL d   1      45.130  28.228  58.170  0.00  0.00    -0.225 NA
ATOM      5  C   UNL d   1      45.086  28.990  58.516  0.00  0.00     0.101 A 
ATOM      6  C   UNL d   1      44.811  28.893  59.296  0.00  0.00     0.101 A 
ATOM      7  C   UNL d   1      45.254  29.755  58.239  0.00  0.00     0.021 A 
ATOM      8  N   UNL d   1      44.682  28.081  59.443  0.00  0.00    -0.225 NA
ATOM      9  C   UNL d   1      44.709  29.562  59.784  0.00  0.00     0.021 A 
ATOM     10  C   UNL d   1      44.879  30.306  59.497  0.00  0.00     0.002 A 
ATOM     11  C   UNL d   1      45.152  30.403  58.724  0.00  0.00     0.002 A 
ENDBRANCH   2   3
ENDBRANCH   1   2
BRANCH   1  12
ATOM     12  C   UNL d   1      44.426  25.565  58.680  0.00  0.00     0.062 C 
BRANCH  12  13
ATOM     13  C   UNL d   1      44.683  24.858  58.344  0.00  0.00     0.130 C 
BRANCH  13  14
ATOM     14  O   UNL d   1      44.332  24.590  57.647  0.00  0.00    -0.305 OA
BRANCH  14  15
ATOM     15  C   UNL d   1      44.615  23.833  57.811  0.00  0.00     0.100 A 
ATOM     16  C   UNL d   1      44.802  23.325  57.201  0.00  0.00     0.023 A 
ATOM     17  C   UNL d   1      44.706  23.572  56.413  0.00  0.00     0.002 C 
ATOM     18  C   UNL d   1      45.086  22.567  57.361  0.00  0.00     0.002 A 
ATOM     19  C   UNL d   1      45.180  22.322  58.138  0.00  0.00     0.000 A 
ATOM     20  C   UNL d   1      44.990  22.840  58.756  0.00  0.00     0.002 A 
ATOM     21  C   UNL d   1      44.707  23.596  58.587  0.00  0.00     0.025 A 
ENDBRANCH  14  15
ENDBRANCH  13  14
ENDBRANCH  12  13
ENDBRANCH   1  12
TORSDOF 6
ENDMDL
