MODEL 1
REMARK VINA RESULT:      17.9      0.000      0.000
REMARK  0 active torsions:
REMARK  status: ('A' for Active; 'I' for Inactive)
ROOT
ATOM      1  C   UNL d   1      58.773  49.705  49.881  0.00  0.00     0.180 A 
ATOM      2  C   UNL d   1      58.383  49.706  50.615  0.00  0.00     0.118 A 
ATOM      3  N   UNL d   1      58.812  49.706  51.313  0.00  0.00    -0.241 NA
ATOM      4  N   UNL d   1      58.200  49.705  49.287  0.00  0.00    -0.225 NA
ATOM      5  N   UNL d   1      59.597  49.705  49.861  0.00  0.00    -0.224 NA
ATOM      6  C   UNL d   1      57.569  49.706  50.465  0.00  0.00     0.038 A 
ATOM      7  C   UNL d   1      57.453  49.706  49.646  0.00  0.00     0.085 A 
ATOM      8  C   UNL d   1      59.634  49.706  51.285  0.00  0.00     0.099 A 
ATOM      9  C   UNL d   1      60.025  49.705  50.559  0.00  0.00     0.101 A 
ATOM     10  C   UNL d   1      56.916  49.707  50.975  0.00  0.00     0.003 A 
ATOM     11  C   UNL d   1      56.683  49.706  49.329  0.00  0.00     0.019 A 
ATOM     12  C   UNL d   1      60.070  49.706  51.982  0.00  0.00     0.021 A 
ATOM     13  C   UNL d   1      60.844  49.705  50.536  0.00  0.00     0.021 A 
ATOM     14  C   UNL d   1      56.150  49.707  50.657  0.00  0.00     0.000 A 
ATOM     15  C   UNL d   1      56.034  49.707  49.839  0.00  0.00     0.002 A 
ATOM     16  C   UNL d   1      60.890  49.706  51.958  0.00  0.00     0.002 A 
ATOM     17  C   UNL d   1      61.280  49.705  51.232  0.00  0.00     0.002 A 
ENDROOT
TORSDOF 0
ENDMDL
MODEL 2
REMARK VINA RESULT:      18.0      0.348      3.402
REMARK  0 active torsions:
REMARK  status: ('A' for Active; 'I' for Inactive)
ROOT
ATOM      1  C   UNL d   1      58.983  49.684  49.946  0.00  0.00     0.180 A 
ATOM      2  C   UNL d   1      58.836  49.695  50.764  0.00  0.00     0.118 A 
ATOM      3  N   UNL d   1      58.069  49.702  51.049  0.00  0.00    -0.241 NA
ATOM      4  N   UNL d   1      59.801  49.680  49.832  0.00  0.00    -0.225 NA
ATOM      5  N   UNL d   1      58.347  49.679  49.422  0.00  0.00    -0.224 NA
ATOM      6  C   UNL d   1      59.570  49.698  51.148  0.00  0.00     0.038 A 
ATOM      7  C   UNL d   1      60.166  49.688  50.576  0.00  0.00     0.085 A 
ATOM      8  C   UNL d   1      57.439  49.697  50.519  0.00  0.00     0.099 A 
ATOM      9  C   UNL d   1      57.580  49.686  49.707  0.00  0.00     0.101 A 
ATOM     10  C   UNL d   1      59.769  49.708  51.952  0.00  0.00     0.003 A 
ATOM     11  C   UNL d   1      60.968  49.688  50.802  0.00  0.00     0.019 A 
ATOM     12  C   UNL d   1      56.666  49.704  50.798  0.00  0.00     0.021 A 
ATOM     13  C   UNL d   1      56.950  49.681  49.183  0.00  0.00     0.021 A 
ATOM     14  C   UNL d   1      60.567  49.708  52.175  0.00  0.00     0.000 A 
ATOM     15  C   UNL d   1      61.164  49.698  51.604  0.00  0.00     0.002 A 
ATOM     16  C   UNL d   1      56.035  49.699  50.274  0.00  0.00     0.002 A 
ATOM     17  C   UNL d   1      56.177  49.688  49.462  0.00  0.00     0.002 A 
ENDROOT
TORSDOF 0
ENDMDL
