MODEL 1
REMARK VINA RESULT:      -2.5      0.000      0.000
REMARK  1 active torsions:
REMARK  status: ('A' for Active; 'I' for Inactive)
REMARK       I    between atoms: N_4  and  C_1 
REMARK    1  A    between atoms: C_9  and  N_4 
ROOT
ATOM      1  C   UNL d   1      31.010  16.624 -23.768  0.00  0.00     0.121 A 
ATOM      2  C   UNL d   1      30.360  16.120 -23.737  0.00  0.00     0.046 A 
ATOM      3  C   UNL d   1      31.004  17.269 -24.281  0.00  0.00     0.119 A 
ATOM      4  O   UNL d   1      31.728  16.629 -23.366  0.00  0.00    -0.299 OA
ATOM      5  O   UNL d   1      31.723  17.672 -24.193  0.00  0.00    -0.300 OA
ATOM      6  C   UNL d   1      29.698  16.261 -24.223  0.00  0.00     0.102 A 
ATOM      7  C   UNL d   1      32.167  17.280 -23.632  0.00  0.00     0.304 A 
ATOM      8  C   UNL d   1      30.349  17.409 -24.762  0.00  0.00     0.028 A 
ATOM      9  C   UNL d   1      29.692  16.905 -24.736  0.00  0.00     0.022 A 
ENDROOT
BRANCH   6  10
ATOM     10  N   UNL d   1      29.039  15.747 -24.190  0.00  0.00    -0.056 NA
ATOM     11  C   UNL d   1      28.363  15.960 -23.756  0.00  0.00     0.787 C 
ATOM     12  N   UNL d   1      27.716  15.453 -23.725  0.00  0.00     0.064 N 
ATOM     13  N   UNL d   1      28.339  16.680 -23.356  0.00  0.00     0.064 N 
ENDBRANCH   6  10
TORSDOF 1
ENDMDL
MODEL 2
REMARK VINA RESULT:      -2.5      2.136      3.123
REMARK  1 active torsions:
REMARK  status: ('A' for Active; 'I' for Inactive)
REMARK       I    between atoms: N_4  and  C_1 
REMARK    1  A    between atoms: C_9  and  N_4 
ROOT
ATOM      1  C   UNL d   1      29.495  16.376 -23.935  0.00  0.00     0.121 A 
ATOM      2  C   UNL d   1      30.224  16.486 -24.303  0.00  0.00     0.046 A 
ATOM      3  C   UNL d   1      29.433  15.859 -23.297  0.00  0.00     0.119 A 
ATOM      4  O   UNL d   1      28.750  16.695 -24.075  0.00  0.00    -0.299 OA
ATOM      5  O   UNL d   1      28.644  15.861 -23.044  0.00  0.00    -0.300 OA
ATOM      6  C   UNL d   1      30.895  16.076 -24.030  0.00  0.00     0.102 A 
ATOM      7  C   UNL d   1      28.225  16.373 -23.520  0.00  0.00     0.304 A 
ATOM      8  C   UNL d   1      30.098  15.453 -23.027  0.00  0.00     0.028 A 
ATOM      9  C   UNL d   1      30.833  15.559 -23.392  0.00  0.00     0.022 A 
ENDROOT
BRANCH   6  10
ATOM     10  N   UNL d   1      31.634  16.190 -24.405  0.00  0.00    -0.056 NA
ATOM     11  C   UNL d   1      32.184  16.730 -24.094  0.00  0.00     0.787 C 
ATOM     12  N   UNL d   1      32.910  16.840 -24.465  0.00  0.00     0.064 N 
ATOM     13  N   UNL d   1      32.002  17.157 -23.413  0.00  0.00     0.064 N 
ENDBRANCH   6  10
TORSDOF 1
ENDMDL
MODEL 3
REMARK VINA RESULT:      -2.4      0.791      1.293
REMARK  1 active torsions:
REMARK  status: ('A' for Active; 'I' for Inactive)
REMARK       I    between atoms: N_4  and  C_1 
REMARK    1  A    between atoms: C_9  and  N_4 
ROOT
ATOM      1  C   UNL d   1      31.405  17.172 -23.912  0.00  0.00     0.121 A 
ATOM      2  C   UNL d   1      30.684  16.903 -24.204  0.00  0.00     0.046 A 
ATOM      3  C   UNL d   1      31.922  16.645 -23.547  0.00  0.00     0.119 A 
ATOM      4  O   UNL d   1      31.756  17.916 -23.902  0.00  0.00    -0.299 OA
ATOM      5  O   UNL d   1      32.594  17.068 -23.312  0.00  0.00    -0.300 OA
ATOM      6  C   UNL d   1      30.477  16.099 -24.130  0.00  0.00     0.102 A 
ATOM      7  C   UNL d   1      32.493  17.847 -23.530  0.00  0.00     0.304 A 
ATOM      8  C   UNL d   1      31.718  15.849 -23.475  0.00  0.00     0.028 A 
ATOM      9  C   UNL d   1      30.994  15.572 -23.766  0.00  0.00     0.022 A 
ENDROOT
BRANCH   6  10
ATOM     10  N   UNL d   1      29.744  15.828 -24.428  0.00  0.00    -0.056 NA
ATOM     11  C   UNL d   1      29.099  15.720 -23.916  0.00  0.00     0.787 C 
ATOM     12  N   UNL d   1      28.378  15.453 -24.211  0.00  0.00     0.064 N 
ATOM     13  N   UNL d   1      29.178  15.880 -23.112  0.00  0.00     0.064 N 
ENDBRANCH   6  10
TORSDOF 1
ENDMDL
MODEL 4
REMARK VINA RESULT:      -2.3      5.264      6.148
REMARK  1 active torsions:
REMARK  status: ('A' for Active; 'I' for Inactive)
REMARK       I    between atoms: N_4  and  C_1 
REMARK    1  A    between atoms: C_9  and  N_4 
ROOT
ATOM      1  C   UNL d   1      32.251  21.835 -20.940  0.00  0.00     0.121 A 
ATOM      2  C   UNL d   1      32.496  21.050 -20.968  0.00  0.00     0.046 A 
ATOM      3  C   UNL d   1      32.498  22.363 -21.522  0.00  0.00     0.119 A 
ATOM      4  O   UNL d   1      31.772  22.248 -20.413  0.00  0.00    -0.299 OA
ATOM      5  O   UNL d   1      32.169  23.104 -21.352  0.00  0.00    -0.300 OA
ATOM      6  C   UNL d   1      32.993  20.789 -21.584  0.00  0.00     0.102 A 
ATOM      7  C   UNL d   1      31.724  23.034 -20.673  0.00  0.00     0.304 A 
ATOM      8  C   UNL d   1      32.990  22.105 -22.132  0.00  0.00     0.028 A 
ATOM      9  C   UNL d   1      33.240  21.316 -22.166  0.00  0.00     0.022 A 
ENDROOT
BRANCH   6  10
ATOM     10  N   UNL d   1      33.240  19.991 -21.610  0.00  0.00    -0.056 NA
ATOM     11  C   UNL d   1      32.996  19.497 -22.232  0.00  0.00     0.787 C 
ATOM     12  N   UNL d   1      33.241  18.711 -22.255  0.00  0.00     0.064 N 
ATOM     13  N   UNL d   1      32.508  19.791 -22.826  0.00  0.00     0.064 N 
ENDBRANCH   6  10
TORSDOF 1
ENDMDL
MODEL 5
REMARK VINA RESULT:      -2.3      1.074      1.478
REMARK  1 active torsions:
REMARK  status: ('A' for Active; 'I' for Inactive)
REMARK       I    between atoms: N_4  and  C_1 
REMARK    1  A    between atoms: C_9  and  N_4 
ROOT
ATOM      1  C   UNL d   1      31.997  17.443 -23.666  0.00  0.00     0.121 A 
ATOM      2  C   UNL d   1      31.446  16.858 -23.843  0.00  0.00     0.046 A 
ATOM      3  C   UNL d   1      32.130  18.056 -24.201  0.00  0.00     0.119 A 
ATOM      4  O   UNL d   1      32.488  17.565 -23.017  0.00  0.00    -0.299 OA
ATOM      5  O   UNL d   1      32.706  18.556 -23.878  0.00  0.00    -0.300 OA
ATOM      6  C   UNL d   1      31.024  16.885 -24.561  0.00  0.00     0.102 A 
ATOM      7  C   UNL d   1      32.926  18.255 -23.153  0.00  0.00     0.304 A 
ATOM      8  C   UNL d   1      31.712  18.082 -24.911  0.00  0.00     0.028 A 
ATOM      9  C   UNL d   1      31.156  17.496 -25.095  0.00  0.00     0.022 A 
ENDROOT
BRANCH   6  10
ATOM     10  N   UNL d   1      30.464  16.288 -24.738  0.00  0.00    -0.056 NA
ATOM     11  C   UNL d   1      29.654  16.425 -24.616  0.00  0.00     0.787 C 
ATOM     12  N   UNL d   1      29.106  15.836 -24.791  0.00  0.00     0.064 N 
ATOM     13  N   UNL d   1      29.397  17.149 -24.319  0.00  0.00     0.064 N 
ENDBRANCH   6  10
TORSDOF 1
ENDMDL
MODEL 6
REMARK VINA RESULT:      -2.3      1.718      2.350
REMARK  1 active torsions:
REMARK  status: ('A' for Active; 'I' for Inactive)
REMARK       I    between atoms: N_4  and  C_1 
REMARK    1  A    between atoms: C_9  and  N_4 
ROOT
ATOM      1  C   UNL d   1      32.589  17.980 -23.287  0.00  0.00     0.121 A 
ATOM      2  C   UNL d   1      32.262  17.240 -23.441  0.00  0.00     0.046 A 
ATOM      3  C   UNL d   1      32.645  18.537 -23.892  0.00  0.00     0.119 A 
ATOM      4  O   UNL d   1      32.900  18.318 -22.604  0.00  0.00    -0.299 OA
ATOM      5  O   UNL d   1      32.993  19.220 -23.578  0.00  0.00    -0.300 OA
ATOM      6  C   UNL d   1      31.989  17.055 -24.206  0.00  0.00     0.102 A 
ATOM      7  C   UNL d   1      33.149  19.087 -22.789  0.00  0.00     0.304 A 
ATOM      8  C   UNL d   1      32.375  18.353 -24.649  0.00  0.00     0.028 A 
ATOM      9  C   UNL d   1      32.045  17.611 -24.810  0.00  0.00     0.022 A 
ENDROOT
BRANCH   6  10
ATOM     10  N   UNL d   1      31.657  16.303 -24.359  0.00  0.00    -0.056 NA
ATOM     11  C   UNL d   1      30.834  16.195 -24.333  0.00  0.00     0.787 C 
ATOM     12  N   UNL d   1      30.510  15.453 -24.485  0.00  0.00     0.064 N 
ATOM     13  N   UNL d   1      30.339  16.829 -24.155  0.00  0.00     0.064 N 
ENDBRANCH   6  10
TORSDOF 1
ENDMDL
MODEL 7
REMARK VINA RESULT:      -2.2      4.695      5.719
REMARK  1 active torsions:
REMARK  status: ('A' for Active; 'I' for Inactive)
REMARK       I    between atoms: N_4  and  C_1 
REMARK    1  A    between atoms: C_9  and  N_4 
ROOT
ATOM      1  C   UNL d   1      33.209  19.580 -22.080  0.00  0.00     0.121 A 
ATOM      2  C   UNL d   1      33.221  20.071 -21.420  0.00  0.00     0.046 A 
ATOM      3  C   UNL d   1      33.204  19.909 -22.836  0.00  0.00     0.119 A 
ATOM      4  O   UNL d   1      33.201  18.761 -22.163  0.00  0.00    -0.299 OA
ATOM      5  O   UNL d   1      33.193  19.289 -23.385  0.00  0.00    -0.300 OA
ATOM      6  C   UNL d   1      33.227  20.898 -21.514  0.00  0.00     0.102 A 
ATOM      7  C   UNL d   1      33.191  18.585 -22.974  0.00  0.00     0.304 A 
ATOM      8  C   UNL d   1      33.211  20.729 -22.929  0.00  0.00     0.028 A 
ATOM      9  C   UNL d   1      33.222  21.228 -22.268  0.00  0.00     0.022 A 
ENDROOT
BRANCH   6  10
ATOM     10  N   UNL d   1      33.239  21.394 -20.841  0.00  0.00    -0.056 NA
ATOM     11  C   UNL d   1      32.536  21.741 -20.564  0.00  0.00     0.787 C 
ATOM     12  N   UNL d   1      32.551  22.229 -19.901  0.00  0.00     0.064 N 
ATOM     13  N   UNL d   1      31.824  21.596 -20.951  0.00  0.00     0.064 N 
ENDBRANCH   6  10
TORSDOF 1
ENDMDL
MODEL 8
REMARK VINA RESULT:      -2.2      7.357      8.188
REMARK  1 active torsions:
REMARK  status: ('A' for Active; 'I' for Inactive)
REMARK       I    between atoms: N_4  and  C_1 
REMARK    1  A    between atoms: C_9  and  N_4 
ROOT
ATOM      1  C   UNL d   1      33.012  22.726 -18.611  0.00  0.00     0.121 A 
ATOM      2  C   UNL d   1      33.239  22.313 -19.286  0.00  0.00     0.046 A 
ATOM      3  C   UNL d   1      32.557  23.409 -18.683  0.00  0.00     0.119 A 
ATOM      4  O   UNL d   1      33.151  22.599 -17.810  0.00  0.00    -0.299 OA
ATOM      5  O   UNL d   1      32.415  23.702 -17.921  0.00  0.00    -0.300 OA
ATOM      6  C   UNL d   1      33.009  22.584 -20.039  0.00  0.00     0.102 A 
ATOM      7  C   UNL d   1      32.779  23.206 -17.386  0.00  0.00     0.304 A 
ATOM      8  C   UNL d   1      32.329  23.677 -19.429  0.00  0.00     0.028 A 
ATOM      9  C   UNL d   1      32.554  23.266 -20.111  0.00  0.00     0.022 A 
ENDROOT
BRANCH   6  10
ATOM     10  N   UNL d   1      33.241  22.162 -20.723  0.00  0.00    -0.056 NA
ATOM     11  C   UNL d   1      32.735  21.594 -21.056  0.00  0.00     0.787 C 
ATOM     12  N   UNL d   1      32.966  21.180 -21.730  0.00  0.00     0.064 N 
ATOM     13  N   UNL d   1      32.001  21.442 -20.714  0.00  0.00     0.064 N 
ENDBRANCH   6  10
TORSDOF 1
ENDMDL
MODEL 9
REMARK VINA RESULT:      -2.2      3.039      3.892
REMARK  1 active torsions:
REMARK  status: ('A' for Active; 'I' for Inactive)
REMARK       I    between atoms: N_4  and  C_1 
REMARK    1  A    between atoms: C_9  and  N_4 
ROOT
ATOM      1  C   UNL d   1      33.192  19.148 -22.391  0.00  0.00     0.121 A 
ATOM      2  C   UNL d   1      33.185  18.332 -22.502  0.00  0.00     0.046 A 
ATOM      3  C   UNL d   1      33.220  19.650 -23.044  0.00  0.00     0.119 A 
ATOM      4  O   UNL d   1      33.176  19.616 -21.715  0.00  0.00    -0.299 OA
ATOM      5  O   UNL d   1      33.221  20.430 -22.766  0.00  0.00    -0.300 OA
ATOM      6  C   UNL d   1      33.207  18.015 -23.272  0.00  0.00     0.102 A 
ATOM      7  C   UNL d   1      33.194  20.410 -21.951  0.00  0.00     0.304 A 
ATOM      8  C   UNL d   1      33.241  19.336 -23.807  0.00  0.00     0.028 A 
ATOM      9  C   UNL d   1      33.234  18.516 -23.925  0.00  0.00     0.022 A 
ENDROOT
BRANCH   6  10
ATOM     10  N   UNL d   1      33.200  17.186 -23.382  0.00  0.00    -0.056 NA
ATOM     11  C   UNL d   1      32.488  16.791 -23.548  0.00  0.00     0.787 C 
ATOM     12  N   UNL d   1      32.484  15.975 -23.656  0.00  0.00     0.064 N 
ATOM     13  N   UNL d   1      31.784  17.216 -23.605  0.00  0.00     0.064 N 
ENDBRANCH   6  10
TORSDOF 1
ENDMDL
