MODEL 1
REMARK VINA RESULT:      44.0      0.000      0.000
REMARK  3 active torsions:
REMARK  status: ('A' for Active; 'I' for Inactive)
REMARK    1  A    between atoms: N_10  and  C_3 
REMARK    2  A    between atoms: C_11  and  C_5 
REMARK    3  A    between atoms: C_13  and  N_10 
ROOT
ATOM      1  N   UNL d   1      45.968 -17.304  42.677  0.00  0.00    -0.184 N 
ATOM      2  C   UNL d   1      46.153 -18.047  42.334  0.00  0.00     0.168 A 
ATOM      3  C   UNL d   1      46.020 -17.207  43.497  0.00  0.00     0.217 A 
ATOM      4  N   UNL d   1      45.687 -16.780  41.389  0.00  0.00    -0.162 NA
ATOM      5  C   UNL d   1      46.102 -18.142  41.535  0.00  0.00     0.055 A 
ATOM      6  N   UNL d   1      46.383 -18.667  42.824  0.00  0.00    -0.227 NA
ATOM      7  C   UNL d   1      46.249 -17.829  43.966  0.00  0.00     0.066 A 
ATOM      8  C   UNL d   1      45.869 -17.511  41.051  0.00  0.00     0.104 A 
ATOM      9  C   UNL d   1      46.435 -18.575  43.632  0.00  0.00     0.087 A 
ATOM     10  C   UNL d   1      46.349 -17.902  44.769  0.00  0.00     0.006 A 
ATOM     11  C   UNL d   1      45.820 -17.616  40.242  0.00  0.00     0.023 C 
ATOM     12  C   UNL d   1      46.645 -19.088  44.235  0.00  0.00     0.019 A 
ATOM     13  C   UNL d   1      46.590 -18.662  44.946  0.00  0.00     0.002 A 
ENDROOT
BRANCH   3  14
ATOM     14  N   UNL d   1      45.834 -16.459  43.847  0.00  0.00    -0.383 NA
BRANCH  14  15
ATOM     15  C   UNL d   1      45.647 -15.712  44.192  0.00  0.00     0.134 A 
ATOM     16  C   UNL d   1      44.879 -15.590  44.521  0.00  0.00     0.032 A 
ATOM     17  C   UNL d   1      44.685 -14.850  44.866  0.00  0.00     0.003 A 
ATOM     18  C   UNL d   1      45.259 -14.220  44.886  0.00  0.00     0.000 A 
ATOM     19  C   UNL d   1      46.021 -14.356  44.554  0.00  0.00     0.003 A 
ATOM     20  C   UNL d   1      46.217 -15.100  44.207  0.00  0.00     0.032 A 
ENDBRANCH  14  15
ENDBRANCH   3  14
BRANCH   5  21
ATOM     21  C   UNL d   1      46.283 -18.870  41.199  0.00  0.00     0.004 A 
ATOM     22  C   UNL d   1      46.418 -18.930  40.391  0.00  0.00     0.000 A 
ATOM     23  C   UNL d   1      46.598 -19.652  40.053  0.00  0.00     0.000 A 
ATOM     24  C   UNL d   1      46.645 -20.326  40.527  0.00  0.00     0.000 A 
ATOM     25  C   UNL d   1      46.513 -20.275  41.326  0.00  0.00     0.000 A 
ATOM     26  C   UNL d   1      46.330 -19.539  41.665  0.00  0.00     0.000 A 
ENDBRANCH   5  21
TORSDOF 3
ENDMDL
