MODEL 1
REMARK VINA RESULT:      67.7      0.000      0.000
REMARK  6 active torsions:
REMARK  status: ('A' for Active; 'I' for Inactive)
REMARK    1  A    between atoms: C_2  and  N_1 
REMARK    2  A    between atoms: C_4  and  C_2 
REMARK    3  A    between atoms: C_6  and  C_2 
REMARK    4  A    between atoms: C_8  and  N_3 
REMARK       I    between atoms: C_5  and  N_7 
REMARK    5  A    between atoms: O_20  and  C_5 
REMARK    6  A    between atoms: N_7  and  C_6 
ROOT
ATOM      1  N   UNL d   1     -48.448  29.188  34.580  0.00  0.00    -0.298 N 
ATOM      2  N   UNL d   1     -49.399  27.907  34.157  0.00  0.00    -0.301 N 
ATOM      3  C   UNL d   1     -48.224  28.430  34.789  0.00  0.00     0.100 A 
ATOM      4  C   UNL d   1     -49.146  29.314  34.159  0.00  0.00     0.100 A 
ATOM      5  C   UNL d   1     -49.616  28.682  33.950  0.00  0.00     0.100 A 
ATOM      6  C   UNL d   1     -48.701  27.781  34.578  0.00  0.00     0.100 A 
ENDROOT
BRANCH   1   7
ATOM      7  C   UNL d   1     -47.971  29.837  34.791  0.00  0.00     0.107 C 
BRANCH   7   8
ATOM      8  C   UNL d   1     -47.565  29.823  35.526  0.00  0.00     0.118 A 
ATOM      9  O   UNL d   1     -47.954  30.025  36.225  0.00  0.00    -0.304 OA
ATOM     10  C   UNL d   1     -47.407  29.955  36.846  0.00  0.00     0.123 A 
ATOM     11  C   UNL d   1     -46.694  29.715  36.531  0.00  0.00     0.029 A 
ATOM     12  C   UNL d   1     -46.786  29.631  35.712  0.00  0.00     0.028 A 
ENDBRANCH   7   8
BRANCH   7  13
ATOM     13  C   UNL d   1     -47.890  30.490  34.296  0.00  0.00     0.124 C 
BRANCH  13  14
ATOM     14  N   UNL d   1     -47.927  31.262  34.621  0.00  0.00    -0.183 NA
ATOM     15  C   UNL d   1     -47.923  31.914  34.134  0.00  0.00     0.388 C 
ATOM     16  O   UNL d   1     -47.882  31.815  33.313  0.00  0.00    -0.236 OA
BRANCH  15  17
ATOM     17  O   UNL d   1     -47.960  32.669  34.461  0.00  0.00    -0.281 OA
ATOM     18  C   UNL d   1     -47.905  33.334  33.973  0.00  0.00     0.186 C 
ENDBRANCH  15  17
ENDBRANCH  13  14
ENDBRANCH   7  13
ENDBRANCH   1   7
BRANCH   2  19
ATOM     19  C   UNL d   1     -49.868  27.284  33.948  0.00  0.00     0.064 A 
ATOM     20  C   UNL d   1     -50.685  27.337  34.032  0.00  0.00     0.020 A 
ATOM     21  C   UNL d   1     -51.170  26.707  33.821  0.00  0.00     0.031 A 
ATOM     22  C   UNL d   1     -50.835  26.015  33.522  0.00  0.00     0.140 A 
ATOM     23  C   UNL d   1     -50.016  25.957  33.436  0.00  0.00     0.031 A 
ATOM     24  F   UNL d   1     -51.323  25.369  33.306  0.00  0.00    -0.204 F 
ATOM     25  C   UNL d   1     -49.533  26.592  33.649  0.00  0.00     0.020 A 
ENDBRANCH   2  19
TORSDOF 6
ENDMDL
