MODEL 1
REMARK VINA RESULT:       1.2      0.000      0.000
REMARK  1 active torsions:
REMARK  status: ('A' for Active; 'I' for Inactive)
REMARK    1  A    between atoms: C_11  and  C_4 
ROOT
ATOM      1  O   UNL d   1      46.631 -19.476  41.610  0.00  0.00    -0.304 OA
ATOM      2  C   UNL d   1      46.638 -18.904  42.821  0.00  0.00     0.025 A 
ATOM      3  C   UNL d   1      46.640 -18.303  42.248  0.00  0.00     0.030 A 
ATOM      4  C   UNL d   1      46.635 -18.655  41.501  0.00  0.00     0.142 A 
ATOM      5  C   UNL d   1      46.633 -19.624  42.418  0.00  0.00     0.100 A 
ATOM      6  C   UNL d   1      46.641 -18.880  43.636  0.00  0.00     0.009 A 
ATOM      7  C   UNL d   1      46.630 -20.330  42.843  0.00  0.00     0.025 A 
ATOM      8  C   UNL d   1      46.638 -19.584  44.073  0.00  0.00     0.035 A 
ATOM      9  C   UNL d   1      46.633 -20.311  43.673  0.00  0.00     0.009 A 
ATOM     10 BR   UNL d   1      46.641 -19.568  44.896  0.00  0.00    -0.049 Br
ENDROOT
BRANCH   4  11
ATOM     11  C   UNL d   1      46.635 -18.262  40.778  0.00  0.00     0.259 C 
ATOM     12  O   UNL d   1      45.928 -18.084  40.409  0.00  0.00    -0.281 OA
ENDBRANCH   4  11
TORSDOF 1
ENDMDL
MODEL 2
REMARK VINA RESULT:       1.9      7.354      7.590
REMARK  1 active torsions:
REMARK  status: ('A' for Active; 'I' for Inactive)
REMARK    1  A    between atoms: C_11  and  C_4 
ROOT
ATOM      1  O   UNL d   1      45.586 -15.807  36.540  0.00  0.00    -0.304 OA
ATOM      2  C   UNL d   1      44.437 -15.138  36.704  0.00  0.00     0.025 A 
ATOM      3  C   UNL d   1      45.066 -14.618  36.854  0.00  0.00     0.030 A 
ATOM      4  C   UNL d   1      45.774 -15.030  36.754  0.00  0.00     0.142 A 
ATOM      5  C   UNL d   1      44.767 -15.870  36.510  0.00  0.00     0.100 A 
ATOM      6  C   UNL d   1      43.629 -15.035  36.719  0.00  0.00     0.009 A 
ATOM      7  C   UNL d   1      44.275 -16.505  36.330  0.00  0.00     0.025 A 
ATOM      8  C   UNL d   1      43.124 -15.669  36.539  0.00  0.00     0.035 A 
ATOM      9  C   UNL d   1      43.451 -16.406  36.344  0.00  0.00     0.009 A 
ATOM     10 BR   UNL d   1      42.307 -15.572  36.553  0.00  0.00    -0.049 Br
ENDROOT
BRANCH   4  11
ATOM     11  C   UNL d   1      46.533 -14.723  36.849  0.00  0.00     0.259 C 
ATOM     12  O   UNL d   1      46.647 -13.914  36.874  0.00  0.00    -0.281 OA
ENDBRANCH   4  11
TORSDOF 1
ENDMDL
MODEL 3
REMARK VINA RESULT:       2.8      7.149      7.533
REMARK  1 active torsions:
REMARK  status: ('A' for Active; 'I' for Inactive)
REMARK    1  A    between atoms: C_11  and  C_4 
ROOT
ATOM      1  O   UNL d   1      44.216 -16.264  36.330  0.00  0.00    -0.304 OA
ATOM      2  C   UNL d   1      44.617 -15.072  36.792  0.00  0.00     0.025 A 
ATOM      3  C   UNL d   1      43.787 -15.075  36.757  0.00  0.00     0.030 A 
ATOM      4  C   UNL d   1      43.540 -15.808  36.473  0.00  0.00     0.142 A 
ATOM      5  C   UNL d   1      44.873 -15.811  36.527  0.00  0.00     0.100 A 
ATOM      6  C   UNL d   1      45.151 -14.504  37.027  0.00  0.00     0.009 A 
ATOM      7  C   UNL d   1      45.679 -15.978  36.498  0.00  0.00     0.025 A 
ATOM      8  C   UNL d   1      45.965 -14.661  37.002  0.00  0.00     0.035 A 
ATOM      9  C   UNL d   1      46.228 -15.402  36.736  0.00  0.00     0.009 A 
ATOM     10 BR   UNL d   1      46.511 -14.092  37.237  0.00  0.00    -0.049 Br
ENDROOT
BRANCH   4  11
ATOM     11  C   UNL d   1      42.760 -16.046  36.352  0.00  0.00     0.259 C 
ATOM     12  O   UNL d   1      42.160 -15.492  36.343  0.00  0.00    -0.281 OA
ENDBRANCH   4  11
TORSDOF 1
ENDMDL
MODEL 4
REMARK VINA RESULT:       3.1      5.224      5.797
REMARK  1 active torsions:
REMARK  status: ('A' for Active; 'I' for Inactive)
REMARK    1  A    between atoms: C_11  and  C_4 
ROOT
ATOM      1  O   UNL d   1      44.562 -13.036  43.848  0.00  0.00    -0.304 OA
ATOM      2  C   UNL d   1      45.544 -13.946  43.909  0.00  0.00     0.025 A 
ATOM      3  C   UNL d   1      45.783 -13.336  43.399  0.00  0.00     0.030 A 
ATOM      4  C   UNL d   1      45.179 -12.775  43.361  0.00  0.00     0.142 A 
ATOM      5  C   UNL d   1      44.788 -13.753  44.181  0.00  0.00     0.100 A 
ATOM      6  C   UNL d   1      45.912 -14.632  44.149  0.00  0.00     0.009 A 
ATOM      7  C   UNL d   1      44.400 -14.258  44.702  0.00  0.00     0.025 A 
ATOM      8  C   UNL d   1      45.529 -15.149  44.674  0.00  0.00     0.035 A 
ATOM      9  C   UNL d   1      44.770 -14.959  44.950  0.00  0.00     0.009 A 
ATOM     10 BR   UNL d   1      45.895 -15.843  44.921  0.00  0.00    -0.049 Br
ENDROOT
BRANCH   4  11
ATOM     11  C   UNL d   1      45.187 -12.080  42.919  0.00  0.00     0.259 C 
ATOM     12  O   UNL d   1      45.114 -12.112  42.106  0.00  0.00    -0.281 OA
ENDBRANCH   4  11
TORSDOF 1
ENDMDL
