MODEL 1
REMARK VINA RESULT:      49.7      0.000      0.000
REMARK  5 active torsions:
REMARK  status: ('A' for Active; 'I' for Inactive)
REMARK    1  A    between atoms: C_3  and  S_1 
REMARK    2  A    between atoms: N_6  and  S_1 
REMARK    3  A    between atoms: S_2  and  N_4 
REMARK    4  A    between atoms: C_10  and  S_2 
REMARK    5  A    between atoms: N_4  and  C_5 
ROOT
ATOM      1  C   UNL d   1      14.992  14.125  -0.854  0.00  0.00     0.105 A 
ATOM      2  C   UNL d   1      14.432  12.815  -0.861  0.00  0.00     0.076 A 
ATOM      3  C   UNL d   1      14.427  13.583  -1.138  0.00  0.00     0.031 A 
ATOM      4  C   UNL d   1      15.546  13.876  -0.298  0.00  0.00     0.012 A 
ATOM      5  C   UNL d   1      14.988  12.567  -0.304  0.00  0.00     0.017 A 
ATOM      6  C   UNL d   1      15.547  13.093  -0.019  0.00  0.00     0.002 A 
ATOM      7  C   UNL d   1      14.989  11.782  -0.024  0.00  0.00     0.002 C 
ATOM      8  C   UNL d   1      16.111  14.418  -0.014  0.00  0.00     0.001 C 
ENDROOT
BRANCH   2   9
ATOM      9  N   UNL d   1      13.859  12.296  -1.160  0.00  0.00    -0.229 N 
ATOM     10  C   UNL d   1      13.493  11.779  -0.655  0.00  0.00     0.111 C 
BRANCH   9  11
ATOM     11  S   UNL d   1      13.675  12.313  -1.952  0.00  0.00     0.271 S 
ATOM     12  O   UNL d   1      14.375  11.917  -2.123  0.00  0.00    -0.200 OA
ATOM     13  O   UNL d   1      12.963  12.714  -1.796  0.00  0.00    -0.200 OA
BRANCH  11  14
ATOM     14  C   UNL d   1      13.492  12.327  -2.770  0.00  0.00     0.104 A 
ATOM     15  C   UNL d   1      13.838  11.779  -3.281  0.00  0.00     0.013 A 
ATOM     16  C   UNL d   1      13.657  11.797  -4.074  0.00  0.00     0.001 A 
ATOM     17  C   UNL d   1      13.124  12.368  -4.355  0.00  0.00     0.000 A 
ATOM     18  C   UNL d   1      12.787  12.902  -3.856  0.00  0.00     0.001 A 
ATOM     19  C   UNL d   1      12.931  12.395  -5.170  0.00  0.00     0.000 C 
ATOM     20  C   UNL d   1      12.963  12.892  -3.055  0.00  0.00     0.013 A 
ENDBRANCH  11  14
ENDBRANCH   9  11
ENDBRANCH   2   9
BRANCH   1  21
ATOM     21  S   UNL d   1      15.002  14.908  -1.124  0.00  0.00     0.271 S 
ATOM     22  O   UNL d   1      15.284  14.657  -1.872  0.00  0.00    -0.200 OA
ATOM     23  O   UNL d   1      14.720  15.165  -0.374  0.00  0.00    -0.200 OA
BRANCH  21  24
ATOM     24  N   UNL d   1      15.011  15.693  -1.389  0.00  0.00    -0.229 N 
ATOM     25  C   UNL d   1      15.187  16.304  -0.872  0.00  0.00     0.092 A 
ATOM     26  C   UNL d   1      15.200  17.097  -1.125  0.00  0.00     0.020 A 
ATOM     27  C   UNL d   1      15.033  17.266  -1.910  0.00  0.00     0.003 A 
ATOM     28  C   UNL d   1      14.856  16.648  -2.431  0.00  0.00     0.020 A 
ATOM     29  C   UNL d   1      15.041  18.033  -2.173  0.00  0.00     0.000 C 
ATOM     30  C   UNL d   1      14.847  15.886  -2.172  0.00  0.00     0.092 A 
ENDBRANCH  21  24
ENDBRANCH   1  21
TORSDOF 5
ENDMDL
