MODEL 1
REMARK VINA RESULT:      77.7      0.000      0.000
REMARK  5 active torsions:
REMARK  status: ('A' for Active; 'I' for Inactive)
REMARK    1  A    between atoms: C_8  and  N_1 
REMARK       I    between atoms: N_2  and  C_6 
REMARK    2  A    between atoms: S_11  and  C_3 
REMARK    3  A    between atoms: C_6  and  C_8 
REMARK    4  A    between atoms: C_9  and  C_15 
REMARK       I    between atoms: N_10  and  C_9 
REMARK    5  A    between atoms: C_15  and  S_11 
ROOT
ATOM      1  N   UNL d   1     -55.289-101.923 -40.429  0.00  0.00    -0.300 N 
ATOM      2  C   UNL d   1     -55.451-101.866 -39.108  0.00  0.00     0.049 A 
ATOM      3  C   UNL d   1     -54.934-101.682 -39.725  0.00  0.00     0.087 A 
ATOM      4  C   UNL d   1     -56.121-102.219 -39.431  0.00  0.00     0.024 A 
ATOM      5  C   UNL d   1     -56.019-102.254 -40.249  0.00  0.00     0.065 A 
ATOM      6  C   UNL d   1     -56.807-102.511 -39.087  0.00  0.00     0.002 A 
ATOM      7  C   UNL d   1     -56.607-102.583 -40.726  0.00  0.00     0.018 A 
ATOM      8  C   UNL d   1     -57.400-102.842 -39.561  0.00  0.00     0.000 A 
ATOM      9  C   UNL d   1     -57.293-102.875 -40.382  0.00  0.00     0.002 A 
ENDROOT
BRANCH   1  10
ATOM     10  C   UNL d   1     -54.966-101.846 -41.182  0.00  0.00     0.142 C 
BRANCH  10  11
ATOM     11  C   UNL d   1     -54.963-101.115 -41.556  0.00  0.00     0.283 C 
ATOM     12  N   UNL d   1     -54.901-101.071 -42.376  0.00  0.00    -0.267 N 
ATOM     13  C   UNL d   1     -54.897-100.339 -42.753  0.00  0.00     0.108 A 
ATOM     14  C   UNL d   1     -54.841-101.757 -42.825  0.00  0.00     0.108 A 
ATOM     15  C   UNL d   1     -54.834-100.295 -43.572  0.00  0.00     0.118 A 
ATOM     16  C   UNL d   1     -54.831 -99.551 -43.953  0.00  0.00     0.028 C 
ATOM     17  O   UNL d   1     -54.774-100.982 -44.026  0.00  0.00    -0.304 OA
ATOM     18  C   UNL d   1     -54.777-101.712 -43.653  0.00  0.00     0.118 A 
ATOM     19  C   UNL d   1     -54.718-102.399 -44.103  0.00  0.00     0.028 C 
ATOM     20  O   UNL d   1     -55.023-100.428 -41.110  0.00  0.00    -0.265 OA
ENDBRANCH  10  11
ENDBRANCH   1  10
BRANCH   2  21
ATOM     21  S   UNL d   1     -55.317-101.720 -38.308  0.00  0.00    -0.080 SA
BRANCH  21  22
ATOM     22  C   UNL d   1     -54.762-102.162 -37.890  0.00  0.00     0.097 C 
BRANCH  22  23
ATOM     23  C   UNL d   1     -54.770-102.147 -37.059  0.00  0.00     0.272 C 
ATOM     24  N   UNL d   1     -54.761-101.430 -36.661  0.00  0.00    -0.267 N 
ATOM     25  C   UNL d   1     -54.769-101.425 -35.838  0.00  0.00     0.110 A 
ATOM     26  C   UNL d   1     -54.745-100.723 -37.085  0.00  0.00     0.110 A 
ATOM     27  C   UNL d   1     -54.760-100.703 -35.434  0.00  0.00     0.142 A 
ATOM     28  O   UNL d   1     -54.743 -99.986 -35.862  0.00  0.00    -0.300 OA
ATOM     29  C   UNL d   1     -54.736-100.001 -36.680  0.00  0.00     0.142 A 
ATOM     30  O   UNL d   1     -54.786-102.852 -36.626  0.00  0.00    -0.266 OA
ENDBRANCH  22  23
ENDBRANCH  21  22
ENDBRANCH   2  21
TORSDOF 5
ENDMDL
MODEL 2
REMARK VINA RESULT:      78.9      4.803      7.513
REMARK  5 active torsions:
REMARK  status: ('A' for Active; 'I' for Inactive)
REMARK    1  A    between atoms: C_8  and  N_1 
REMARK       I    between atoms: N_2  and  C_6 
REMARK    2  A    between atoms: S_11  and  C_3 
REMARK    3  A    between atoms: C_6  and  C_8 
REMARK    4  A    between atoms: C_9  and  C_15 
REMARK       I    between atoms: N_10  and  C_9 
REMARK    5  A    between atoms: C_15  and  S_11 
ROOT
ATOM      1  N   UNL d   1     -57.347 -99.029 -44.146  0.00  0.00    -0.300 N 
ATOM      2  C   UNL d   1     -58.657 -99.020 -44.391  0.00  0.00     0.049 A 
ATOM      3  C   UNL d   1     -57.912 -99.080 -44.744  0.00  0.00     0.087 A 
ATOM      4  C   UNL d   1     -58.550 -98.931 -43.580  0.00  0.00     0.024 A 
ATOM      5  C   UNL d   1     -57.739 -98.937 -43.430  0.00  0.00     0.065 A 
ATOM      6  C   UNL d   1     -59.084 -98.847 -42.962  0.00  0.00     0.002 A 
ATOM      7  C   UNL d   1     -57.461 -98.858 -42.656  0.00  0.00     0.018 A 
ATOM      8  C   UNL d   1     -58.811 -98.767 -42.185  0.00  0.00     0.000 A 
ATOM      9  C   UNL d   1     -57.996 -98.773 -42.039  0.00  0.00     0.002 A 
ENDROOT
BRANCH   1  10
ATOM     10  C   UNL d   1     -56.532 -99.063 -44.249  0.00  0.00     0.142 C 
BRANCH  10  11
ATOM     11  C   UNL d   1     -56.214 -99.485 -44.877  0.00  0.00     0.283 C 
ATOM     12  N   UNL d   1     -55.793-100.179 -44.738  0.00  0.00    -0.267 N 
ATOM     13  C   UNL d   1     -55.474-100.604 -45.367  0.00  0.00     0.108 A 
ATOM     14  C   UNL d   1     -55.689-100.454 -43.970  0.00  0.00     0.108 A 
ATOM     15  C   UNL d   1     -55.053-101.298 -45.228  0.00  0.00     0.118 A 
ATOM     16  C   UNL d   1     -54.729-101.728 -45.867  0.00  0.00     0.028 C 
ATOM     17  O   UNL d   1     -54.947-101.577 -44.458  0.00  0.00    -0.304 OA
ATOM     18  C   UNL d   1     -55.264-101.156 -43.829  0.00  0.00     0.118 A 
ATOM     19  C   UNL d   1     -55.160-101.431 -43.061  0.00  0.00     0.028 C 
ATOM     20  O   UNL d   1     -56.316 -99.213 -45.646  0.00  0.00    -0.265 OA
ENDBRANCH  10  11
ENDBRANCH   1  10
BRANCH   2  21
ATOM     21  S   UNL d   1     -59.380 -99.044 -44.787  0.00  0.00    -0.080 SA
BRANCH  21  22
ATOM     22  C   UNL d   1     -59.411 -98.969 -45.606  0.00  0.00     0.097 C 
BRANCH  22  23
ATOM     23  C   UNL d   1     -59.615 -99.628 -46.069  0.00  0.00     0.272 C 
ATOM     24  N   UNL d   1     -59.665 -99.557 -46.884  0.00  0.00    -0.267 N 
ATOM     25  C   UNL d   1     -59.868-100.216 -47.335  0.00  0.00     0.110 A 
ATOM     26  C   UNL d   1     -59.513 -98.832 -47.245  0.00  0.00     0.110 A 
ATOM     27  C   UNL d   1     -59.919-100.146 -48.158  0.00  0.00     0.142 A 
ATOM     28  O   UNL d   1     -59.765 -99.413 -48.525  0.00  0.00    -0.300 OA
ATOM     29  C   UNL d   1     -59.564 -98.764 -48.069  0.00  0.00     0.142 A 
ATOM     30  O   UNL d   1     -59.770-100.360 -45.714  0.00  0.00    -0.266 OA
ENDBRANCH  22  23
ENDBRANCH  21  22
ENDBRANCH   2  21
TORSDOF 5
ENDMDL
