MODEL 1
REMARK VINA RESULT:      -5.7      0.000      0.000
REMARK  5 active torsions:
REMARK  status: ('A' for Active; 'I' for Inactive)
REMARK       I    between atoms: C_2  and  N_1 
REMARK    1  A    between atoms: C_3  and  N_1 
REMARK    2  A    between atoms: C_7  and  C_2 
REMARK    3  A    between atoms: N_5  and  C_3 
REMARK    4  A    between atoms: C_8  and  N_5 
REMARK    5  A    between atoms: C_9  and  C_8 
ROOT
ATOM      1  C   UNL d   1      58.026  -0.158  30.541  0.00  0.00     0.179 C 
ATOM      2  S   UNL d   1      58.194   0.631  30.330  0.00  0.00    -0.040 SA
ENDROOT
BRANCH   1   3
ATOM      3  N   UNL d   1      58.511  -0.765  30.282  0.00  0.00    -0.299 N 
ATOM      4  C   UNL d   1      58.561  -0.943  29.469  0.00  0.00     0.259 C 
ATOM      5  O   UNL d   1      58.116  -0.502  28.927  0.00  0.00    -0.267 OA
ATOM      6  H   UNL d   1      58.949  -1.198  30.828  0.00  0.00     0.171 HD
BRANCH   4   7
ATOM      7  C   UNL d   1      59.051  -1.555  29.213  0.00  0.00     0.056 A 
ATOM      8  C   UNL d   1      59.809  -1.386  28.949  0.00  0.00     0.005 A 
ATOM      9  C   UNL d   1      60.298  -2.007  28.693  0.00  0.00     0.000 A 
ATOM     10  C   UNL d   1      60.024  -2.788  28.704  0.00  0.00     0.000 A 
ATOM     11  C   UNL d   1      59.256  -2.952  28.973  0.00  0.00     0.000 A 
ATOM     12  C   UNL d   1      58.763  -2.327  29.231  0.00  0.00     0.005 A 
ENDBRANCH   4   7
ENDBRANCH   1   3
BRANCH   1  13
ATOM     13  N   UNL d   1      57.366  -0.323  31.014  0.00  0.00    -0.330 N 
ATOM     14  H   UNL d   1      56.776  -0.817  30.721  0.00  0.00     0.168 HD
BRANCH  13  15
ATOM     15  C   UNL d   1      57.303  -0.001  31.759  0.00  0.00     0.074 C 
BRANCH  15  16
ATOM     16  C   UNL d   1      56.660  -0.222  32.257  0.00  0.00     0.017 A 
ATOM     17  C   UNL d   1      56.195   0.358  32.601  0.00  0.00     0.002 A 
ATOM     18  C   UNL d   1      55.573   0.149  33.083  0.00  0.00     0.000 A 
ATOM     19  C   UNL d   1      55.409  -0.644  33.226  0.00  0.00     0.000 A 
ATOM     20  C   UNL d   1      55.884  -1.236  32.874  0.00  0.00     0.000 A 
ATOM     21  C   UNL d   1      56.508  -1.015  32.391  0.00  0.00     0.002 A 
ENDBRANCH  15  16
ENDBRANCH  13  15
ENDBRANCH   1  13
TORSDOF 5
ENDMDL
MODEL 2
REMARK VINA RESULT:      -5.7      0.747      4.614
REMARK  5 active torsions:
REMARK  status: ('A' for Active; 'I' for Inactive)
REMARK       I    between atoms: C_2  and  N_1 
REMARK    1  A    between atoms: C_3  and  N_1 
REMARK    2  A    between atoms: C_7  and  C_2 
REMARK    3  A    between atoms: N_5  and  C_3 
REMARK    4  A    between atoms: C_8  and  N_5 
REMARK    5  A    between atoms: C_9  and  C_8 
ROOT
ATOM      1  C   UNL d   1      57.967  -0.160  30.477  0.00  0.00     0.179 C 
ATOM      2  S   UNL d   1      58.057   0.622  30.202  0.00  0.00    -0.040 SA
ENDROOT
BRANCH   1   3
ATOM      3  N   UNL d   1      57.343  -0.352  30.972  0.00  0.00    -0.299 N 
ATOM      4  C   UNL d   1      57.312  -0.042  31.745  0.00  0.00     0.259 C 
ATOM      5  O   UNL d   1      57.916   0.460  32.007  0.00  0.00    -0.267 OA
ATOM      6  H   UNL d   1      56.748  -0.852  30.702  0.00  0.00     0.171 HD
BRANCH   4   7
ATOM      7  C   UNL d   1      56.681  -0.239  32.240  0.00  0.00     0.056 A 
ATOM      8  C   UNL d   1      56.510  -1.027  32.386  0.00  0.00     0.005 A 
ATOM      9  C   UNL d   1      55.874  -1.219  32.885  0.00  0.00     0.000 A 
ATOM     10  C   UNL d   1      55.418  -0.621  33.231  0.00  0.00     0.000 A 
ATOM     11  C   UNL d   1      55.597   0.175  33.079  0.00  0.00     0.000 A 
ATOM     12  C   UNL d   1      56.238   0.369  32.576  0.00  0.00     0.005 A 
ENDBRANCH   4   7
ENDBRANCH   1   3
BRANCH   1  13
ATOM     13  N   UNL d   1      58.511  -0.740  30.245  0.00  0.00    -0.330 N 
ATOM     14  H   UNL d   1      58.956  -1.125  30.821  0.00  0.00     0.168 HD
BRANCH  13  15
ATOM     15  C   UNL d   1      58.603  -0.927  29.458  0.00  0.00     0.074 C 
BRANCH  15  16
ATOM     16  C   UNL d   1      59.071  -1.592  29.238  0.00  0.00     0.017 A 
ATOM     17  C   UNL d   1      58.732  -2.339  29.218  0.00  0.00     0.002 A 
ATOM     18  C   UNL d   1      59.180  -2.984  29.006  0.00  0.00     0.000 A 
ATOM     19  C   UNL d   1      59.973  -2.891  28.812  0.00  0.00     0.000 A 
ATOM     20  C   UNL d   1      60.319  -2.129  28.832  0.00  0.00     0.000 A 
ATOM     21  C   UNL d   1      59.859  -1.486  29.047  0.00  0.00     0.002 A 
ENDBRANCH  15  16
ENDBRANCH  13  15
ENDBRANCH   1  13
TORSDOF 5
ENDMDL
MODEL 3
REMARK VINA RESULT:      -3.2      1.251      4.816
REMARK  5 active torsions:
REMARK  status: ('A' for Active; 'I' for Inactive)
REMARK       I    between atoms: C_2  and  N_1 
REMARK    1  A    between atoms: C_3  and  N_1 
REMARK    2  A    between atoms: C_7  and  C_2 
REMARK    3  A    between atoms: N_5  and  C_3 
REMARK    4  A    between atoms: C_8  and  N_5 
REMARK    5  A    between atoms: C_9  and  C_8 
ROOT
ATOM      1  C   UNL d   1      57.832   0.484  30.596  0.00  0.00     0.179 C 
ATOM      2  S   UNL d   1      57.356   0.682  29.941  0.00  0.00    -0.040 SA
ENDROOT
BRANCH   1   3
ATOM      3  N   UNL d   1      57.561   0.619  31.357  0.00  0.00    -0.299 N 
ATOM      4  C   UNL d   1      56.984   0.120  31.691  0.00  0.00     0.259 C 
ATOM      5  O   UNL d   1      56.687  -0.513  31.248  0.00  0.00    -0.267 OA
ATOM      6  H   UNL d   1      57.862   1.251  31.789  0.00  0.00     0.171 HD
BRANCH   4   7
ATOM      7  C   UNL d   1      56.714   0.261  32.458  0.00  0.00     0.056 A 
ATOM      8  C   UNL d   1      55.923   0.148  32.638  0.00  0.00     0.005 A 
ATOM      9  C   UNL d   1      55.657   0.292  33.412  0.00  0.00     0.000 A 
ATOM     10  C   UNL d   1      56.187   0.547  33.996  0.00  0.00     0.000 A 
ATOM     11  C   UNL d   1      56.987   0.660  33.806  0.00  0.00     0.000 A 
ATOM     12  C   UNL d   1      57.254   0.515  33.027  0.00  0.00     0.005 A 
ENDBRANCH   4   7
ENDBRANCH   1   3
BRANCH   1  13
ATOM     13  N   UNL d   1      58.580   0.149  30.472  0.00  0.00    -0.330 N 
ATOM     14  H   UNL d   1      58.975  -0.196  31.106  0.00  0.00     0.168 HD
BRANCH  13  15
ATOM     15  C   UNL d   1      58.918   0.162  29.731  0.00  0.00     0.074 C 
BRANCH  15  16
ATOM     16  C   UNL d   1      59.672  -0.194  29.610  0.00  0.00     0.017 A 
ATOM     17  C   UNL d   1      59.727  -0.897  29.191  0.00  0.00     0.002 A 
ATOM     18  C   UNL d   1      60.452  -1.244  29.072  0.00  0.00     0.000 A 
ATOM     19  C   UNL d   1      61.133  -0.894  29.369  0.00  0.00     0.000 A 
ATOM     20  C   UNL d   1      61.078  -0.176  29.797  0.00  0.00     0.000 A 
ATOM     21  C   UNL d   1      60.342   0.166  29.912  0.00  0.00     0.002 A 
ENDBRANCH  15  16
ENDBRANCH  13  15
ENDBRANCH   1  13
TORSDOF 5
ENDMDL
MODEL 4
REMARK VINA RESULT:      -3.0      1.918      5.014
REMARK  5 active torsions:
REMARK  status: ('A' for Active; 'I' for Inactive)
REMARK       I    between atoms: C_2  and  N_1 
REMARK    1  A    between atoms: C_3  and  N_1 
REMARK    2  A    between atoms: C_7  and  C_2 
REMARK    3  A    between atoms: N_5  and  C_3 
REMARK    4  A    between atoms: C_8  and  N_5 
REMARK    5  A    between atoms: C_9  and  C_8 
ROOT
ATOM      1  C   UNL d   1      57.138  -0.511  31.549  0.00  0.00     0.179 C 
ATOM      2  S   UNL d   1      56.986  -1.318  31.405  0.00  0.00    -0.040 SA
ENDROOT
BRANCH   1   3
ATOM      3  N   UNL d   1      56.724  -0.113  32.133  0.00  0.00    -0.299 N 
ATOM      4  C   UNL d   1      56.374  -0.536  32.761  0.00  0.00     0.259 C 
ATOM      5  O   UNL d   1      56.450  -1.360  32.788  0.00  0.00    -0.267 OA
ATOM      6  H   UNL d   1      56.655   0.706  32.096  0.00  0.00     0.171 HD
BRANCH   4   7
ATOM      7  C   UNL d   1      55.958  -0.130  33.346  0.00  0.00     0.056 A 
ATOM      8  C   UNL d   1      56.357   0.160  34.001  0.00  0.00     0.005 A 
ATOM      9  C   UNL d   1      55.933   0.568  34.588  0.00  0.00     0.000 A 
ATOM     10  C   UNL d   1      55.116   0.682  34.511  0.00  0.00     0.000 A 
ATOM     11  C   UNL d   1      54.719   0.386  33.845  0.00  0.00     0.000 A 
ATOM     12  C   UNL d   1      55.146  -0.025  33.254  0.00  0.00     0.005 A 
ENDBRANCH   4   7
ENDBRANCH   1   3
BRANCH   1  13
ATOM     13  N   UNL d   1      57.710  -0.116  31.099  0.00  0.00    -0.330 N 
ATOM     14  H   UNL d   1      58.097   0.534  31.423  0.00  0.00     0.168 HD
BRANCH  13  15
ATOM     15  C   UNL d   1      57.885  -0.368  30.345  0.00  0.00     0.074 C 
BRANCH  15  16
ATOM     16  C   UNL d   1      58.521  -0.011  29.922  0.00  0.00     0.017 A 
ATOM     17  C   UNL d   1      58.503   0.012  29.103  0.00  0.00     0.002 A 
ATOM     18  C   UNL d   1      59.114   0.356  28.691  0.00  0.00     0.000 A 
ATOM     19  C   UNL d   1      59.752   0.682  29.093  0.00  0.00     0.000 A 
ATOM     20  C   UNL d   1      59.771   0.659  29.929  0.00  0.00     0.000 A 
ATOM     21  C   UNL d   1      59.151   0.310  30.335  0.00  0.00     0.002 A 
ENDBRANCH  15  16
ENDBRANCH  13  15
ENDBRANCH   1  13
TORSDOF 5
ENDMDL
