MODEL 1
REMARK VINA RESULT:      41.3      0.000      0.000
REMARK  3 active torsions:
REMARK  status: ('A' for Active; 'I' for Inactive)
REMARK    1  A    between atoms: C_8  and  N_1 
REMARK    2  A    between atoms: C_6  and  C_2 
REMARK    3  A    between atoms: C_14  and  C_8 
ROOT
ATOM      1  N   UNL d   1     -56.242 -99.939 -44.335  0.00  0.00    -0.289 N 
ATOM      2  C   UNL d   1     -57.037-100.131 -44.188  0.00  0.00     0.154 A 
ATOM      3  N   UNL d   1     -57.086-100.945 -44.081  0.00  0.00    -0.226 NA
ATOM      4  C   UNL d   1     -55.804-100.639 -44.320  0.00  0.00     0.083 A 
ATOM      5  C   UNL d   1     -56.323-101.261 -44.163  0.00  0.00     0.099 A 
ATOM      6  C   UNL d   1     -54.992-100.801 -44.427  0.00  0.00     0.019 A 
ATOM      7  C   UNL d   1     -56.038-102.038 -44.114  0.00  0.00     0.021 A 
ATOM      8  C   UNL d   1     -54.713-101.575 -44.377  0.00  0.00     0.002 A 
ATOM      9  C   UNL d   1     -55.236-102.193 -44.221  0.00  0.00     0.002 A 
ENDROOT
BRANCH   2  10
ATOM     10  C   UNL d   1     -57.662 -99.594 -44.155  0.00  0.00     0.064 A 
ATOM     11  S   UNL d   1     -57.948 -99.171 -43.644  0.00  0.00    -0.083 SA
ATOM     12  C   UNL d   1     -58.512 -98.755 -43.805  0.00  0.00     0.035 A 
ATOM     13  C   UNL d   1     -58.794 -98.755 -44.464  0.00  0.00     0.008 A 
ATOM     14  C   UNL d   1     -58.508 -99.178 -44.974  0.00  0.00     0.010 A 
ENDBRANCH   2  10
BRANCH   1  15
ATOM     15  C   UNL d   1     -56.104 -99.136 -44.454  0.00  0.00     0.082 C 
BRANCH  15  16
ATOM     16  C   UNL d   1     -55.373 -98.884 -44.739  0.00  0.00     0.018 C 
ATOM     17  C   UNL d   1     -54.750 -98.759 -44.214  0.00  0.00     0.002 C 
ATOM     18  C   UNL d   1     -55.265 -98.758 -45.547  0.00  0.00     0.002 C 
ENDBRANCH  15  16
ENDBRANCH   1  15
TORSDOF 3
ENDMDL
MODEL 2
REMARK VINA RESULT:      43.2      1.717      2.816
REMARK  3 active torsions:
REMARK  status: ('A' for Active; 'I' for Inactive)
REMARK    1  A    between atoms: C_8  and  N_1 
REMARK    2  A    between atoms: C_6  and  C_2 
REMARK    3  A    between atoms: C_14  and  C_8 
ROOT
ATOM      1  N   UNL d   1     -54.985-101.209 -43.687  0.00  0.00    -0.289 N 
ATOM      2  C   UNL d   1     -55.054-100.407 -43.480  0.00  0.00     0.154 A 
ATOM      3  N   UNL d   1     -55.002-100.352 -42.661  0.00  0.00    -0.226 NA
ATOM      4  C   UNL d   1     -54.891-101.645 -42.993  0.00  0.00     0.083 A 
ATOM      5  C   UNL d   1     -54.901-101.119 -42.358  0.00  0.00     0.099 A 
ATOM      6  C   UNL d   1     -54.796-102.461 -42.845  0.00  0.00     0.019 A 
ATOM      7  C   UNL d   1     -54.817-101.400 -41.582  0.00  0.00     0.021 A 
ATOM      8  C   UNL d   1     -54.713-102.736 -42.073  0.00  0.00     0.002 A 
ATOM      9  C   UNL d   1     -54.723-102.206 -41.442  0.00  0.00     0.002 A 
ENDROOT
BRANCH   2  10
ATOM     10  C   UNL d   1     -55.156 -99.782 -44.007  0.00  0.00     0.064 A 
ATOM     11  S   UNL d   1     -54.717 -99.315 -44.340  0.00  0.00    -0.083 SA
ATOM     12  C   UNL d   1     -54.997 -98.820 -44.780  0.00  0.00     0.035 A 
ATOM     13  C   UNL d   1     -55.704 -98.783 -44.892  0.00  0.00     0.008 A 
ATOM     14  C   UNL d   1     -56.142 -99.249 -44.559  0.00  0.00     0.010 A 
ENDBRANCH   2  10
BRANCH   1  15
ATOM     15  C   UNL d   1     -55.028-101.354 -44.497  0.00  0.00     0.082 C 
BRANCH  15  16
ATOM     16  C   UNL d   1     -55.383-102.044 -44.771  0.00  0.00     0.018 C 
ATOM     17  C   UNL d   1     -56.142-102.241 -44.520  0.00  0.00     0.002 C 
ATOM     18  C   UNL d   1     -54.981-102.536 -45.297  0.00  0.00     0.002 C 
ENDBRANCH  15  16
ENDBRANCH   1  15
TORSDOF 3
ENDMDL
