MODEL 1
REMARK VINA RESULT:      37.5      0.000      0.000
REMARK  5 active torsions:
REMARK  status: ('A' for Active; 'I' for Inactive)
REMARK    1  A    between atoms: C_15  and  C_3 
REMARK    2  A    between atoms: S_9  and  C_4 
REMARK       I    between atoms: N_6  and  C_8 
REMARK    3  A    between atoms: C_16  and  N_7 
REMARK    4  A    between atoms: C_8  and  C_14 
REMARK    5  A    between atoms: C_14  and  S_9 
ROOT
ATOM      1  N   UNL d   1      46.341 -18.840  40.927  0.00  0.00    -0.269 N 
ATOM      2  N   UNL d   1      46.395 -19.189  42.539  0.00  0.00    -0.301 N 
ATOM      3  C   UNL d   1      46.312 -18.657  40.117  0.00  0.00     0.272 C 
ATOM      4  C   UNL d   1      46.163 -18.262  41.489  0.00  0.00     0.102 A 
ATOM      5  C   UNL d   1      46.546 -19.595  41.176  0.00  0.00     0.102 A 
ATOM      6  C   UNL d   1      46.576 -19.777  41.986  0.00  0.00     0.100 A 
ATOM      7  C   UNL d   1      46.189 -18.434  42.294  0.00  0.00     0.100 A 
ATOM      8  O   UNL d   1      46.488 -19.231  39.557  0.00  0.00    -0.266 OA
ENDROOT
BRANCH   3   9
ATOM      9  C   UNL d   1      46.105 -17.898  39.878  0.00  0.00     0.100 C 
BRANCH   9  10
ATOM     10  S   UNL d   1      45.330 -17.732  39.644  0.00  0.00    -0.036 SA
BRANCH  10  11
ATOM     11  C   UNL d   1      45.180 -17.302  38.946  0.00  0.00     0.236 A 
ATOM     12  O   UNL d   1      45.554 -16.622  38.697  0.00  0.00    -0.263 OA
ATOM     13  C   UNL d   1      45.223 -16.394  37.972  0.00  0.00     0.205 A 
ATOM     14  N   UNL d   1      44.643 -16.941  37.781  0.00  0.00    -0.120 NA
ATOM     15  N   UNL d   1      44.615 -17.510  38.388  0.00  0.00    -0.114 NA
BRANCH  13  16
ATOM     16  C   UNL d   1      45.417 -15.742  37.504  0.00  0.00     0.043 A 
ATOM     17  C   UNL d   1      46.186 -15.453  37.506  0.00  0.00     0.004 A 
ATOM     18  C   UNL d   1      46.381 -14.802  37.038  0.00  0.00     0.000 A 
ATOM     19  C   UNL d   1      45.805 -14.443  36.570  0.00  0.00     0.000 A 
ATOM     20  C   UNL d   1      45.032 -14.735  36.571  0.00  0.00     0.000 A 
ATOM     21  C   UNL d   1      44.841 -15.383  37.037  0.00  0.00     0.004 A 
ENDBRANCH  13  16
ENDBRANCH  10  11
ENDBRANCH   9  10
ENDBRANCH   3   9
BRANCH   2  22
ATOM     22  C   UNL d   1      46.424 -19.371  43.345  0.00  0.00     0.064 A 
ATOM     23  C   UNL d   1      46.269 -20.137  43.594  0.00  0.00     0.018 A 
ATOM     24  C   UNL d   1      46.296 -20.329  44.405  0.00  0.00     0.002 A 
ATOM     25  C   UNL d   1      46.479 -19.745  44.951  0.00  0.00     0.000 A 
ATOM     26  C   UNL d   1      46.636 -18.971  44.705  0.00  0.00     0.002 A 
ATOM     27  C   UNL d   1      46.606 -18.789  43.895  0.00  0.00     0.018 A 
ENDBRANCH   2  22
TORSDOF 5
ENDMDL
