MODEL 1
REMARK VINA RESULT:      -6.1      0.000      0.000
REMARK  3 active torsions:
REMARK  status: ('A' for Active; 'I' for Inactive)
REMARK    1  A    between atoms: C_6  and  C_1 
REMARK    2  A    between atoms: C_8  and  C_4 
REMARK    3  A    between atoms: O_17  and  C_14 
ROOT
ATOM      1  C   UNL d   1      58.072  -0.312  30.171  0.00  0.00     0.122 A 
ATOM      2  C   UNL d   1      57.721  -1.003  30.475  0.00  0.00     0.285 A 
ATOM      3  N   UNL d   1      57.212  -0.958  31.122  0.00  0.00    -0.208 NA
ATOM      4  C   UNL d   1      57.051  -0.228  31.466  0.00  0.00     0.085 A 
ATOM      5  C   UNL d   1      57.911   0.419  30.516  0.00  0.00     0.013 A 
ATOM      6  C   UNL d   1      57.399   0.457  31.164  0.00  0.00     0.020 A 
ATOM      7  O   UNL d   1      57.887  -1.739  30.125  0.00  0.00    -0.265 OA
ENDROOT
BRANCH   4   8
ATOM      8  C   UNL d   1      56.540  -0.180  32.115  0.00  0.00     0.018 A 
ATOM      9  C   UNL d   1      56.277  -0.876  32.478  0.00  0.00     0.004 A 
ATOM     10  C   UNL d   1      55.769  -0.828  33.123  0.00  0.00     0.024 A 
ATOM     11  C   UNL d   1      55.526  -0.091  33.403  0.00  0.00     0.094 A 
ATOM     12  C   UNL d   1      55.794   0.600  33.034  0.00  0.00     0.024 A 
ATOM     13  C   UNL d   1      56.302   0.550  32.388  0.00  0.00     0.004 A 
BRANCH  11  14
ATOM     14  O   UNL d   1      55.013  -0.045  34.055  0.00  0.00    -0.328 OA
ATOM     15  C   UNL d   1      54.753   0.681  34.330  0.00  0.00     0.181 C 
ENDBRANCH  11  14
ENDBRANCH   4   8
BRANCH   1  16
ATOM     16  C   UNL d   1      58.581  -0.357  29.525  0.00  0.00     0.216 C 
ATOM     17  O   UNL d   1      59.393  -0.436  29.643  0.00  0.00    -0.644 OA
ATOM     18  O   UNL d   1      58.282  -0.322  28.754  0.00  0.00    -0.644 OA
ENDBRANCH   1  16
TORSDOF 3
ENDMDL
MODEL 2
REMARK VINA RESULT:      -5.4      0.827      4.151
REMARK  3 active torsions:
REMARK  status: ('A' for Active; 'I' for Inactive)
REMARK    1  A    between atoms: C_6  and  C_1 
REMARK    2  A    between atoms: C_8  and  C_4 
REMARK    3  A    between atoms: O_17  and  C_14 
ROOT
ATOM      1  C   UNL d   1      55.966  -0.042  32.924  0.00  0.00     0.122 A 
ATOM      2  C   UNL d   1      56.208  -0.761  32.580  0.00  0.00     0.285 A 
ATOM      3  N   UNL d   1      56.703  -0.757  31.922  0.00  0.00    -0.208 NA
ATOM      4  C   UNL d   1      56.958  -0.041  31.605  0.00  0.00     0.085 A 
ATOM      5  C   UNL d   1      56.221   0.675  32.607  0.00  0.00     0.013 A 
ATOM      6  C   UNL d   1      56.718   0.671  31.946  0.00  0.00     0.020 A 
ATOM      7  O   UNL d   1      55.948  -1.481  32.903  0.00  0.00    -0.265 OA
ENDROOT
BRANCH   4   8
ATOM      8  C   UNL d   1      57.455  -0.036  30.944  0.00  0.00     0.018 A 
ATOM      9  C   UNL d   1      57.607   0.678  30.553  0.00  0.00     0.004 A 
ATOM     10  C   UNL d   1      58.101   0.682  29.896  0.00  0.00     0.024 A 
ATOM     11  C   UNL d   1      58.442  -0.022  29.631  0.00  0.00     0.094 A 
ATOM     12  C   UNL d   1      58.285  -0.731  30.027  0.00  0.00     0.024 A 
ATOM     13  C   UNL d   1      57.790  -0.734  30.684  0.00  0.00     0.004 A 
BRANCH  11  14
ATOM     14  O   UNL d   1      58.941  -0.014  28.967  0.00  0.00    -0.328 OA
ATOM     15  C   UNL d   1      59.746   0.109  29.052  0.00  0.00     0.181 C 
ENDBRANCH  11  14
ENDBRANCH   4   8
BRANCH   1  16
ATOM     16  C   UNL d   1      55.471  -0.044  33.582  0.00  0.00     0.216 C 
ATOM     17  O   UNL d   1      54.653  -0.079  33.484  0.00  0.00    -0.644 OA
ATOM     18  O   UNL d   1      55.790  -0.012  34.346  0.00  0.00    -0.644 OA
ENDBRANCH   1  16
TORSDOF 3
ENDMDL
