MODEL 1
REMARK VINA RESULT:      56.6      0.000      0.000
REMARK  2 active torsions:
REMARK  status: ('A' for Active; 'I' for Inactive)
REMARK    1  A    between atoms: C_7  and  C_3 
REMARK    2  A    between atoms: N_9  and  C_8 
ROOT
ATOM      1  N   UNL d   1      58.546  49.538  51.153  0.00  0.00    -0.227 NA
ATOM      2  N   UNL d   1      58.687  49.654  49.745  0.00  0.00    -0.227 NA
ATOM      3  C   UNL d   1      59.036  49.601  50.500  0.00  0.00     0.162 A 
ATOM      4  C   UNL d   1      57.864  49.640  49.678  0.00  0.00     0.085 A 
ATOM      5  C   UNL d   1      57.713  49.524  51.090  0.00  0.00     0.085 A 
ATOM      6  C   UNL d   1      57.370  49.576  50.350  0.00  0.00     0.035 A 
ATOM      7  C   UNL d   1      56.537  49.564  50.263  0.00  0.00     0.003 A 
ATOM      8  C   UNL d   1      57.508  49.694  48.911  0.00  0.00     0.019 A 
ATOM      9  C   UNL d   1      57.229  49.460  51.757  0.00  0.00     0.019 A 
ATOM     10  C   UNL d   1      56.399  49.446  51.694  0.00  0.00     0.002 A 
ATOM     11  C   UNL d   1      56.675  49.680  48.849  0.00  0.00     0.002 A 
ATOM     12  C   UNL d   1      56.056  49.498  50.953  0.00  0.00     0.000 A 
ATOM     13  C   UNL d   1      56.191  49.616  49.516  0.00  0.00     0.000 A 
ENDROOT
BRANCH   3  14
ATOM     14  C   UNL d   1      59.845  49.611  50.606  0.00  0.00     0.036 A 
ATOM     15  C   UNL d   1      60.349  49.664  49.958  0.00  0.00     0.004 A 
ATOM     16  C   UNL d   1      61.165  49.674  50.061  0.00  0.00     0.018 A 
ATOM     17  C   UNL d   1      61.486  49.631  50.809  0.00  0.00     0.064 A 
ATOM     18  C   UNL d   1      60.986  49.578  51.467  0.00  0.00     0.018 A 
ATOM     19  C   UNL d   1      60.175  49.568  51.357  0.00  0.00     0.004 A 
BRANCH  17  20
ATOM     20  N   UNL d   1      62.301  49.642  50.912  0.00  0.00    -0.301 N 
ATOM     21  C   UNL d   1      62.802  49.647  50.260  0.00  0.00     0.100 C 
ATOM     22  C   UNL d   1      62.614  49.646  51.669  0.00  0.00     0.100 C 
ENDBRANCH  17  20
ENDBRANCH   3  14
TORSDOF 2
ENDMDL
