MODEL 1
REMARK VINA RESULT:     119.6      0.000      0.000
REMARK  4 active torsions:
REMARK  status: ('A' for Active; 'I' for Inactive)
REMARK    1  A    between atoms: N_10  and  C_3 
REMARK    2  A    between atoms: C_11  and  C_5 
REMARK    3  A    between atoms: C_12  and  N_10 
REMARK    4  A    between atoms: O_21  and  C_14 
ROOT
ATOM      1  N   UNL d   1      59.082  47.573  50.437  0.00  0.00    -0.184 N 
ATOM      2  C   UNL d   1      58.511  48.156  50.633  0.00  0.00     0.168 A 
ATOM      3  C   UNL d   1      59.886  47.737  50.542  0.00  0.00     0.217 A 
ATOM      4  N   UNL d   1      58.045  46.690  50.040  0.00  0.00    -0.162 NA
ATOM      5  C   UNL d   1      57.726  47.997  50.531  0.00  0.00     0.055 A 
ATOM      6  N   UNL d   1      58.764  48.881  50.928  0.00  0.00    -0.227 NA
ATOM      7  C   UNL d   1      60.120  48.458  50.834  0.00  0.00     0.066 A 
ATOM      8  C   UNL d   1      57.483  47.263  50.233  0.00  0.00     0.104 A 
ATOM      9  C   UNL d   1      59.555  49.045  51.033  0.00  0.00     0.087 A 
ATOM     10  C   UNL d   1      60.850  48.773  50.995  0.00  0.00     0.006 A 
ATOM     11  C   UNL d   1      56.686  47.110  50.132  0.00  0.00     0.023 C 
ATOM     12  C   UNL d   1      59.952  49.707  51.310  0.00  0.00     0.019 A 
ATOM     13  C   UNL d   1      60.763  49.532  51.285  0.00  0.00     0.002 A 
ENDROOT
BRANCH   3  14
ATOM     14  N   UNL d   1      60.466  47.152  50.345  0.00  0.00    -0.383 NA
BRANCH  14  15
ATOM     15  C   UNL d   1      61.028  46.574  50.110  0.00  0.00     0.134 A 
ATOM     16  C   UNL d   1      60.901  45.765  50.250  0.00  0.00     0.034 A 
ATOM     17  C   UNL d   1      61.465  45.190  50.013  0.00  0.00     0.027 A 
ATOM     18  C   UNL d   1      62.178  45.425  49.626  0.00  0.00     0.094 A 
ATOM     19  C   UNL d   1      62.318  46.258  49.477  0.00  0.00     0.027 A 
ATOM     20  C   UNL d   1      61.751  46.830  49.715  0.00  0.00     0.034 A 
BRANCH  18  21
ATOM     21  O   UNL d   1      62.744  44.853  49.388  0.00  0.00    -0.328 OA
ATOM     22  C   UNL d   1      62.586  44.029  49.489  0.00  0.00     0.181 C 
ENDBRANCH  18  21
ENDBRANCH  14  15
ENDBRANCH   3  14
BRANCH   5  23
ATOM     23  C   UNL d   1      57.167  48.567  50.723  0.00  0.00     0.004 A 
ATOM     24  C   UNL d   1      56.954  49.138  50.172  0.00  0.00     0.000 A 
ATOM     25  C   UNL d   1      56.397  49.707  50.360  0.00  0.00     0.000 A 
ATOM     26  C   UNL d   1      56.048  49.708  51.107  0.00  0.00     0.000 A 
ATOM     27  C   UNL d   1      56.253  49.148  51.656  0.00  0.00     0.000 A 
ATOM     28  C   UNL d   1      56.819  48.571  51.462  0.00  0.00     0.000 A 
ENDBRANCH   5  23
TORSDOF 4
ENDMDL
