MODEL 1
REMARK VINA RESULT:      -3.9      0.000      0.000
REMARK  4 active torsions:
REMARK  status: ('A' for Active; 'I' for Inactive)
REMARK    1  A    between atoms: C_6  and  C_1 
REMARK       I    between atoms: N_9  and  C_6 
REMARK    2  A    between atoms: C_13  and  N_9 
REMARK    3  A    between atoms: O_12  and  C_14 
REMARK    4  A    between atoms: C_14  and  C_13 
ROOT
ATOM      1  C   UNL d   1      57.022   0.146  32.660  0.00  0.00     0.084 A 
ATOM      2  C   UNL d   1      57.568   0.489  33.180  0.00  0.00     0.137 A 
ATOM      3  S   UNL d   1      57.169   0.676  33.879  0.00  0.00    -0.066 SA
ATOM      4  C   UNL d   1      56.293   0.123  33.039  0.00  0.00     0.013 A 
ATOM      5  C   UNL d   1      56.380   0.447  33.786  0.00  0.00     0.031 A 
ATOM      6  N   UNL d   1      58.373   0.622  33.027  0.00  0.00    -0.141 N 
ATOM      7  C   UNL d   1      55.553  -0.154  32.795  0.00  0.00     0.001 A 
ATOM      8  C   UNL d   1      55.737   0.501  34.302  0.00  0.00     0.006 A 
ATOM      9  C   UNL d   1      54.908  -0.102  33.310  0.00  0.00     0.000 A 
ATOM     10  C   UNL d   1      55.002   0.225  34.060  0.00  0.00     0.001 A 
ENDROOT
BRANCH   1  11
ATOM     11  C   UNL d   1      57.191  -0.123  31.896  0.00  0.00     0.281 C 
ATOM     12  O   UNL d   1      57.196  -0.931  31.737  0.00  0.00    -0.265 OA
ATOM     13  N   UNL d   1      57.355   0.412  31.291  0.00  0.00    -0.204 NA
BRANCH  13  14
ATOM     14  C   UNL d   1      57.523   0.143  30.527  0.00  0.00     0.128 C 
BRANCH  14  15
ATOM     15  C   UNL d   1      57.751   0.673  29.939  0.00  0.00     0.137 C 
BRANCH  15  16
ATOM     16  O   UNL d   1      57.726   0.450  29.147  0.00  0.00    -0.325 OA
ATOM     17  C   UNL d   1      58.333   0.668  28.633  0.00  0.00     0.182 C 
ENDBRANCH  15  16
ENDBRANCH  14  15
ENDBRANCH  13  14
ENDBRANCH   1  11
TORSDOF 4
ENDMDL
MODEL 2
REMARK VINA RESULT:      -3.4      2.500      4.693
REMARK  4 active torsions:
REMARK  status: ('A' for Active; 'I' for Inactive)
REMARK    1  A    between atoms: C_6  and  C_1 
REMARK       I    between atoms: N_9  and  C_6 
REMARK    2  A    between atoms: C_13  and  N_9 
REMARK    3  A    between atoms: O_12  and  C_14 
REMARK    4  A    between atoms: C_14  and  C_13 
ROOT
ATOM      1  C   UNL d   1      58.981  -0.519  29.576  0.00  0.00     0.084 A 
ATOM      2  C   UNL d   1      59.696  -0.107  29.523  0.00  0.00     0.137 A 
ATOM      3  S   UNL d   1      60.260  -0.618  29.201  0.00  0.00    -0.066 SA
ATOM      4  C   UNL d   1      59.105  -1.279  29.289  0.00  0.00     0.013 A 
ATOM      5  C   UNL d   1      59.889  -1.343  29.058  0.00  0.00     0.031 A 
ATOM      6  N   UNL d   1      59.826   0.681  29.751  0.00  0.00    -0.141 N 
ATOM      7  C   UNL d   1      58.600  -1.928  29.207  0.00  0.00     0.001 A 
ATOM      8  C   UNL d   1      60.182  -2.048  28.744  0.00  0.00     0.006 A 
ATOM      9  C   UNL d   1      58.891  -2.635  28.893  0.00  0.00     0.000 A 
ATOM     10  C   UNL d   1      59.679  -2.692  28.663  0.00  0.00     0.001 A 
ENDROOT
BRANCH   1  11
ATOM     11  C   UNL d   1      58.270  -0.212  29.869  0.00  0.00     0.281 C 
ATOM     12  O   UNL d   1      57.757   0.187  29.363  0.00  0.00    -0.265 OA
ATOM     13  N   UNL d   1      58.071  -0.302  30.663  0.00  0.00    -0.204 NA
BRANCH  13  14
ATOM     14  C   UNL d   1      57.361   0.005  30.955  0.00  0.00     0.128 C 
BRANCH  14  15
ATOM     15  C   UNL d   1      57.141  -0.126  31.739  0.00  0.00     0.137 C 
BRANCH  15  16
ATOM     16  O   UNL d   1      56.388   0.082  31.998  0.00  0.00    -0.325 OA
ATOM     17  C   UNL d   1      56.120  -0.162  32.739  0.00  0.00     0.182 C 
ENDBRANCH  15  16
ENDBRANCH  14  15
ENDBRANCH  13  14
ENDBRANCH   1  11
TORSDOF 4
ENDMDL
MODEL 3
REMARK VINA RESULT:      -2.8      2.904      3.990
REMARK  4 active torsions:
REMARK  status: ('A' for Active; 'I' for Inactive)
REMARK    1  A    between atoms: C_6  and  C_1 
REMARK       I    between atoms: N_9  and  C_6 
REMARK    2  A    between atoms: C_13  and  N_9 
REMARK    3  A    between atoms: O_12  and  C_14 
REMARK    4  A    between atoms: C_14  and  C_13 
ROOT
ATOM      1  C   UNL d   1      58.643  -0.607  29.475  0.00  0.00     0.084 A 
ATOM      2  C   UNL d   1      58.891   0.158  29.278  0.00  0.00     0.137 A 
ATOM      3  S   UNL d   1      58.546   0.682  29.815  0.00  0.00    -0.066 SA
ATOM      4  C   UNL d   1      58.148  -0.551  30.128  0.00  0.00     0.013 A 
ATOM      5  C   UNL d   1      58.087   0.238  30.340  0.00  0.00     0.031 A 
ATOM      6  N   UNL d   1      59.398   0.362  28.652  0.00  0.00    -0.141 N 
ATOM      7  C   UNL d   1      57.741  -1.125  30.563  0.00  0.00     0.001 A 
ATOM      8  C   UNL d   1      57.623   0.470  30.982  0.00  0.00     0.006 A 
ATOM      9  C   UNL d   1      57.276  -0.895  31.207  0.00  0.00     0.000 A 
ATOM     10  C   UNL d   1      57.219  -0.100  31.414  0.00  0.00     0.001 A 
ENDROOT
BRANCH   1  11
ATOM     11  C   UNL d   1      58.860  -1.300  29.077  0.00  0.00     0.281 C 
ATOM     12  O   UNL d   1      58.375  -1.601  28.483  0.00  0.00    -0.265 OA
ATOM     13  N   UNL d   1      59.558  -1.691  29.269  0.00  0.00    -0.204 NA
BRANCH  13  14
ATOM     14  C   UNL d   1      59.775  -2.383  28.872  0.00  0.00     0.128 C 
BRANCH  14  15
ATOM     15  C   UNL d   1      60.290  -2.923  29.222  0.00  0.00     0.137 C 
BRANCH  15  16
ATOM     16  O   UNL d   1      60.792  -3.380  28.757  0.00  0.00    -0.325 OA
ATOM     17  C   UNL d   1      60.899  -4.181  28.923  0.00  0.00     0.182 C 
ENDBRANCH  15  16
ENDBRANCH  14  15
ENDBRANCH  13  14
ENDBRANCH   1  11
TORSDOF 4
ENDMDL
MODEL 4
REMARK VINA RESULT:      -2.5      1.489      1.594
REMARK  4 active torsions:
REMARK  status: ('A' for Active; 'I' for Inactive)
REMARK    1  A    between atoms: C_6  and  C_1 
REMARK       I    between atoms: N_9  and  C_6 
REMARK    2  A    between atoms: C_13  and  N_9 
REMARK    3  A    between atoms: O_12  and  C_14 
REMARK    4  A    between atoms: C_14  and  C_13 
ROOT
ATOM      1  C   UNL d   1      57.359   0.028  31.854  0.00  0.00     0.084 A 
ATOM      2  C   UNL d   1      57.955   0.459  32.236  0.00  0.00     0.137 A 
ATOM      3  S   UNL d   1      57.694   0.628  33.001  0.00  0.00    -0.066 SA
ATOM      4  C   UNL d   1      56.737  -0.066  32.383  0.00  0.00     0.013 A 
ATOM      5  C   UNL d   1      56.940   0.301  33.088  0.00  0.00     0.031 A 
ATOM      6  N   UNL d   1      58.685   0.682  31.908  0.00  0.00    -0.141 N 
ATOM      7  C   UNL d   1      56.005  -0.443  32.312  0.00  0.00     0.001 A 
ATOM      8  C   UNL d   1      56.421   0.299  33.731  0.00  0.00     0.006 A 
ATOM      9  C   UNL d   1      55.484  -0.445  32.954  0.00  0.00     0.000 A 
ATOM     10  C   UNL d   1      55.693  -0.075  33.659  0.00  0.00     0.001 A 
ENDROOT
BRANCH   1  11
ATOM     11  C   UNL d   1      57.394  -0.253  31.077  0.00  0.00     0.281 C 
ATOM     12  O   UNL d   1      57.019   0.164  30.473  0.00  0.00    -0.265 OA
ATOM     13  N   UNL d   1      57.800  -0.947  30.901  0.00  0.00    -0.204 NA
BRANCH  13  14
ATOM     14  C   UNL d   1      57.834  -1.228  30.124  0.00  0.00     0.128 C 
BRANCH  14  15
ATOM     15  C   UNL d   1      58.465  -1.699  29.877  0.00  0.00     0.137 C 
BRANCH  15  16
ATOM     16  O   UNL d   1      58.324  -2.420  29.507  0.00  0.00    -0.325 OA
ATOM     17  C   UNL d   1      58.885  -2.741  28.994  0.00  0.00     0.182 C 
ENDBRANCH  15  16
ENDBRANCH  14  15
ENDBRANCH  13  14
ENDBRANCH   1  11
TORSDOF 4
ENDMDL
MODEL 5
REMARK VINA RESULT:      -2.5      2.079      4.002
REMARK  4 active torsions:
REMARK  status: ('A' for Active; 'I' for Inactive)
REMARK    1  A    between atoms: C_6  and  C_1 
REMARK       I    between atoms: N_9  and  C_6 
REMARK    2  A    between atoms: C_13  and  N_9 
REMARK    3  A    between atoms: O_12  and  C_14 
REMARK    4  A    between atoms: C_14  and  C_13 
ROOT
ATOM      1  C   UNL d   1      56.276  -0.463  32.708  0.00  0.00     0.084 A 
ATOM      2  C   UNL d   1      56.155  -1.271  32.572  0.00  0.00     0.137 A 
ATOM      3  S   UNL d   1      56.605  -1.488  31.915  0.00  0.00    -0.066 SA
ATOM      4  C   UNL d   1      56.798  -0.187  32.136  0.00  0.00     0.013 A 
ATOM      5  C   UNL d   1      57.002  -0.813  31.648  0.00  0.00     0.031 A 
ATOM      6  N   UNL d   1      55.667  -1.774  33.018  0.00  0.00    -0.141 N 
ATOM      7  C   UNL d   1      57.117   0.563  31.997  0.00  0.00     0.001 A 
ATOM      8  C   UNL d   1      57.523  -0.705  31.016  0.00  0.00     0.006 A 
ATOM      9  C   UNL d   1      57.639   0.673  31.364  0.00  0.00     0.000 A 
ATOM     10  C   UNL d   1      57.840   0.040  30.878  0.00  0.00     0.001 A 
ENDROOT
BRANCH   1  11
ATOM     11  C   UNL d   1      55.929  -0.021  33.315  0.00  0.00     0.281 C 
ATOM     12  O   UNL d   1      56.404   0.342  33.881  0.00  0.00    -0.265 OA
ATOM     13  N   UNL d   1      55.110   0.060  33.358  0.00  0.00    -0.204 NA
BRANCH  13  14
ATOM     14  C   UNL d   1      54.763   0.502  33.964  0.00  0.00     0.128 C 
BRANCH  14  15
ATOM     15  C   UNL d   1      53.947   0.618  33.982  0.00  0.00     0.137 C 
BRANCH  15  16
ATOM     16  O   UNL d   1      53.553   0.681  34.702  0.00  0.00    -0.325 OA
ATOM     17  C   UNL d   1      52.728   0.682  34.727  0.00  0.00     0.182 C 
ENDBRANCH  15  16
ENDBRANCH  14  15
ENDBRANCH  13  14
ENDBRANCH   1  11
TORSDOF 4
ENDMDL
MODEL 6
REMARK VINA RESULT:      -1.0      3.581      5.446
REMARK  4 active torsions:
REMARK  status: ('A' for Active; 'I' for Inactive)
REMARK    1  A    between atoms: C_6  and  C_1 
REMARK       I    between atoms: N_9  and  C_6 
REMARK    2  A    between atoms: C_13  and  N_9 
REMARK    3  A    between atoms: O_12  and  C_14 
REMARK    4  A    between atoms: C_14  and  C_13 
ROOT
ATOM      1  C   UNL d   1      59.082  -2.137  28.978  0.00  0.00     0.084 A 
ATOM      2  C   UNL d   1      58.537  -2.693  28.697  0.00  0.00     0.137 A 
ATOM      3  S   UNL d   1      58.906  -3.432  28.698  0.00  0.00    -0.066 SA
ATOM      4  C   UNL d   1      59.781  -2.533  29.151  0.00  0.00     0.013 A 
ATOM      5  C   UNL d   1      59.677  -3.328  28.981  0.00  0.00     0.031 A 
ATOM      6  N   UNL d   1      57.758  -2.537  28.455  0.00  0.00    -0.141 N 
ATOM      7  C   UNL d   1      60.507  -2.269  29.446  0.00  0.00     0.001 A 
ATOM      8  C   UNL d   1      60.288  -3.871  29.099  0.00  0.00     0.006 A 
ATOM      9  C   UNL d   1      61.120  -2.810  29.565  0.00  0.00     0.000 A 
ATOM     10  C   UNL d   1      61.009  -3.607  29.391  0.00  0.00     0.001 A 
ENDROOT
BRANCH   1  11
ATOM     11  C   UNL d   1      58.938  -1.327  29.067  0.00  0.00     0.281 C 
ATOM     12  O   UNL d   1      59.179  -0.801  28.479  0.00  0.00    -0.265 OA
ATOM     13  N   UNL d   1      58.556  -1.040  29.738  0.00  0.00    -0.204 NA
BRANCH  13  14
ATOM     14  C   UNL d   1      58.413  -0.231  29.825  0.00  0.00     0.128 C 
BRANCH  14  15
ATOM     15  C   UNL d   1      57.884   0.040  30.397  0.00  0.00     0.137 C 
BRANCH  15  16
ATOM     16  O   UNL d   1      58.107   0.069  31.188  0.00  0.00    -0.325 OA
ATOM     17  C   UNL d   1      57.590   0.370  31.756  0.00  0.00     0.182 C 
ENDBRANCH  15  16
ENDBRANCH  14  15
ENDBRANCH  13  14
ENDBRANCH   1  11
TORSDOF 4
ENDMDL
