MODEL 1
REMARK VINA RESULT:      49.1      0.000      0.000
REMARK  1 active torsions:
REMARK  status: ('A' for Active; 'I' for Inactive)
REMARK    1  A    between atoms: N_4  and  C_1 
ROOT
ATOM      1  C   UNL d   1      60.302  49.418  50.930  0.00  0.00     0.735 A 
ATOM      2  N   UNL d   1      61.040  49.056  50.842  0.00  0.00    -0.059 NA
ATOM      3  N   UNL d   1      60.249  49.703  51.707  0.00  0.00    -0.059 NA
ATOM      4  C   UNL d   1      61.444  49.116  51.562  0.00  0.00     0.118 A 
ATOM      5  C   UNL d   1      60.957  49.514  52.095  0.00  0.00     0.118 A 
ATOM      6  C   UNL d   1      62.190  48.859  51.797  0.00  0.00     0.021 A 
ATOM      7  C   UNL d   1      61.211  49.660  52.868  0.00  0.00     0.021 A 
ATOM      8  C   UNL d   1      61.957  49.403  53.105  0.00  0.00     0.002 A 
ATOM      9  C   UNL d   1      62.444  49.004  52.572  0.00  0.00     0.002 A 
ENDROOT
BRANCH   1  10
ATOM     10  N   UNL d   1      59.715  49.489  50.354  0.00  0.00    -0.134 N 
ATOM     11  C   UNL d   1      59.915  49.635  49.566  0.00  0.00     0.119 A 
ATOM     12  C   UNL d   1      59.325  49.704  48.999  0.00  0.00     0.119 A 
ATOM     13  N   UNL d   1      58.532  49.629  49.213  0.00  0.00    -0.239 NA
ATOM     14  C   UNL d   1      58.331  49.483  50.002  0.00  0.00     0.119 A 
ATOM     15  C   UNL d   1      58.921  49.412  50.579  0.00  0.00     0.119 A 
ENDBRANCH   1  10
TORSDOF 1
ENDMDL
