MODEL 1
REMARK VINA RESULT:      -4.3      0.000      0.000
REMARK  5 active torsions:
REMARK  status: ('A' for Active; 'I' for Inactive)
REMARK    1  A    between atoms: C_6  and  N_1 
REMARK    2  A    between atoms: C_10  and  C_6 
REMARK    3  A    between atoms: O_18  and  C_12 
REMARK    4  A    between atoms: C_20  and  O_18 
REMARK    5  A    between atoms: C_21  and  C_20 
ROOT
ATOM      1  N   UNL d   1      59.283  -0.767  29.255  0.00  0.00    -0.251 N 
ATOM      2  C   UNL d   1      59.994  -0.368  29.435  0.00  0.00     0.378 A 
ATOM      3  C   UNL d   1      59.471  -1.551  29.069  0.00  0.00     0.092 A 
ATOM      4  O   UNL d   1      60.618  -0.907  29.359  0.00  0.00    -0.258 OA
ATOM      5  C   UNL d   1      60.295  -1.637  29.133  0.00  0.00     0.121 A 
ATOM      6  O   UNL d   1      60.057   0.423  29.650  0.00  0.00    -0.237 OA
ATOM      7  C   UNL d   1      59.000  -2.186  28.852  0.00  0.00     0.020 A 
ATOM      8  C   UNL d   1      60.638  -2.374  28.975  0.00  0.00     0.026 A 
ATOM      9  C   UNL d   1      59.351  -2.917  28.696  0.00  0.00     0.002 A 
ATOM     10  C   UNL d   1      60.166  -3.010  28.758  0.00  0.00     0.002 A 
ATOM     11  C   UNL d   1      58.871  -3.555  28.478  0.00  0.00     0.000 C 
ENDROOT
BRANCH   1  12
ATOM     12  C   UNL d   1      58.512  -0.472  29.251  0.00  0.00     0.085 C 
BRANCH  12  13
ATOM     13  C   UNL d   1      58.141  -0.288  29.965  0.00  0.00     0.018 A 
ATOM     14  C   UNL d   1      57.778  -0.870  30.406  0.00  0.00     0.004 A 
ATOM     15  C   UNL d   1      57.410  -0.685  31.113  0.00  0.00     0.025 A 
ATOM     16  C   UNL d   1      57.405   0.094  31.383  0.00  0.00     0.100 A 
ATOM     17  C   UNL d   1      57.772   0.682  30.938  0.00  0.00     0.025 A 
ATOM     18  C   UNL d   1      58.143   0.493  30.223  0.00  0.00     0.004 A 
BRANCH  16  19
ATOM     19  O   UNL d   1      57.036   0.279  32.092  0.00  0.00    -0.305 OA
BRANCH  19  20
ATOM     20  C   UNL d   1      56.381  -0.148  32.334  0.00  0.00     0.123 C 
BRANCH  20  21
ATOM     21  C   UNL d   1      55.931   0.112  32.965  0.00  0.00     0.027 C 
ATOM     22  C   UNL d   1      55.437  -0.414  33.367  0.00  0.00     0.002 C 
ENDBRANCH  20  21
ENDBRANCH  19  20
ENDBRANCH  16  19
ENDBRANCH  12  13
ENDBRANCH   1  12
TORSDOF 5
ENDMDL
MODEL 2
REMARK VINA RESULT:      -3.9      1.579      5.119
REMARK  5 active torsions:
REMARK  status: ('A' for Active; 'I' for Inactive)
REMARK    1  A    between atoms: C_6  and  N_1 
REMARK    2  A    between atoms: C_10  and  C_6 
REMARK    3  A    between atoms: O_18  and  C_12 
REMARK    4  A    between atoms: C_20  and  O_18 
REMARK    5  A    between atoms: C_21  and  C_20 
ROOT
ATOM      1  N   UNL d   1      56.977   0.672  32.747  0.00  0.00    -0.251 N 
ATOM      2  C   UNL d   1      57.726   0.679  33.117  0.00  0.00     0.378 A 
ATOM      3  C   UNL d   1      56.400   0.671  33.341  0.00  0.00     0.092 A 
ATOM      4  O   UNL d   1      57.608   0.681  33.936  0.00  0.00    -0.258 OA
ATOM      5  C   UNL d   1      56.790   0.677  34.075  0.00  0.00     0.121 A 
ATOM      6  O   UNL d   1      58.451   0.682  32.728  0.00  0.00    -0.237 OA
ATOM      7  C   UNL d   1      55.581   0.665  33.302  0.00  0.00     0.020 A 
ATOM      8  C   UNL d   1      56.341   0.676  34.770  0.00  0.00     0.026 A 
ATOM      9  C   UNL d   1      55.142   0.665  34.001  0.00  0.00     0.002 A 
ATOM     10  C   UNL d   1      55.521   0.671  34.732  0.00  0.00     0.002 A 
ATOM     11  C   UNL d   1      54.316   0.660  33.957  0.00  0.00     0.000 C 
ENDROOT
BRANCH   1  12
ATOM     12  C   UNL d   1      56.799   0.668  31.942  0.00  0.00     0.085 C 
BRANCH  12  13
ATOM     13  C   UNL d   1      57.123   0.086  31.453  0.00  0.00     0.018 A 
ATOM     14  C   UNL d   1      56.874  -0.689  31.511  0.00  0.00     0.004 A 
ATOM     15  C   UNL d   1      57.196  -1.264  31.027  0.00  0.00     0.025 A 
ATOM     16  C   UNL d   1      57.775  -1.061  30.476  0.00  0.00     0.100 A 
ATOM     17  C   UNL d   1      58.026  -0.279  30.418  0.00  0.00     0.025 A 
ATOM     18  C   UNL d   1      57.700   0.301  30.908  0.00  0.00     0.004 A 
BRANCH  16  19
ATOM     19  O   UNL d   1      58.098  -1.638  29.990  0.00  0.00    -0.305 OA
BRANCH  19  20
ATOM     20  C   UNL d   1      58.607  -1.424  29.386  0.00  0.00     0.123 C 
BRANCH  20  21
ATOM     21  C   UNL d   1      58.857  -1.982  28.841  0.00  0.00     0.027 C 
ATOM     22  C   UNL d   1      59.660  -2.060  28.666  0.00  0.00     0.002 C 
ENDBRANCH  20  21
ENDBRANCH  19  20
ENDBRANCH  16  19
ENDBRANCH  12  13
ENDBRANCH   1  12
TORSDOF 5
ENDMDL
MODEL 3
REMARK VINA RESULT:      -3.9      1.890      4.891
REMARK  5 active torsions:
REMARK  status: ('A' for Active; 'I' for Inactive)
REMARK    1  A    between atoms: C_6  and  N_1 
REMARK    2  A    between atoms: C_10  and  C_6 
REMARK    3  A    between atoms: O_18  and  C_12 
REMARK    4  A    between atoms: C_20  and  O_18 
REMARK    5  A    between atoms: C_21  and  C_20 
ROOT
ATOM      1  N   UNL d   1      56.448  -0.425  31.920  0.00  0.00    -0.251 N 
ATOM      2  C   UNL d   1      56.596  -1.224  31.723  0.00  0.00     0.378 A 
ATOM      3  C   UNL d   1      56.049  -0.413  32.645  0.00  0.00     0.092 A 
ATOM      4  O   UNL d   1      56.288  -1.699  32.327  0.00  0.00    -0.258 OA
ATOM      5  C   UNL d   1      55.951  -1.199  32.896  0.00  0.00     0.121 A 
ATOM      6  O   UNL d   1      56.981  -1.484  31.045  0.00  0.00    -0.237 OA
ATOM      7  C   UNL d   1      55.769   0.210  33.100  0.00  0.00     0.020 A 
ATOM      8  C   UNL d   1      55.565  -1.349  33.613  0.00  0.00     0.026 A 
ATOM      9  C   UNL d   1      55.385   0.050  33.814  0.00  0.00     0.002 A 
ATOM     10  C   UNL d   1      55.284  -0.726  34.069  0.00  0.00     0.002 A 
ATOM     11  C   UNL d   1      55.104   0.681  34.269  0.00  0.00     0.000 C 
ENDROOT
BRANCH   1  12
ATOM     12  C   UNL d   1      56.645   0.256  31.499  0.00  0.00     0.085 C 
BRANCH  12  13
ATOM     13  C   UNL d   1      57.416   0.358  31.222  0.00  0.00     0.018 A 
ATOM     14  C   UNL d   1      57.592   0.243  30.434  0.00  0.00     0.004 A 
ATOM     15  C   UNL d   1      58.357   0.345  30.162  0.00  0.00     0.025 A 
ATOM     16  C   UNL d   1      58.954   0.565  30.686  0.00  0.00     0.100 A 
ATOM     17  C   UNL d   1      58.776   0.682  31.481  0.00  0.00     0.025 A 
ATOM     18  C   UNL d   1      58.003   0.578  31.755  0.00  0.00     0.004 A 
BRANCH  16  19
ATOM     19  O   UNL d   1      59.721   0.667  30.412  0.00  0.00    -0.305 OA
BRANCH  19  20
ATOM     20  C   UNL d   1      60.010   0.181  29.821  0.00  0.00     0.123 C 
BRANCH  20  21
ATOM     21  C   UNL d   1      60.791  -0.063  29.834  0.00  0.00     0.027 C 
ATOM     22  C   UNL d   1      61.097  -0.510  29.211  0.00  0.00     0.002 C 
ENDBRANCH  20  21
ENDBRANCH  19  20
ENDBRANCH  16  19
ENDBRANCH  12  13
ENDBRANCH   1  12
TORSDOF 5
ENDMDL
MODEL 4
REMARK VINA RESULT:      -3.7      1.171      4.499
REMARK  5 active torsions:
REMARK  status: ('A' for Active; 'I' for Inactive)
REMARK    1  A    between atoms: C_6  and  N_1 
REMARK    2  A    between atoms: C_10  and  C_6 
REMARK    3  A    between atoms: O_18  and  C_12 
REMARK    4  A    between atoms: C_20  and  O_18 
REMARK    5  A    between atoms: C_21  and  C_20 
ROOT
ATOM      1  N   UNL d   1      57.696   0.315  31.478  0.00  0.00    -0.251 N 
ATOM      2  C   UNL d   1      58.453   0.564  31.731  0.00  0.00     0.378 A 
ATOM      3  C   UNL d   1      57.208   0.268  32.145  0.00  0.00     0.092 A 
ATOM      4  O   UNL d   1      58.427   0.669  32.552  0.00  0.00    -0.258 OA
ATOM      5  C   UNL d   1      57.659   0.487  32.808  0.00  0.00     0.121 A 
ATOM      6  O   UNL d   1      59.104   0.681  31.244  0.00  0.00    -0.237 OA
ATOM      7  C   UNL d   1      56.420   0.057  32.227  0.00  0.00     0.020 A 
ATOM      8  C   UNL d   1      57.304   0.489  33.555  0.00  0.00     0.026 A 
ATOM      9  C   UNL d   1      56.075   0.062  32.977  0.00  0.00     0.002 A 
ATOM     10  C   UNL d   1      56.515   0.277  33.638  0.00  0.00     0.002 A 
ATOM     11  C   UNL d   1      55.279  -0.152  33.055  0.00  0.00     0.000 C 
ENDROOT
BRANCH   1  12
ATOM     12  C   UNL d   1      57.440   0.138  30.715  0.00  0.00     0.085 C 
BRANCH  12  13
ATOM     13  C   UNL d   1      57.845  -0.424  30.266  0.00  0.00     0.018 A 
ATOM     14  C   UNL d   1      57.830  -1.212  30.476  0.00  0.00     0.004 A 
ATOM     15  C   UNL d   1      58.233  -1.767  30.030  0.00  0.00     0.025 A 
ATOM     16  C   UNL d   1      58.657  -1.530  29.364  0.00  0.00     0.100 A 
ATOM     17  C   UNL d   1      58.672  -0.735  29.152  0.00  0.00     0.025 A 
ATOM     18  C   UNL d   1      58.265  -0.176  29.604  0.00  0.00     0.004 A 
BRANCH  16  19
ATOM     19  O   UNL d   1      59.061  -2.088  28.917  0.00  0.00    -0.305 OA
BRANCH  19  20
ATOM     20  C   UNL d   1      59.751  -2.420  29.206  0.00  0.00     0.123 C 
BRANCH  20  21
ATOM     21  C   UNL d   1      60.159  -2.973  28.762  0.00  0.00     0.027 C 
ATOM     22  C   UNL d   1      60.849  -3.316  29.060  0.00  0.00     0.002 C 
ENDBRANCH  20  21
ENDBRANCH  19  20
ENDBRANCH  16  19
ENDBRANCH  12  13
ENDBRANCH   1  12
TORSDOF 5
ENDMDL
