MODEL 1
REMARK VINA RESULT:      45.5      0.000      0.000
REMARK  4 active torsions:
REMARK  status: ('A' for Active; 'I' for Inactive)
REMARK    1  A    between atoms: N_7  and  C_1 
REMARK    2  A    between atoms: S_3  and  N_7 
REMARK    3  A    between atoms: N_8  and  S_3 
REMARK    4  A    between atoms: C_12  and  N_5 
ROOT
ATOM      1  C   UNL d   1     -56.169 -99.408 -44.551  0.00  0.00     0.170 A 
ATOM      2  C   UNL d   1     -56.160-100.069 -44.147  0.00  0.00     0.299 A 
ATOM      3  N   UNL d   1     -55.321-100.109 -45.086  0.00  0.00    -0.238 N 
ATOM      4  N   UNL d   1     -55.588-100.538 -44.510  0.00  0.00    -0.209 N 
ATOM      5  C   UNL d   1     -55.707 -99.351 -45.118  0.00  0.00     0.105 A 
ATOM      6  O   UNL d   1     -56.627-100.270 -43.483  0.00  0.00    -0.263 OA
ATOM      7  C   UNL d   1     -54.719-100.360 -45.622  0.00  0.00     0.120 C 
ATOM      8  C   UNL d   1     -55.384 -99.046 -45.681  0.00  0.00     0.022 C 
ENDROOT
BRANCH   1   9
ATOM      9  N   UNL d   1     -56.663 -98.755 -44.393  0.00  0.00    -0.137 NA
BRANCH   9  10
ATOM     10  S   UNL d   1     -57.488 -98.787 -44.563  0.00  0.00     0.351 S 
ATOM     11  O   UNL d   1     -57.705 -98.817 -43.748  0.00  0.00    -0.180 OA
ATOM     12  O   UNL d   1     -57.269 -98.757 -45.369  0.00  0.00    -0.180 OA
BRANCH  10  13
ATOM     13  N   UNL d   1     -58.276 -98.815 -44.828  0.00  0.00    -0.215 N 
ATOM     14  C   UNL d   1     -58.904 -98.893 -44.272  0.00  0.00     0.093 A 
ATOM     15  C   UNL d   1     -59.691 -98.920 -44.542  0.00  0.00     0.020 A 
ATOM     16  C   UNL d   1     -59.861 -98.870 -45.362  0.00  0.00     0.003 A 
ATOM     17  C   UNL d   1     -59.237 -98.793 -45.913  0.00  0.00     0.020 A 
ATOM     18  C   UNL d   1     -58.436 -98.764 -45.646  0.00  0.00     0.093 A 
ENDBRANCH  10  13
ENDBRANCH   9  10
ENDBRANCH   1   9
BRANCH   4  19
ATOM     19  C   UNL d   1     -55.298-101.319 -44.353  0.00  0.00     0.085 A 
ATOM     20  C   UNL d   1     -55.357-101.882 -44.952  0.00  0.00     0.019 A 
ATOM     21  C   UNL d   1     -55.076-102.647 -44.807  0.00  0.00     0.002 A 
ATOM     22  C   UNL d   1     -54.751-102.821 -44.074  0.00  0.00     0.000 A 
ATOM     23  C   UNL d   1     -54.713-102.249 -43.524  0.00  0.00     0.002 A 
ATOM     24  C   UNL d   1     -54.994-101.490 -43.677  0.00  0.00     0.019 A 
ENDBRANCH   4  19
TORSDOF 4
ENDMDL
