MODEL 1
REMARK VINA RESULT:      -7.4      0.000      0.000
REMARK  6 active torsions:
REMARK  status: ('A' for Active; 'I' for Inactive)
REMARK    1  A    between atoms: N_2  and  C_1 
REMARK    2  A    between atoms: N_3  and  C_1 
REMARK    3  A    between atoms: C_8  and  N_3 
REMARK    4  A    between atoms: C_5  and  O_7 
REMARK    5  A    between atoms: C_17  and  C_6 
REMARK    6  A    between atoms: O_7  and  C_9 
ROOT
ATOM      1  N   UNL d   1     -48.324  13.693  23.346  0.00  0.00    -0.219 NA
ENDROOT
BRANCH   1   2
ATOM      2  C   UNL d   1     -48.855  13.930  22.753  0.00  0.00     0.206 C 
ATOM      3  S   UNL d   1     -48.720  13.700  21.973  0.00  0.00    -0.038 SA
BRANCH   2   4
ATOM      4  N   UNL d   1     -49.516  14.394  22.950  0.00  0.00    -0.282 N 
ATOM      5  C   UNL d   1     -50.257  14.048  23.004  0.00  0.00     0.066 A 
ATOM      6  C   UNL d   1     -50.924  14.492  23.197  0.00  0.00     0.018 A 
ATOM      7  C   UNL d   1     -50.841  15.311  23.341  0.00  0.00     0.003 A 
ATOM      8  C   UNL d   1     -50.097  15.642  23.284  0.00  0.00     0.019 A 
ATOM      9  C   UNL d   1     -49.436  15.190  23.089  0.00  0.00     0.082 A 
BRANCH   5  10
ATOM     10  C   UNL d   1     -50.340  13.220  22.858  0.00  0.00     0.018 C 
ATOM     11  C   UNL d   1     -51.064  12.870  22.945  0.00  0.00     0.002 C 
ENDBRANCH   5  10
ENDBRANCH   2   4
ENDBRANCH   1   2
BRANCH   1  12
ATOM     12  C   UNL d   1     -47.545  13.501  23.162  0.00  0.00     0.084 A 
ATOM     13  C   UNL d   1     -47.304  12.701  23.166  0.00  0.00     0.021 A 
ATOM     14  C   UNL d   1     -46.543  12.498  22.988  0.00  0.00     0.026 A 
ATOM     15  C   UNL d   1     -45.977  13.098  22.795  0.00  0.00     0.105 A 
ATOM     16  C   UNL d   1     -46.218  13.899  22.791  0.00  0.00     0.026 A 
ATOM     17  C   UNL d   1     -46.997  14.091  22.974  0.00  0.00     0.021 A 
BRANCH  15  18
ATOM     18  O   UNL d   1     -45.198  12.902  22.612  0.00  0.00    -0.260 OA
BRANCH  18  19
ATOM     19  C   UNL d   1     -44.869  13.124  21.880  0.00  0.00     0.391 C 
ATOM     20  F   UNL d   1     -45.059  12.707  21.193  0.00  0.00    -0.145 F 
ATOM     21  F   UNL d   1     -44.343  13.773  21.842  0.00  0.00    -0.145 F 
ENDBRANCH  18  19
ENDBRANCH  15  18
ENDBRANCH   1  12
TORSDOF 6
ENDMDL
