MODEL 1
REMARK VINA RESULT:      -6.7      0.000      0.000
REMARK  4 active torsions:
REMARK  status: ('A' for Active; 'I' for Inactive)
REMARK    1  A    between atoms: C_2  and  C_1 
REMARK    2  A    between atoms: C_15  and  C_8 
REMARK    3  A    between atoms: C_9  and  C_15 
REMARK    4  A    between atoms: C_18  and  C_10 
ROOT
ATOM      1  C   UNL d   1      57.519   0.133  31.335  0.00  0.00     0.094 A 
ATOM      2  N   UNL d   1      57.511   0.059  30.514  0.00  0.00    -0.238 NA
ATOM      3  C   UNL d   1      58.207   0.394  30.221  0.00  0.00     0.113 A 
ATOM      4  S   UNL d   1      58.644   0.675  30.855  0.00  0.00    -0.066 SA
ATOM      5  C   UNL d   1      58.222   0.515  31.546  0.00  0.00     0.056 A 
ENDROOT
BRANCH   3   6
ATOM      6  C   UNL d   1      58.422   0.438  29.424  0.00  0.00     0.051 C 
BRANCH   6   7
ATOM      7  C   UNL d   1      59.002  -0.072  29.129  0.00  0.00     0.113 A 
ATOM      8  N   UNL d   1      59.085  -0.872  29.307  0.00  0.00    -0.238 NA
ATOM      9  C   UNL d   1      59.736  -1.161  28.891  0.00  0.00     0.088 A 
ATOM     10  C   UNL d   1      60.055  -0.538  28.456  0.00  0.00     0.056 A 
ATOM     11  S   UNL d   1      59.603   0.134  28.602  0.00  0.00    -0.066 SA
BRANCH   9  12
ATOM     12  C   UNL d   1      60.015  -1.940  28.911  0.00  0.00     0.018 A 
ATOM     13  C   UNL d   1      60.815  -2.089  28.940  0.00  0.00     0.002 A 
ATOM     14  C   UNL d   1      61.091  -2.866  28.959  0.00  0.00     0.007 A 
ATOM     15  C   UNL d   1      60.554  -3.494  28.949  0.00  0.00     0.035 A 
ATOM     16  C   UNL d   1      59.753  -3.345  28.921  0.00  0.00     0.007 A 
ATOM     17 BR   UNL d   1      60.829  -4.271  28.969  0.00  0.00    -0.049 Br
ATOM     18  C   UNL d   1      59.474  -2.566  28.901  0.00  0.00     0.002 A 
ENDBRANCH   9  12
ENDBRANCH   6   7
ENDBRANCH   3   6
BRANCH   1  19
ATOM     19  C   UNL d   1      56.932  -0.127  31.853  0.00  0.00     0.082 A 
ATOM     20  C   UNL d   1      56.711  -0.923  31.860  0.00  0.00     0.302 A 
ATOM     21  O   UNL d   1      56.124  -1.183  32.378  0.00  0.00    -0.273 OA
ATOM     22  O   UNL d   1      57.078  -1.457  31.351  0.00  0.00    -0.259 OA
ATOM     23  C   UNL d   1      55.757  -0.648  32.888  0.00  0.00     0.103 A 
ATOM     24  C   UNL d   1      55.977   0.148  32.880  0.00  0.00     0.023 A 
ATOM     25  C   UNL d   1      55.170  -0.908  33.405  0.00  0.00     0.025 A 
ATOM     26  C   UNL d   1      56.565   0.407  32.362  0.00  0.00     0.009 A 
ATOM     27  C   UNL d   1      55.610   0.682  33.389  0.00  0.00     0.002 A 
ATOM     28  C   UNL d   1      55.026   0.421  33.903  0.00  0.00     0.000 A 
ATOM     29  C   UNL d   1      54.805  -0.375  33.911  0.00  0.00     0.002 A 
ENDBRANCH   1  19
TORSDOF 4
ENDMDL
MODEL 2
REMARK VINA RESULT:      -5.9      2.160      5.426
REMARK  4 active torsions:
REMARK  status: ('A' for Active; 'I' for Inactive)
REMARK    1  A    between atoms: C_2  and  C_1 
REMARK    2  A    between atoms: C_15  and  C_8 
REMARK    3  A    between atoms: C_9  and  C_15 
REMARK    4  A    between atoms: C_18  and  C_10 
ROOT
ATOM      1  C   UNL d   1      59.246  -1.029  28.905  0.00  0.00     0.094 A 
ATOM      2  N   UNL d   1      58.597  -0.761  29.337  0.00  0.00    -0.238 NA
ATOM      3  C   UNL d   1      58.557   0.059  29.254  0.00  0.00     0.113 A 
ATOM      4  S   UNL d   1      59.176   0.301  28.775  0.00  0.00    -0.066 SA
ATOM      5  C   UNL d   1      59.605  -0.370  28.557  0.00  0.00     0.056 A 
ENDROOT
BRANCH   3   6
ATOM      6  C   UNL d   1      57.987   0.551  29.598  0.00  0.00     0.051 C 
BRANCH   6   7
ATOM      7  C   UNL d   1      57.845   0.504  30.410  0.00  0.00     0.113 A 
ATOM      8  N   UNL d   1      57.140   0.273  30.771  0.00  0.00    -0.238 NA
ATOM      9  C   UNL d   1      57.247   0.308  31.588  0.00  0.00     0.088 A 
ATOM     10  C   UNL d   1      58.019   0.561  31.732  0.00  0.00     0.056 A 
ATOM     11  S   UNL d   1      58.388   0.682  31.007  0.00  0.00    -0.066 SA
BRANCH   9  12
ATOM     12  C   UNL d   1      56.677   0.121  32.158  0.00  0.00     0.018 A 
ATOM     13  C   UNL d   1      56.122   0.675  32.380  0.00  0.00     0.002 A 
ATOM     14  C   UNL d   1      55.555   0.486  32.949  0.00  0.00     0.007 A 
ATOM     15  C   UNL d   1      55.550  -0.265  33.292  0.00  0.00     0.035 A 
ATOM     16  C   UNL d   1      56.105  -0.819  33.070  0.00  0.00     0.007 A 
ATOM     17 BR   UNL d   1      54.983  -0.454  33.861  0.00  0.00    -0.049 Br
ATOM     18  C   UNL d   1      56.675  -0.632  32.500  0.00  0.00     0.002 A 
ENDBRANCH   9  12
ENDBRANCH   6   7
ENDBRANCH   3   6
BRANCH   1  19
ATOM     19  C   UNL d   1      59.493  -1.813  28.833  0.00  0.00     0.082 A 
ATOM     20  C   UNL d   1      60.297  -1.998  28.879  0.00  0.00     0.302 A 
ATOM     21  O   UNL d   1      60.544  -2.781  28.807  0.00  0.00    -0.273 OA
ATOM     22  O   UNL d   1      60.852  -1.399  28.995  0.00  0.00    -0.259 OA
ATOM     23  C   UNL d   1      59.989  -3.380  28.690  0.00  0.00     0.103 A 
ATOM     24  C   UNL d   1      59.185  -3.195  28.645  0.00  0.00     0.023 A 
ATOM     25  C   UNL d   1      60.236  -4.164  28.619  0.00  0.00     0.025 A 
ATOM     26  C   UNL d   1      58.939  -2.411  28.717  0.00  0.00     0.009 A 
ATOM     27  C   UNL d   1      58.631  -3.794  28.529  0.00  0.00     0.002 A 
ATOM     28  C   UNL d   1      58.878  -4.573  28.457  0.00  0.00     0.000 A 
ATOM     29  C   UNL d   1      59.682  -4.758  28.503  0.00  0.00     0.002 A 
ENDBRANCH   1  19
TORSDOF 4
ENDMDL
