MODEL 1
REMARK VINA RESULT:      -6.7      0.000      0.000
REMARK  1 active torsions:
REMARK  status: ('A' for Active; 'I' for Inactive)
REMARK    1  A    between atoms: N_3  and  C_1 
ROOT
ATOM      1  C   UNL d   1     -47.612  12.898  22.924  0.00  0.00     0.158 A 
ATOM      2  C   UNL d   1     -47.630  13.725  22.900  0.00  0.00     0.103 A 
ATOM      3  C   UNL d   1     -48.351  14.129  22.899  0.00  0.00     0.104 C 
ATOM      4  N   UNL d   1     -49.071  14.525  22.898  0.00  0.00    -0.191 NA
ATOM      5  N   UNL d   1     -46.888  12.502  22.925  0.00  0.00    -0.226 NA
ATOM      6  C   UNL d   1     -46.925  14.153  22.878  0.00  0.00     0.015 A 
ATOM      7  C   UNL d   1     -46.185  12.929  22.902  0.00  0.00     0.101 A 
ATOM      8  C   UNL d   1     -46.204  13.757  22.879  0.00  0.00     0.021 A 
ENDROOT
BRANCH   1   9
ATOM      9  N   UNL d   1     -48.314  12.474  22.947  0.00  0.00    -0.286 N 
ATOM     10  C   UNL d   1     -48.641  12.258  23.676  0.00  0.00     0.102 A 
ATOM     11  C   UNL d   1     -49.343  11.835  23.698  0.00  0.00     0.118 A 
ATOM     12  N   UNL d   1     -49.723  11.625  23.003  0.00  0.00    -0.239 NA
ATOM     13  C   UNL d   1     -49.398  11.840  22.277  0.00  0.00     0.118 A 
ATOM     14  C   UNL d   1     -48.692  12.266  22.247  0.00  0.00     0.102 A 
ENDBRANCH   1   9
TORSDOF 1
ENDMDL
MODEL 2
REMARK VINA RESULT:      -6.7      0.970      1.963
REMARK  1 active torsions:
REMARK  status: ('A' for Active; 'I' for Inactive)
REMARK    1  A    between atoms: N_3  and  C_1 
ROOT
ATOM      1  C   UNL d   1     -47.930  12.712  22.946  0.00  0.00     0.158 A 
ATOM      2  C   UNL d   1     -48.110  11.995  23.321  0.00  0.00     0.103 A 
ATOM      3  C   UNL d   1     -48.884  11.705  23.323  0.00  0.00     0.104 C 
ATOM      4  N   UNL d   1     -49.655  11.422  23.322  0.00  0.00    -0.191 NA
ATOM      5  N   UNL d   1     -47.155  12.995  22.949  0.00  0.00    -0.226 NA
ATOM      6  C   UNL d   1     -47.513  11.566  23.696  0.00  0.00     0.015 A 
ATOM      7  C   UNL d   1     -46.561  12.565  23.323  0.00  0.00     0.101 A 
ATOM      8  C   UNL d   1     -46.741  11.849  23.698  0.00  0.00     0.021 A 
ENDROOT
BRANCH   1   9
ATOM      9  N   UNL d   1     -48.524  13.137  22.573  0.00  0.00    -0.286 N 
ATOM     10  C   UNL d   1     -48.919  13.738  22.983  0.00  0.00     0.102 A 
ATOM     11  C   UNL d   1     -49.512  14.163  22.611  0.00  0.00     0.118 A 
ATOM     12  N   UNL d   1     -49.718  13.997  21.835  0.00  0.00    -0.239 NA
ATOM     13  C   UNL d   1     -49.325  13.399  21.427  0.00  0.00     0.118 A 
ATOM     14  C   UNL d   1     -48.727  12.967  21.795  0.00  0.00     0.102 A 
ENDBRANCH   1   9
TORSDOF 1
ENDMDL
MODEL 3
REMARK VINA RESULT:      -6.6      1.126      2.928
REMARK  1 active torsions:
REMARK  status: ('A' for Active; 'I' for Inactive)
REMARK    1  A    between atoms: N_3  and  C_1 
ROOT
ATOM      1  C   UNL d   1     -48.101  12.880  22.201  0.00  0.00     0.158 A 
ATOM      2  C   UNL d   1     -48.406  12.193  22.550  0.00  0.00     0.103 A 
ATOM      3  C   UNL d   1     -47.974  11.787  23.125  0.00  0.00     0.104 C 
ATOM      4  N   UNL d   1     -47.539  11.387  23.697  0.00  0.00    -0.191 NA
ATOM      5  N   UNL d   1     -48.539  13.280  21.628  0.00  0.00    -0.226 NA
ATOM      6  C   UNL d   1     -49.148  11.911  22.323  0.00  0.00     0.015 A 
ATOM      7  C   UNL d   1     -49.278  12.997  21.403  0.00  0.00     0.101 A 
ATOM      8  C   UNL d   1     -49.583  12.311  21.751  0.00  0.00     0.021 A 
ENDROOT
BRANCH   1   9
ATOM      9  N   UNL d   1     -47.364  13.159  22.428  0.00  0.00    -0.286 N 
ATOM     10  C   UNL d   1     -47.305  13.722  23.033  0.00  0.00     0.102 A 
ATOM     11  C   UNL d   1     -46.569  14.001  23.259  0.00  0.00     0.118 A 
ATOM     12  N   UNL d   1     -45.889  13.727  22.891  0.00  0.00    -0.239 NA
ATOM     13  C   UNL d   1     -45.948  13.167  22.289  0.00  0.00     0.118 A 
ATOM     14  C   UNL d   1     -46.686  12.882  22.056  0.00  0.00     0.102 A 
ENDBRANCH   1   9
TORSDOF 1
ENDMDL
