MODEL 1
REMARK VINA RESULT:      -4.8      0.000      0.000
REMARK  5 active torsions:
REMARK  status: ('A' for Active; 'I' for Inactive)
REMARK    1  A    between atoms: S_2  and  C_1 
REMARK    2  A    between atoms: C_9  and  S_2 
REMARK    3  A    between atoms: N_14  and  C_10 
REMARK    4  A    between atoms: C_22  and  N_14 
REMARK    5  A    between atoms: C_23  and  N_14 
ROOT
ATOM      1  C   UNL d   1     -41.760-122.334 -51.782  0.00  0.00     0.151 A 
ATOM      2  C   UNL d   1     -41.424-121.729 -51.332  0.00  0.00     0.311 A 
ATOM      3  C   UNL d   1     -42.063-123.010 -51.406  0.00  0.00     0.019 A 
ATOM      4  O   UNL d   1     -41.391-121.801 -50.506  0.00  0.00    -0.272 OA
ATOM      5  C   UNL d   1     -41.692-122.471 -50.136  0.00  0.00     0.105 A 
ATOM      6  C   UNL d   1     -42.028-123.076 -50.586  0.00  0.00     0.024 A 
ATOM      7  C   UNL d   1     -41.657-122.539 -49.316  0.00  0.00     0.042 A 
ATOM      8  C   UNL d   1     -41.958-123.209 -48.946  0.00  0.00     0.066 A 
ATOM      9  O   UNL d   1     -41.123-121.056 -51.706  0.00  0.00    -0.258 OA
ATOM     10  C   UNL d   1     -42.329-123.748 -50.216  0.00  0.00     0.004 A 
ATOM     11  C   UNL d   1     -42.294-123.814 -49.396  0.00  0.00     0.018 A 
ENDROOT
BRANCH   1  12
ATOM     12  S   UNL d   1     -41.797-122.271 -52.610  0.00  0.00     0.215 S 
ATOM     13  O   UNL d   1     -42.379-121.673 -52.540  0.00  0.00    -0.217 OA
ATOM     14  O   UNL d   1     -41.216-122.867 -52.690  0.00  0.00    -0.217 OA
BRANCH  12  15
ATOM     15  C   UNL d   1     -41.836-122.207 -53.448  0.00  0.00     0.088 A 
ATOM     16  C   UNL d   1     -41.299-122.623 -53.911  0.00  0.00     0.011 A 
ATOM     17  C   UNL d   1     -41.332-122.563 -54.732  0.00  0.00     0.001 A 
ATOM     18  C   UNL d   1     -41.904-122.087 -55.088  0.00  0.00     0.000 A 
ATOM     19  C   UNL d   1     -42.443-121.669 -54.620  0.00  0.00     0.001 A 
ATOM     20  C   UNL d   1     -41.944-122.022 -55.922  0.00  0.00     0.000 C 
ATOM     21  C   UNL d   1     -42.409-121.729 -53.799  0.00  0.00     0.011 A 
ENDBRANCH  12  15
ENDBRANCH   1  12
BRANCH   8  22
ATOM     22  N   UNL d   1     -41.925-123.283 -48.116  0.00  0.00    -0.304 N 
BRANCH  22  23
ATOM     23  C   UNL d   1     -41.192-123.306 -47.733  0.00  0.00     0.080 C 
ATOM     24  C   UNL d   1     -41.124-123.665 -46.993  0.00  0.00     0.021 C 
ENDBRANCH  22  23
BRANCH  22  25
ATOM     25  C   UNL d   1     -42.626-123.332 -47.684  0.00  0.00     0.080 C 
ATOM     26  C   UNL d   1     -42.602-123.382 -46.862  0.00  0.00     0.021 C 
ENDBRANCH  22  25
ENDBRANCH   8  22
TORSDOF 5
ENDMDL
MODEL 2
REMARK VINA RESULT:      -4.2      1.622      5.335
REMARK  5 active torsions:
REMARK  status: ('A' for Active; 'I' for Inactive)
REMARK    1  A    between atoms: S_2  and  C_1 
REMARK    2  A    between atoms: C_9  and  S_2 
REMARK    3  A    between atoms: N_14  and  C_10 
REMARK    4  A    between atoms: C_22  and  N_14 
REMARK    5  A    between atoms: C_23  and  N_14 
ROOT
ATOM      1  C   UNL d   1     -41.854-122.841 -50.721  0.00  0.00     0.151 A 
ATOM      2  C   UNL d   1     -42.226-122.154 -50.986  0.00  0.00     0.311 A 
ATOM      3  C   UNL d   1     -41.485-123.347 -51.267  0.00  0.00     0.019 A 
ATOM      4  O   UNL d   1     -42.229-121.973 -51.796  0.00  0.00    -0.272 OA
ATOM      5  C   UNL d   1     -41.862-122.476 -52.334  0.00  0.00     0.105 A 
ATOM      6  C   UNL d   1     -41.490-123.163 -52.069  0.00  0.00     0.024 A 
ATOM      7  C   UNL d   1     -41.866-122.293 -53.137  0.00  0.00     0.042 A 
ATOM      8  C   UNL d   1     -41.500-122.796 -53.675  0.00  0.00     0.066 A 
ATOM      9  O   UNL d   1     -42.594-121.650 -50.444  0.00  0.00    -0.258 OA
ATOM     10  C   UNL d   1     -41.123-123.668 -52.608  0.00  0.00     0.004 A 
ATOM     11  C   UNL d   1     -41.128-123.484 -53.410  0.00  0.00     0.018 A 
ENDROOT
BRANCH   1  12
ATOM     12  S   UNL d   1     -41.846-123.031 -49.912  0.00  0.00     0.215 S 
ATOM     13  O   UNL d   1     -41.151-122.577 -49.811  0.00  0.00    -0.217 OA
ATOM     14  O   UNL d   1     -42.542-123.486 -50.004  0.00  0.00    -0.217 OA
BRANCH  12  15
ATOM     15  C   UNL d   1     -41.838-123.222 -49.094  0.00  0.00     0.088 A 
ATOM     16  C   UNL d   1     -42.533-123.465 -48.727  0.00  0.00     0.011 A 
ATOM     17  C   UNL d   1     -42.530-123.654 -47.925  0.00  0.00     0.001 A 
ATOM     18  C   UNL d   1     -41.831-123.599 -47.491  0.00  0.00     0.000 A 
ATOM     19  C   UNL d   1     -41.133-123.354 -47.861  0.00  0.00     0.001 A 
ATOM     20  C   UNL d   1     -41.821-123.789 -46.676  0.00  0.00     0.000 C 
ATOM     21  C   UNL d   1     -41.137-123.166 -48.663  0.00  0.00     0.011 A 
ENDBRANCH  12  15
ENDBRANCH   1  12
BRANCH   8  22
ATOM     22  N   UNL d   1     -41.501-122.616 -54.489  0.00  0.00    -0.304 N 
BRANCH  22  23
ATOM     23  C   UNL d   1     -41.708-121.855 -54.742  0.00  0.00     0.080 C 
ATOM     24  C   UNL d   1     -42.145-121.755 -55.434  0.00  0.00     0.021 C 
ENDBRANCH  22  23
BRANCH  22  25
ATOM     25  C   UNL d   1     -41.296-123.199 -55.036  0.00  0.00     0.080 C 
ATOM     26  C   UNL d   1     -41.208-123.005 -55.832  0.00  0.00     0.021 C 
ENDBRANCH  22  25
ENDBRANCH   8  22
TORSDOF 5
ENDMDL
