MODEL 1
REMARK VINA RESULT:      -6.8      0.000      0.000
REMARK  6 active torsions:
REMARK  status: ('A' for Active; 'I' for Inactive)
REMARK    1  A    between atoms: C_6  and  C_1 
REMARK    2  A    between atoms: C_9  and  N_3 
REMARK    3  A    between atoms: C_17  and  C_9 
REMARK    4  A    between atoms: O_15  and  C_10 
REMARK    5  A    between atoms: O_16  and  C_17 
REMARK    6  A    between atoms: C_18  and  O_16 
ROOT
ATOM      1  C   UNL d   1     -48.202  12.502  23.005  0.00  0.00     0.148 A 
ATOM      2  N   UNL d   1     -48.403  11.709  23.173  0.00  0.00    -0.227 NA
ATOM      3  N   UNL d   1     -48.881  12.968  23.075  0.00  0.00    -0.287 N 
ATOM      4  C   UNL d   1     -49.511  12.473  23.286  0.00  0.00     0.083 A 
ATOM      5  C   UNL d   1     -49.216  11.701  23.346  0.00  0.00     0.099 A 
ATOM      6  C   UNL d   1     -50.319  12.615  23.434  0.00  0.00     0.019 A 
ATOM      7  C   UNL d   1     -49.725  11.075  23.552  0.00  0.00     0.021 A 
ATOM      8  C   UNL d   1     -50.822  11.994  23.638  0.00  0.00     0.002 A 
ATOM      9  C   UNL d   1     -50.524  11.223  23.697  0.00  0.00     0.002 A 
ENDROOT
BRANCH   1  10
ATOM     10  C   UNL d   1     -47.449  12.771  22.804  0.00  0.00     0.035 A 
ATOM     11  C   UNL d   1     -47.303  13.053  22.043  0.00  0.00     0.005 A 
ATOM     12  C   UNL d   1     -46.554  13.321  21.842  0.00  0.00     0.024 A 
ATOM     13  C   UNL d   1     -45.943  13.309  22.397  0.00  0.00     0.094 A 
ATOM     14  C   UNL d   1     -46.090  13.022  23.172  0.00  0.00     0.024 A 
ATOM     15  C   UNL d   1     -46.843  12.755  23.367  0.00  0.00     0.005 A 
BRANCH  13  16
ATOM     16  O   UNL d   1     -45.187  13.577  22.202  0.00  0.00    -0.328 OA
ATOM     17  C   UNL d   1     -44.623  13.037  21.935  0.00  0.00     0.181 C 
ENDBRANCH  13  16
ENDBRANCH   1  10
BRANCH   3  18
ATOM     18  C   UNL d   1     -48.762  13.766  22.924  0.00  0.00     0.108 C 
BRANCH  18  19
ATOM     19  C   UNL d   1     -49.205  14.332  23.326  0.00  0.00     0.142 C 
BRANCH  19  20
ATOM     20  O   UNL d   1     -49.224  15.107  23.056  0.00  0.00    -0.302 OA
BRANCH  20  21
ATOM     21  C   UNL d   1     -49.626  15.680  23.487  0.00  0.00     0.123 C 
ATOM     22  C   UNL d   1     -50.381  15.919  23.248  0.00  0.00     0.029 C 
ENDBRANCH  20  21
ENDBRANCH  19  20
ENDBRANCH  18  19
ENDBRANCH   3  18
TORSDOF 6
ENDMDL
MODEL 2
REMARK VINA RESULT:      -6.7      1.231      3.611
REMARK  6 active torsions:
REMARK  status: ('A' for Active; 'I' for Inactive)
REMARK    1  A    between atoms: C_6  and  C_1 
REMARK    2  A    between atoms: C_9  and  N_3 
REMARK    3  A    between atoms: C_17  and  C_9 
REMARK    4  A    between atoms: O_15  and  C_10 
REMARK    5  A    between atoms: O_16  and  C_17 
REMARK    6  A    between atoms: C_18  and  O_16 
ROOT
ATOM      1  C   UNL d   1     -47.595  12.720  22.695  0.00  0.00     0.148 A 
ATOM      2  N   UNL d   1     -46.895  12.334  22.456  0.00  0.00    -0.227 NA
ATOM      3  N   UNL d   1     -47.436  13.526  22.788  0.00  0.00    -0.287 N 
ATOM      4  C   UNL d   1     -46.637  13.651  22.608  0.00  0.00     0.083 A 
ATOM      5  C   UNL d   1     -46.307  12.919  22.404  0.00  0.00     0.099 A 
ATOM      6  C   UNL d   1     -46.157  14.333  22.599  0.00  0.00     0.019 A 
ATOM      7  C   UNL d   1     -45.503  12.869  22.193  0.00  0.00     0.021 A 
ATOM      8  C   UNL d   1     -45.362  14.282  22.390  0.00  0.00     0.002 A 
ATOM      9  C   UNL d   1     -45.034  13.548  22.187  0.00  0.00     0.002 A 
ENDROOT
BRANCH   1  10
ATOM     10  C   UNL d   1     -48.324  12.353  22.819  0.00  0.00     0.035 A 
ATOM     11  C   UNL d   1     -48.525  12.082  23.571  0.00  0.00     0.005 A 
ATOM     12  C   UNL d   1     -49.250  11.717  23.693  0.00  0.00     0.024 A 
ATOM     13  C   UNL d   1     -49.780  11.620  23.069  0.00  0.00     0.094 A 
ATOM     14  C   UNL d   1     -49.576  11.895  22.303  0.00  0.00     0.024 A 
ATOM     15  C   UNL d   1     -48.848  12.260  22.186  0.00  0.00     0.005 A 
BRANCH  13  16
ATOM     16  O   UNL d   1     -50.511  11.253  23.185  0.00  0.00    -0.328 OA
ATOM     17  C   UNL d   1     -51.062  11.603  23.690  0.00  0.00     0.181 C 
ENDBRANCH  13  16
ENDBRANCH   1  10
BRANCH   3  18
ATOM     18  C   UNL d   1     -48.081  13.975  23.025  0.00  0.00     0.108 C 
BRANCH  18  19
ATOM     19  C   UNL d   1     -48.148  14.759  22.783  0.00  0.00     0.142 C 
BRANCH  19  20
ATOM     20  O   UNL d   1     -48.650  15.271  23.183  0.00  0.00    -0.302 OA
BRANCH  20  21
ATOM     21  C   UNL d   1     -49.290  15.606  22.791  0.00  0.00     0.123 C 
ATOM     22  C   UNL d   1     -49.955  15.846  23.220  0.00  0.00     0.029 C 
ENDBRANCH  20  21
ENDBRANCH  19  20
ENDBRANCH  18  19
ENDBRANCH   3  18
TORSDOF 6
ENDMDL
MODEL 3
REMARK VINA RESULT:      -6.4      1.312      3.995
REMARK  6 active torsions:
REMARK  status: ('A' for Active; 'I' for Inactive)
REMARK    1  A    between atoms: C_6  and  C_1 
REMARK    2  A    between atoms: C_9  and  N_3 
REMARK    3  A    between atoms: C_17  and  C_9 
REMARK    4  A    between atoms: O_15  and  C_10 
REMARK    5  A    between atoms: O_16  and  C_17 
REMARK    6  A    between atoms: C_18  and  O_16 
ROOT
ATOM      1  C   UNL d   1     -47.617  13.893  22.546  0.00  0.00     0.148 A 
ATOM      2  N   UNL d   1     -46.905  14.178  22.218  0.00  0.00    -0.227 NA
ATOM      3  N   UNL d   1     -47.470  13.165  22.909  0.00  0.00    -0.287 N 
ATOM      4  C   UNL d   1     -46.667  12.987  22.811  0.00  0.00     0.083 A 
ATOM      5  C   UNL d   1     -46.321  13.610  22.387  0.00  0.00     0.099 A 
ATOM      6  C   UNL d   1     -46.194  12.343  23.049  0.00  0.00     0.019 A 
ATOM      7  C   UNL d   1     -45.510  13.588  22.202  0.00  0.00     0.021 A 
ATOM      8  C   UNL d   1     -45.392  12.323  22.865  0.00  0.00     0.002 A 
ATOM      9  C   UNL d   1     -45.049  12.947  22.441  0.00  0.00     0.002 A 
ENDROOT
BRANCH   1  10
ATOM     10  C   UNL d   1     -48.346  14.278  22.512  0.00  0.00     0.035 A 
ATOM     11  C   UNL d   1     -48.545  14.832  23.090  0.00  0.00     0.005 A 
ATOM     12  C   UNL d   1     -49.270  15.215  23.056  0.00  0.00     0.024 A 
ATOM     13  C   UNL d   1     -49.802  15.051  22.448  0.00  0.00     0.094 A 
ATOM     14  C   UNL d   1     -49.601  14.488  21.859  0.00  0.00     0.024 A 
ATOM     15  C   UNL d   1     -48.872  14.107  21.898  0.00  0.00     0.005 A 
BRANCH  13  16
ATOM     16  O   UNL d   1     -50.533  15.433  22.408  0.00  0.00    -0.328 OA
ATOM     17  C   UNL d   1     -50.974  15.535  23.098  0.00  0.00     0.181 C 
ENDBRANCH  13  16
ENDBRANCH   1  10
BRANCH   3  18
ATOM     18  C   UNL d   1     -48.128  12.819  23.258  0.00  0.00     0.108 C 
BRANCH  18  19
ATOM     19  C   UNL d   1     -48.291  12.023  23.131  0.00  0.00     0.142 C 
BRANCH  19  20
ATOM     20  O   UNL d   1     -48.706  11.593  23.694  0.00  0.00    -0.302 OA
BRANCH  20  21
ATOM     21  C   UNL d   1     -49.300  11.076  23.459  0.00  0.00     0.123 C 
ATOM     22  C   UNL d   1     -50.081  11.212  23.698  0.00  0.00     0.029 C 
ENDBRANCH  20  21
ENDBRANCH  19  20
ENDBRANCH  18  19
ENDBRANCH   3  18
TORSDOF 6
ENDMDL
MODEL 4
REMARK VINA RESULT:      -6.1      8.833     10.398
REMARK  6 active torsions:
REMARK  status: ('A' for Active; 'I' for Inactive)
REMARK    1  A    between atoms: C_6  and  C_1 
REMARK    2  A    between atoms: C_9  and  N_3 
REMARK    3  A    between atoms: C_17  and  C_9 
REMARK    4  A    between atoms: O_15  and  C_10 
REMARK    5  A    between atoms: O_16  and  C_17 
REMARK    6  A    between atoms: C_18  and  O_16 
ROOT
ATOM      1  C   UNL d   1     -39.322  14.454  18.511  0.00  0.00     0.148 A 
ATOM      2  N   UNL d   1     -38.673  13.931  18.491  0.00  0.00    -0.227 NA
ATOM      3  N   UNL d   1     -39.571  14.599  17.736  0.00  0.00    -0.287 N 
ATOM      4  C   UNL d   1     -39.081  14.168  17.226  0.00  0.00     0.083 A 
ATOM      5  C   UNL d   1     -38.530  13.759  17.690  0.00  0.00     0.099 A 
ATOM      6  C   UNL d   1     -39.056  14.088  16.396  0.00  0.00     0.019 A 
ATOM      7  C   UNL d   1     -37.959  13.273  17.328  0.00  0.00     0.021 A 
ATOM      8  C   UNL d   1     -38.490  13.607  16.040  0.00  0.00     0.002 A 
ATOM      9  C   UNL d   1     -37.940  13.199  16.507  0.00  0.00     0.002 A 
ENDROOT
BRANCH   1  10
ATOM     10  C   UNL d   1     -39.657  14.773  19.195  0.00  0.00     0.035 A 
ATOM     11  C   UNL d   1     -40.212  14.338  19.621  0.00  0.00     0.005 A 
ATOM     12  C   UNL d   1     -40.546  14.655  20.301  0.00  0.00     0.024 A 
ATOM     13  C   UNL d   1     -40.329  15.407  20.562  0.00  0.00     0.094 A 
ATOM     14  C   UNL d   1     -39.763  15.851  20.129  0.00  0.00     0.024 A 
ATOM     15  C   UNL d   1     -39.433  15.528  19.448  0.00  0.00     0.005 A 
BRANCH  13  16
ATOM     16  O   UNL d   1     -40.660  15.732  21.245  0.00  0.00    -0.328 OA
ATOM     17  C   UNL d   1     -40.170  15.921  21.881  0.00  0.00     0.181 C 
ENDBRANCH  13  16
ENDBRANCH   1  10
BRANCH   3  18
ATOM     18  C   UNL d   1     -40.211  15.109  17.674  0.00  0.00     0.108 C 
BRANCH  18  19
ATOM     19  C   UNL d   1     -40.647  15.140  16.977  0.00  0.00     0.142 C 
BRANCH  19  20
ATOM     20  O   UNL d   1     -41.402  15.464  16.978  0.00  0.00    -0.302 OA
BRANCH  20  21
ATOM     21  C   UNL d   1     -41.651  15.921  16.343  0.00  0.00     0.123 C 
ATOM     22  C   UNL d   1     -42.386  15.772  15.993  0.00  0.00     0.029 C 
ENDBRANCH  20  21
ENDBRANCH  19  20
ENDBRANCH  18  19
ENDBRANCH   3  18
TORSDOF 6
ENDMDL
MODEL 5
REMARK VINA RESULT:      -5.9      1.634      3.626
REMARK  6 active torsions:
REMARK  status: ('A' for Active; 'I' for Inactive)
REMARK    1  A    between atoms: C_6  and  C_1 
REMARK    2  A    between atoms: C_9  and  N_3 
REMARK    3  A    between atoms: C_17  and  C_9 
REMARK    4  A    between atoms: O_15  and  C_10 
REMARK    5  A    between atoms: O_16  and  C_17 
REMARK    6  A    between atoms: C_18  and  O_16 
ROOT
ATOM      1  C   UNL d   1     -47.845  11.567  23.210  0.00  0.00     0.148 A 
ATOM      2  N   UNL d   1     -47.608  10.773  23.299  0.00  0.00    -0.227 NA
ATOM      3  N   UNL d   1     -47.182  12.054  23.293  0.00  0.00    -0.287 N 
ATOM      4  C   UNL d   1     -46.525  11.570  23.435  0.00  0.00     0.083 A 
ATOM      5  C   UNL d   1     -46.788  10.784  23.438  0.00  0.00     0.099 A 
ATOM      6  C   UNL d   1     -45.718  11.732  23.562  0.00  0.00     0.019 A 
ATOM      7  C   UNL d   1     -46.247  10.165  23.568  0.00  0.00     0.021 A 
ATOM      8  C   UNL d   1     -45.183  11.118  23.691  0.00  0.00     0.002 A 
ATOM      9  C   UNL d   1     -45.449  10.333  23.694  0.00  0.00     0.002 A 
ENDROOT
BRANCH   1  10
ATOM     10  C   UNL d   1     -48.616  11.821  23.062  0.00  0.00     0.035 A 
ATOM     11  C   UNL d   1     -48.879  11.907  22.286  0.00  0.00     0.005 A 
ATOM     12  C   UNL d   1     -49.647  12.159  22.139  0.00  0.00     0.024 A 
ATOM     13  C   UNL d   1     -50.158  12.327  22.764  0.00  0.00     0.094 A 
ATOM     14  C   UNL d   1     -49.892  12.240  23.555  0.00  0.00     0.024 A 
ATOM     15  C   UNL d   1     -49.121  11.987  23.696  0.00  0.00     0.005 A 
BRANCH  13  16
ATOM     16  O   UNL d   1     -50.932  12.581  22.624  0.00  0.00    -0.328 OA
ATOM     17  C   UNL d   1     -51.064  13.361  22.388  0.00  0.00     0.181 C 
ENDBRANCH  13  16
ENDBRANCH   1  10
BRANCH   3  18
ATOM     18  C   UNL d   1     -47.338  12.857  23.217  0.00  0.00     0.108 C 
BRANCH  18  19
ATOM     19  C   UNL d   1     -46.734  13.376  23.010  0.00  0.00     0.142 C 
BRANCH  19  20
ATOM     20  O   UNL d   1     -46.774  14.164  23.237  0.00  0.00    -0.302 OA
BRANCH  20  21
ATOM     21  C   UNL d   1     -46.582  14.755  22.698  0.00  0.00     0.123 C 
ATOM     22  C   UNL d   1     -47.181  15.223  22.372  0.00  0.00     0.029 C 
ENDBRANCH  20  21
ENDBRANCH  19  20
ENDBRANCH  18  19
ENDBRANCH   3  18
TORSDOF 6
ENDMDL
MODEL 6
REMARK VINA RESULT:      -5.7      6.588      9.514
REMARK  6 active torsions:
REMARK  status: ('A' for Active; 'I' for Inactive)
REMARK    1  A    between atoms: C_6  and  C_1 
REMARK    2  A    between atoms: C_9  and  N_3 
REMARK    3  A    between atoms: C_17  and  C_9 
REMARK    4  A    between atoms: O_15  and  C_10 
REMARK    5  A    between atoms: O_16  and  C_17 
REMARK    6  A    between atoms: C_18  and  O_16 
ROOT
ATOM      1  C   UNL d   1     -39.705  15.325  19.646  0.00  0.00     0.148 A 
ATOM      2  N   UNL d   1     -38.957  15.662  19.796  0.00  0.00    -0.227 NA
ATOM      3  N   UNL d   1     -40.018  15.044  20.358  0.00  0.00    -0.287 N 
ATOM      4  C   UNL d   1     -39.469  15.201  20.958  0.00  0.00     0.083 A 
ATOM      5  C   UNL d   1     -38.819  15.581  20.612  0.00  0.00     0.099 A 
ATOM      6  C   UNL d   1     -39.467  15.053  21.778  0.00  0.00     0.019 A 
ATOM      7  C   UNL d   1     -38.172  15.811  21.082  0.00  0.00     0.021 A 
ATOM      8  C   UNL d   1     -38.825  15.281  22.243  0.00  0.00     0.002 A 
ATOM      9  C   UNL d   1     -38.176  15.661  21.894  0.00  0.00     0.002 A 
ENDROOT
BRANCH   1  10
ATOM     10  C   UNL d   1     -40.070  15.282  18.907  0.00  0.00     0.035 A 
ATOM     11  C   UNL d   1     -39.984  14.605  18.446  0.00  0.00     0.005 A 
ATOM     12  C   UNL d   1     -40.347  14.562  17.710  0.00  0.00     0.024 A 
ATOM     13  C   UNL d   1     -40.797  15.193  17.429  0.00  0.00     0.094 A 
ATOM     14  C   UNL d   1     -40.885  15.883  17.898  0.00  0.00     0.024 A 
ATOM     15  C   UNL d   1     -40.519  15.921  18.634  0.00  0.00     0.005 A 
BRANCH  13  16
ATOM     16  O   UNL d   1     -41.165  15.157  16.690  0.00  0.00    -0.328 OA
ATOM     17  C   UNL d   1     -41.667  15.768  16.458  0.00  0.00     0.181 C 
ENDBRANCH  13  16
ENDBRANCH   1  10
BRANCH   3  18
ATOM     18  C   UNL d   1     -40.758  14.695  20.290  0.00  0.00     0.108 C 
BRANCH  18  19
ATOM     19  C   UNL d   1     -41.064  14.254  20.914  0.00  0.00     0.142 C 
BRANCH  19  20
ATOM     20  O   UNL d   1     -41.846  14.004  20.896  0.00  0.00    -0.302 OA
BRANCH  20  21
ATOM     21  C   UNL d   1     -42.060  13.303  21.268  0.00  0.00     0.123 C 
ATOM     22  C   UNL d   1     -42.850  13.057  21.258  0.00  0.00     0.029 C 
ENDBRANCH  20  21
ENDBRANCH  19  20
ENDBRANCH  18  19
ENDBRANCH   3  18
TORSDOF 6
ENDMDL
MODEL 7
REMARK VINA RESULT:      -5.3      8.552     11.383
REMARK  6 active torsions:
REMARK  status: ('A' for Active; 'I' for Inactive)
REMARK    1  A    between atoms: C_6  and  C_1 
REMARK    2  A    between atoms: C_9  and  N_3 
REMARK    3  A    between atoms: C_17  and  C_9 
REMARK    4  A    between atoms: O_15  and  C_10 
REMARK    5  A    between atoms: O_16  and  C_17 
REMARK    6  A    between atoms: C_18  and  O_16 
ROOT
ATOM      1  C   UNL d   1     -39.300  15.020  17.708  0.00  0.00     0.148 A 
ATOM      2  N   UNL d   1     -39.319  15.684  17.204  0.00  0.00    -0.227 NA
ATOM      3  N   UNL d   1     -38.849  14.427  17.349  0.00  0.00    -0.287 N 
ATOM      4  C   UNL d   1     -38.583  14.714  16.619  0.00  0.00     0.083 A 
ATOM      5  C   UNL d   1     -38.872  15.486  16.531  0.00  0.00     0.099 A 
ATOM      6  C   UNL d   1     -38.115  14.382  16.015  0.00  0.00     0.019 A 
ATOM      7  C   UNL d   1     -38.694  15.922  15.845  0.00  0.00     0.021 A 
ATOM      8  C   UNL d   1     -37.940  14.814  15.336  0.00  0.00     0.002 A 
ATOM      9  C   UNL d   1     -38.230  15.586  15.251  0.00  0.00     0.002 A 
ENDROOT
BRANCH   1  10
ATOM     10  C   UNL d   1     -39.671  14.968  18.443  0.00  0.00     0.035 A 
ATOM     11  C   UNL d   1     -40.379  14.552  18.517  0.00  0.00     0.005 A 
ATOM     12  C   UNL d   1     -40.748  14.500  19.249  0.00  0.00     0.024 A 
ATOM     13  C   UNL d   1     -40.416  14.862  19.911  0.00  0.00     0.094 A 
ATOM     14  C   UNL d   1     -39.696  15.285  19.837  0.00  0.00     0.024 A 
ATOM     15  C   UNL d   1     -39.330  15.334  19.102  0.00  0.00     0.005 A 
BRANCH  13  16
ATOM     16  O   UNL d   1     -40.782  14.813  20.650  0.00  0.00    -0.328 OA
ATOM     17  C   UNL d   1     -41.064  15.502  21.007  0.00  0.00     0.181 C 
ENDBRANCH  13  16
ENDBRANCH   1  10
BRANCH   3  18
ATOM     18  C   UNL d   1     -38.784  13.736  17.789  0.00  0.00     0.108 C 
BRANCH  18  19
ATOM     19  C   UNL d   1     -38.475  13.056  17.444  0.00  0.00     0.142 C 
BRANCH  19  20
ATOM     20  O   UNL d   1     -38.148  12.468  17.915  0.00  0.00    -0.302 OA
BRANCH  20  21
ATOM     21  C   UNL d   1     -37.944  11.745  17.583  0.00  0.00     0.123 C 
ATOM     22  C   UNL d   1     -37.941  11.064  18.053  0.00  0.00     0.029 C 
ENDBRANCH  20  21
ENDBRANCH  19  20
ENDBRANCH  18  19
ENDBRANCH   3  18
TORSDOF 6
ENDMDL
MODEL 8
REMARK VINA RESULT:      -5.0      9.183     10.342
REMARK  6 active torsions:
REMARK  status: ('A' for Active; 'I' for Inactive)
REMARK    1  A    between atoms: C_6  and  C_1 
REMARK    2  A    between atoms: C_9  and  N_3 
REMARK    3  A    between atoms: C_17  and  C_9 
REMARK    4  A    between atoms: O_15  and  C_10 
REMARK    5  A    between atoms: O_16  and  C_17 
REMARK    6  A    between atoms: C_18  and  O_16 
ROOT
ATOM      1  C   UNL d   1     -39.806  14.791  19.573  0.00  0.00     0.148 A 
ATOM      2  N   UNL d   1     -40.085  14.993  20.333  0.00  0.00    -0.227 NA
ATOM      3  N   UNL d   1     -39.170  14.269  19.654  0.00  0.00    -0.287 N 
ATOM      4  C   UNL d   1     -39.046  14.140  20.462  0.00  0.00     0.083 A 
ATOM      5  C   UNL d   1     -39.608  14.585  20.878  0.00  0.00     0.099 A 
ATOM      6  C   UNL d   1     -38.496  13.678  20.885  0.00  0.00     0.019 A 
ATOM      7  C   UNL d   1     -39.621  14.567  21.710  0.00  0.00     0.021 A 
ATOM      8  C   UNL d   1     -38.510  13.661  21.709  0.00  0.00     0.002 A 
ATOM      9  C   UNL d   1     -39.073  14.107  22.122  0.00  0.00     0.002 A 
ENDROOT
BRANCH   1  10
ATOM     10  C   UNL d   1     -40.118  15.069  18.862  0.00  0.00     0.035 A 
ATOM     11  C   UNL d   1     -40.838  14.776  18.586  0.00  0.00     0.005 A 
ATOM     12  C   UNL d   1     -41.147  15.053  17.878  0.00  0.00     0.024 A 
ATOM     13  C   UNL d   1     -40.743  15.622  17.439  0.00  0.00     0.094 A 
ATOM     14  C   UNL d   1     -40.011  15.921  17.718  0.00  0.00     0.024 A 
ATOM     15  C   UNL d   1     -39.705  15.640  18.429  0.00  0.00     0.005 A 
BRANCH  13  16
ATOM     16  O   UNL d   1     -41.049  15.905  16.725  0.00  0.00    -0.328 OA
ATOM     17  C   UNL d   1     -41.544  15.419  16.278  0.00  0.00     0.181 C 
ENDBRANCH  13  16
ENDBRANCH   1  10
BRANCH   3  18
ATOM     18  C   UNL d   1     -38.840  14.024  18.943  0.00  0.00     0.108 C 
BRANCH  18  19
ATOM     19  C   UNL d   1     -38.360  13.355  18.921  0.00  0.00     0.142 C 
BRANCH  19  20
ATOM     20  O   UNL d   1     -38.035  13.106  18.209  0.00  0.00    -0.302 OA
BRANCH  20  21
ATOM     21  C   UNL d   1     -38.234  12.368  17.906  0.00  0.00     0.123 C 
ATOM     22  C   UNL d   1     -37.942  12.137  17.167  0.00  0.00     0.029 C 
ENDBRANCH  20  21
ENDBRANCH  19  20
ENDBRANCH  18  19
ENDBRANCH   3  18
TORSDOF 6
ENDMDL
MODEL 9
REMARK VINA RESULT:      -5.0      1.447      2.659
REMARK  6 active torsions:
REMARK  status: ('A' for Active; 'I' for Inactive)
REMARK    1  A    between atoms: C_6  and  C_1 
REMARK    2  A    between atoms: C_9  and  N_3 
REMARK    3  A    between atoms: C_17  and  C_9 
REMARK    4  A    between atoms: O_15  and  C_10 
REMARK    5  A    between atoms: O_16  and  C_17 
REMARK    6  A    between atoms: C_18  and  O_16 
ROOT
ATOM      1  C   UNL d   1     -48.329  13.843  22.240  0.00  0.00     0.148 A 
ATOM      2  N   UNL d   1     -48.746  14.533  22.025  0.00  0.00    -0.227 NA
ATOM      3  N   UNL d   1     -48.873  13.240  22.394  0.00  0.00    -0.287 N 
ATOM      4  C   UNL d   1     -49.634  13.546  22.276  0.00  0.00     0.083 A 
ATOM      5  C   UNL d   1     -49.554  14.339  22.050  0.00  0.00     0.099 A 
ATOM      6  C   UNL d   1     -50.395  13.215  22.343  0.00  0.00     0.019 A 
ATOM      7  C   UNL d   1     -50.231  14.797  21.892  0.00  0.00     0.021 A 
ATOM      8  C   UNL d   1     -51.064  13.669  22.187  0.00  0.00     0.002 A 
ATOM      9  C   UNL d   1     -50.982  14.462  21.961  0.00  0.00     0.002 A 
ENDROOT
BRANCH   1  10
ATOM     10  C   UNL d   1     -47.508  13.778  22.290  0.00  0.00     0.035 A 
ATOM     11  C   UNL d   1     -47.103  14.145  22.908  0.00  0.00     0.005 A 
ATOM     12  C   UNL d   1     -46.286  14.081  22.957  0.00  0.00     0.024 A 
ATOM     13  C   UNL d   1     -45.866  13.651  22.393  0.00  0.00     0.094 A 
ATOM     14  C   UNL d   1     -46.276  13.277  21.763  0.00  0.00     0.024 A 
ATOM     15  C   UNL d   1     -47.095  13.345  21.719  0.00  0.00     0.005 A 
BRANCH  13  16
ATOM     16  O   UNL d   1     -45.044  13.582  22.437  0.00  0.00    -0.328 OA
ATOM     17  C   UNL d   1     -44.622  13.343  21.769  0.00  0.00     0.181 C 
ENDBRANCH  13  16
ENDBRANCH   1  10
BRANCH   3  18
ATOM     18  C   UNL d   1     -48.535  12.525  22.613  0.00  0.00     0.108 C 
BRANCH  18  19
ATOM     19  C   UNL d   1     -49.013  11.903  22.863  0.00  0.00     0.142 C 
BRANCH  19  20
ATOM     20  O   UNL d   1     -48.685  11.163  23.003  0.00  0.00    -0.302 OA
BRANCH  20  21
ATOM     21  C   UNL d   1     -48.258  11.029  23.693  0.00  0.00     0.123 C 
ATOM     22  C   UNL d   1     -47.633  10.487  23.690  0.00  0.00     0.029 C 
ENDBRANCH  20  21
ENDBRANCH  19  20
ENDBRANCH  18  19
ENDBRANCH   3  18
TORSDOF 6
ENDMDL
