MODEL 1
REMARK VINA RESULT:      59.9      0.000      0.000
REMARK  4 active torsions:
REMARK  status: ('A' for Active; 'I' for Inactive)
REMARK    1  A    between atoms: C_5  and  C_3 
REMARK    2  A    between atoms: S_6  and  C_4 
REMARK    3  A    between atoms: C_10  and  S_6 
REMARK    4  A    between atoms: C_12  and  C_10 
ROOT
ATOM      1  N   UNL d   1      58.814  49.599  52.059  0.00  0.00    -0.148 NA
ATOM      2  N   UNL d   1      58.345  49.640  52.736  0.00  0.00    -0.141 NA
ATOM      3  C   UNL d   1      59.640  49.568  52.126  0.00  0.00     0.104 A 
ATOM      4  C   UNL d   1      58.688  49.651  53.480  0.00  0.00     0.132 A 
ATOM      5  C   UNL d   1      59.989  49.579  52.876  0.00  0.00     0.023 A 
ATOM      6  C   UNL d   1      59.518  49.620  53.550  0.00  0.00     0.029 A 
ENDROOT
BRANCH   4   7
ATOM      7  S   UNL d   1      58.219  49.692  54.157  0.00  0.00    -0.066 SA
BRANCH   7   8
ATOM      8  C   UNL d   1      57.416  49.524  54.118  0.00  0.00     0.037 C 
BRANCH   8   9
ATOM      9  C   UNL d   1      57.032  49.207  54.778  0.00  0.00     0.006 A 
ATOM     10  C   UNL d   1      56.454  48.630  54.677  0.00  0.00     0.001 A 
ATOM     11  C   UNL d   1      56.071  48.311  55.325  0.00  0.00     0.000 A 
ATOM     12  C   UNL d   1      56.271  48.577  56.088  0.00  0.00     0.000 A 
ATOM     13  C   UNL d   1      56.846  49.151  56.180  0.00  0.00     0.000 A 
ATOM     14  C   UNL d   1      57.227  49.465  55.518  0.00  0.00     0.001 A 
ENDBRANCH   8   9
ENDBRANCH   7   8
ENDBRANCH   4   7
BRANCH   3  15
ATOM     15  C   UNL d   1      60.109  49.527  51.449  0.00  0.00     0.039 A 
ATOM     16  C   UNL d   1      59.758  49.442  50.720  0.00  0.00     0.101 A 
ATOM     17  N   UNL d   1      60.219  49.401  50.045  0.00  0.00    -0.242 NA
ATOM     18  C   UNL d   1      61.048  49.446  50.107  0.00  0.00     0.099 A 
ATOM     19  C   UNL d   1      61.397  49.532  50.842  0.00  0.00     0.021 A 
ATOM     20  C   UNL d   1      60.935  49.574  51.526  0.00  0.00     0.005 A 
ENDBRANCH   3  15
TORSDOF 4
ENDMDL
