MODEL 1
REMARK VINA RESULT:      12.7      0.000      0.000
REMARK  3 active torsions:
REMARK  status: ('A' for Active; 'I' for Inactive)
REMARK    1  A    between atoms: C_7  and  C_1 
REMARK    2  A    between atoms: N_9  and  C_7 
REMARK    3  A    between atoms: C_8  and  N_9 
ROOT
ATOM      1  C   UNL d   1     -54.738-101.643 -36.745  0.00  0.00     0.146 A 
ATOM      2  C   UNL d   1     -54.765-101.372 -35.962  0.00  0.00     0.304 A 
ATOM      3  C   UNL d   1     -54.739-101.065 -37.370  0.00  0.00     0.304 A 
ATOM      4  O   UNL d   1     -54.764-100.280 -37.199  0.00  0.00    -0.277 OA
ATOM      5  O   UNL d   1     -54.790-100.559 -35.811  0.00  0.00    -0.277 OA
ATOM      6  C   UNL d   1     -54.790-100.014 -36.390  0.00  0.00     0.203 A 
ATOM      7  O   UNL d   1     -54.712-101.333 -38.167  0.00  0.00    -0.259 OA
ATOM      8  O   UNL d   1     -54.765-101.955 -35.316  0.00  0.00    -0.259 OA
ATOM      9  C   UNL d   1     -54.820 -99.415 -35.853  0.00  0.00     0.062 C 
ATOM     10  C   UNL d   1     -54.805 -99.240 -36.655  0.00  0.00     0.062 C 
ENDROOT
BRANCH   1  11
ATOM     11  C   UNL d   1     -54.713-102.449 -36.920  0.00  0.00     0.129 C 
BRANCH  11  12
ATOM     12  N   UNL d   1     -55.361-102.805 -37.254  0.00  0.00    -0.057 NA
BRANCH  12  13
ATOM     13  C   UNL d   1     -55.445-102.807 -38.084  0.00  0.00     0.750 A 
ATOM     14  N   UNL d   1     -54.766-102.876 -38.580  0.00  0.00    -0.058 NA
ATOM     15  C   UNL d   1     -54.880-102.875 -39.405  0.00  0.00     0.120 A 
ATOM     16  C   UNL d   1     -55.613-102.812 -39.739  0.00  0.00     0.043 A 
ATOM     17  C   UNL d   1     -56.270-102.746 -39.245  0.00  0.00     0.120 A 
ATOM     18  N   UNL d   1     -56.188-102.744 -38.436  0.00  0.00    -0.058 NA
ENDBRANCH  12  13
ENDBRANCH  11  12
ENDBRANCH   1  11
TORSDOF 3
ENDMDL
