MODEL 1
REMARK VINA RESULT:      19.4      0.000      0.000
REMARK  2 active torsions:
REMARK  status: ('A' for Active; 'I' for Inactive)
REMARK    1  A    between atoms: C_5  and  N_1 
REMARK    2  A    between atoms: C_7  and  C_5 
ROOT
ATOM      1  N   UNL d   1      59.153  49.696  50.834  0.00  0.00    -0.251 N 
ATOM      2  C   UNL d   1      59.378  49.703  50.045  0.00  0.00     0.378 A 
ATOM      3  O   UNL d   1      60.203  49.706  50.012  0.00  0.00    -0.258 OA
ATOM      4  C   UNL d   1      59.843  49.695  51.296  0.00  0.00     0.092 A 
ATOM      5  C   UNL d   1      60.490  49.701  50.787  0.00  0.00     0.121 A 
ATOM      6  O   UNL d   1      58.872  49.706  49.393  0.00  0.00    -0.237 OA
ATOM      7  C   UNL d   1      59.951  49.689  52.112  0.00  0.00     0.020 A 
ATOM      8  C   UNL d   1      61.256  49.701  51.100  0.00  0.00     0.026 A 
ATOM      9  C   UNL d   1      60.716  49.689  52.422  0.00  0.00     0.002 A 
ATOM     10  C   UNL d   1      61.367  49.696  51.918  0.00  0.00     0.002 A 
ENDROOT
BRANCH   1  11
ATOM     11  C   UNL d   1      58.379  49.691  51.122  0.00  0.00     0.086 C 
BRANCH  11  12
ATOM     12  C   UNL d   1      57.750  49.694  50.599  0.00  0.00     0.028 A 
ATOM     13  C   UNL d   1      56.973  49.700  50.882  0.00  0.00     0.059 A 
ATOM     14 CL   UNL d   1      56.868  49.704  51.707  0.00  0.00    -0.082 Cl
ATOM     15  C   UNL d   1      56.346  49.703  50.357  0.00  0.00     0.011 A 
ATOM     16  C   UNL d   1      56.485  49.699  49.537  0.00  0.00     0.001 A 
ATOM     17  C   UNL d   1      57.261  49.692  49.252  0.00  0.00     0.000 A 
ATOM     18  C   UNL d   1      57.890  49.690  49.783  0.00  0.00     0.002 A 
ENDBRANCH  11  12
ENDBRANCH   1  11
TORSDOF 2
ENDMDL
MODEL 2
REMARK VINA RESULT:      20.7      1.379      3.726
REMARK  2 active torsions:
REMARK  status: ('A' for Active; 'I' for Inactive)
REMARK    1  A    between atoms: C_5  and  N_1 
REMARK    2  A    between atoms: C_7  and  C_5 
ROOT
ATOM      1  N   UNL d   1      58.248  49.674  50.528  0.00  0.00    -0.251 N 
ATOM      2  C   UNL d   1      58.025  49.670  51.318  0.00  0.00     0.378 A 
ATOM      3  O   UNL d   1      57.201  49.633  51.353  0.00  0.00    -0.258 OA
ATOM      4  C   UNL d   1      57.558  49.640  50.068  0.00  0.00     0.092 A 
ATOM      5  C   UNL d   1      56.913  49.614  50.578  0.00  0.00     0.121 A 
ATOM      6  O   UNL d   1      58.531  49.697  51.969  0.00  0.00    -0.237 OA
ATOM      7  C   UNL d   1      57.449  49.630  49.252  0.00  0.00     0.020 A 
ATOM      8  C   UNL d   1      56.147  49.578  50.267  0.00  0.00     0.026 A 
ATOM      9  C   UNL d   1      56.683  49.593  48.944  0.00  0.00     0.002 A 
ATOM     10  C   UNL d   1      56.035  49.567  49.450  0.00  0.00     0.002 A 
ENDROOT
BRANCH   1  11
ATOM     11  C   UNL d   1      59.021  49.707  50.238  0.00  0.00     0.086 C 
BRANCH  11  12
ATOM     12  C   UNL d   1      59.652  49.620  50.752  0.00  0.00     0.028 A 
ATOM     13  C   UNL d   1      60.411  49.470  50.458  0.00  0.00     0.059 A 
ATOM     14 CL   UNL d   1      60.494  49.413  49.632  0.00  0.00    -0.082 Cl
ATOM     15  C   UNL d   1      61.039  49.383  50.973  0.00  0.00     0.011 A 
ATOM     16  C   UNL d   1      60.922  49.446  51.794  0.00  0.00     0.001 A 
ATOM     17  C   UNL d   1      60.165  49.596  52.090  0.00  0.00     0.000 A 
ATOM     18  C   UNL d   1      59.533  49.683  51.569  0.00  0.00     0.002 A 
ENDBRANCH  11  12
ENDBRANCH   1  11
TORSDOF 2
ENDMDL
