MODEL 1
REMARK VINA RESULT:      37.8      0.000      0.000
REMARK  3 active torsions:
REMARK  status: ('A' for Active; 'I' for Inactive)
REMARK    1  A    between atoms: N_2  and  C_1 
REMARK    2  A    between atoms: C_6  and  C_5 
REMARK       I    between atoms: N_13  and  C_6 
REMARK    3  A    between atoms: C_17  and  N_13 
ROOT
ATOM      1  C   UNL d   1      14.409  14.223  -1.738  0.00  0.00     0.285 C 
ATOM      2  N   UNL d   1      14.360  13.376  -1.607  0.00  0.00    -0.208 NA
ATOM      3  O   UNL d   1      14.106  14.587  -2.384  0.00  0.00    -0.265 OA
ENDROOT
BRANCH   2   4
ATOM      4  C   UNL d   1      13.956  12.924  -2.225  0.00  0.00     0.086 A 
ATOM      5  C   UNL d   1      13.938  13.215  -3.004  0.00  0.00     0.039 A 
ATOM      6  C   UNL d   1      13.554  12.784  -3.593  0.00  0.00     0.089 A 
ATOM      7  N   UNL d   1      13.443  12.919  -4.389  0.00  0.00    -0.238 NA
ATOM      8  C   UNL d   1      13.186  12.062  -3.403  0.00  0.00     0.049 A 
ATOM      9  C   UNL d   1      13.019  12.304  -4.698  0.00  0.00     0.111 A 
ATOM     10  C   UNL d   1      12.784  12.220  -5.486  0.00  0.00     0.028 C 
ATOM     11  S   UNL d   1      12.861  11.785  -4.111  0.00  0.00    -0.066 SA
ATOM     12  C   UNL d   1      13.207  11.780  -2.632  0.00  0.00     0.010 A 
ATOM     13  C   UNL d   1      13.592  12.211  -2.043  0.00  0.00     0.020 A 
ENDBRANCH   2   4
BRANCH   1  14
ATOM     14  C   UNL d   1      14.775  14.720  -1.201  0.00  0.00     0.089 A 
ATOM     15  S   UNL d   1      14.926  15.503  -1.342  0.00  0.00    -0.059 SA
ATOM     16  C   UNL d   1      15.304  15.787  -0.641  0.00  0.00     0.156 A 
ATOM     17  C   UNL d   1      15.373  15.204  -0.116  0.00  0.00     0.031 A 
ATOM     18  C   UNL d   1      15.046  14.519  -0.445  0.00  0.00     0.014 A 
BRANCH  16  19
ATOM     19  N   UNL d   1      15.570  16.541  -0.499  0.00  0.00    -0.107 N 
ATOM     20  O   UNL d   1      15.105  17.208  -0.317  0.00  0.00    -0.531 OA
ATOM     21  O   UNL d   1      16.362  16.759  -0.514  0.00  0.00    -0.531 OA
ENDBRANCH  16  19
ENDBRANCH   1  14
TORSDOF 3
ENDMDL
