MODEL 1
REMARK VINA RESULT:      51.5      0.000      0.000
REMARK  7 active torsions:
REMARK  status: ('A' for Active; 'I' for Inactive)
REMARK    1  A    between atoms: N_3  and  C_2 
REMARK       I    between atoms: C_6  and  N_3 
REMARK    2  A    between atoms: C_11  and  C_4 
REMARK    3  A    between atoms: C_5  and  C_6 
REMARK    4  A    between atoms: C_15  and  C_11 
REMARK    5  A    between atoms: C_18  and  C_12 
REMARK    6  A    between atoms: O_17  and  C_18 
REMARK    7  A    between atoms: C_19  and  O_17 
ROOT
ATOM      1  C   UNL d   1     -50.175  26.307  33.944  0.00  0.00     0.158 A 
ATOM      2  O   UNL d   1     -49.690  26.538  34.567  0.00  0.00    -0.300 OA
ATOM      3  C   UNL d   1     -50.056  26.833  33.321  0.00  0.00     0.032 A 
ATOM      4  C   UNL d   1     -49.269  27.205  34.335  0.00  0.00     0.125 A 
ATOM      5  C   UNL d   1     -49.492  27.392  33.563  0.00  0.00     0.029 A 
ENDROOT
BRANCH   1   6
ATOM      6  C   UNL d   1     -50.694  25.660  33.941  0.00  0.00     0.304 C 
ATOM      7  N   UNL d   1     -50.672  25.119  33.318  0.00  0.00    -0.180 NA
ATOM      8  O   UNL d   1     -51.226  25.564  34.561  0.00  0.00    -0.263 OA
BRANCH   7   9
ATOM      9  C   UNL d   1     -51.188  24.475  33.313  0.00  0.00     0.216 A 
ATOM     10  N   UNL d   1     -52.023  24.517  33.313  0.00  0.00    -0.200 NA
ATOM     11  C   UNL d   1     -52.307  23.753  33.308  0.00  0.00     0.175 A 
ATOM     12  N   UNL d   1     -51.665  23.236  33.306  0.00  0.00    -0.187 NA
ATOM     13  S   UNL d   1     -50.970  23.689  33.309  0.00  0.00     0.054 SA
BRANCH  11  14
ATOM     14  C   UNL d   1     -53.096  23.529  33.306  0.00  0.00     0.082 C 
BRANCH  14  15
ATOM     15  C   UNL d   1     -53.681  24.078  33.520  0.00  0.00     0.199 C 
ATOM     16  O   UNL d   1     -53.577  24.880  33.351  0.00  0.00    -0.286 OA
ATOM     17  C   UNL d   1     -54.368  23.825  33.902  0.00  0.00     0.045 C 
ENDBRANCH  14  15
ENDBRANCH  11  14
ENDBRANCH   7   9
ENDBRANCH   1   6
BRANCH   4  18
ATOM     18  C   UNL d   1     -48.721  27.615  34.792  0.00  0.00     0.147 C 
BRANCH  18  19
ATOM     19  O   UNL d   1     -48.973  28.244  35.266  0.00  0.00    -0.303 OA
BRANCH  19  20
ATOM     20  C   UNL d   1     -48.497  28.910  35.352  0.00  0.00     0.100 A 
ATOM     21  C   UNL d   1     -48.534  29.524  34.793  0.00  0.00     0.025 A 
ATOM     22  C   UNL d   1     -48.057  30.189  34.879  0.00  0.00     0.002 A 
ATOM     23  C   UNL d   1     -47.545  30.242  35.524  0.00  0.00     0.000 A 
ATOM     24  C   UNL d   1     -47.507  29.632  36.081  0.00  0.00     0.002 A 
ATOM     25  C   UNL d   1     -47.983  28.966  35.995  0.00  0.00     0.025 A 
ENDBRANCH  19  20
ENDBRANCH  18  19
ENDBRANCH   4  18
TORSDOF 7
ENDMDL
MODEL 2
REMARK VINA RESULT:      51.7      1.859      3.191
REMARK  7 active torsions:
REMARK  status: ('A' for Active; 'I' for Inactive)
REMARK    1  A    between atoms: N_3  and  C_2 
REMARK       I    between atoms: C_6  and  N_3 
REMARK    2  A    between atoms: C_11  and  C_4 
REMARK    3  A    between atoms: C_5  and  C_6 
REMARK    4  A    between atoms: C_15  and  C_11 
REMARK    5  A    between atoms: C_18  and  C_12 
REMARK    6  A    between atoms: O_17  and  C_18 
REMARK    7  A    between atoms: C_19  and  O_17 
ROOT
ATOM      1  C   UNL d   1     -48.377  28.563  35.132  0.00  0.00     0.158 A 
ATOM      2  O   UNL d   1     -48.398  29.348  34.886  0.00  0.00    -0.300 OA
ATOM      3  C   UNL d   1     -47.763  28.484  35.675  0.00  0.00     0.032 A 
ATOM      4  C   UNL d   1     -47.799  29.757  35.273  0.00  0.00     0.125 A 
ATOM      5  C   UNL d   1     -47.402  29.227  35.764  0.00  0.00     0.029 A 
ENDROOT
BRANCH   1   6
ATOM      6  C   UNL d   1     -48.884  27.957  34.880  0.00  0.00     0.304 C 
ATOM      7  N   UNL d   1     -49.054  27.871  34.077  0.00  0.00    -0.180 NA
ATOM      8  O   UNL d   1     -49.212  27.446  35.435  0.00  0.00    -0.263 OA
BRANCH   7   9
ATOM      9  C   UNL d   1     -49.558  27.268  33.825  0.00  0.00     0.216 A 
ATOM     10  N   UNL d   1     -50.391  27.267  33.895  0.00  0.00    -0.200 NA
ATOM     11  C   UNL d   1     -50.662  26.568  33.576  0.00  0.00     0.175 A 
ATOM     12  N   UNL d   1     -50.014  26.133  33.309  0.00  0.00    -0.187 NA
ATOM     13  S   UNL d   1     -49.329  26.573  33.466  0.00  0.00     0.054 SA
BRANCH  11  14
ATOM     14  C   UNL d   1     -51.446  26.329  33.526  0.00  0.00     0.082 C 
BRANCH  14  15
ATOM     15  C   UNL d   1     -51.626  25.532  33.382  0.00  0.00     0.199 C 
ATOM     16  O   UNL d   1     -51.018  24.978  33.307  0.00  0.00    -0.286 OA
ATOM     17  C   UNL d   1     -52.413  25.289  33.314  0.00  0.00     0.045 C 
ENDBRANCH  14  15
ENDBRANCH  11  14
ENDBRANCH   7   9
ENDBRANCH   1   6
BRANCH   4  18
ATOM     18  C   UNL d   1     -47.626  30.557  35.186  0.00  0.00     0.147 C 
BRANCH  18  19
ATOM     19  O   UNL d   1     -48.213  31.076  34.921  0.00  0.00    -0.303 OA
BRANCH  19  20
ATOM     20  C   UNL d   1     -48.005  31.749  34.496  0.00  0.00     0.100 A 
ATOM     21  C   UNL d   1     -47.264  32.104  34.616  0.00  0.00     0.025 A 
ATOM     22  C   UNL d   1     -47.056  32.778  34.191  0.00  0.00     0.002 A 
ATOM     23  C   UNL d   1     -47.588  33.098  33.648  0.00  0.00     0.000 A 
ATOM     24  C   UNL d   1     -48.327  32.745  33.528  0.00  0.00     0.002 A 
ATOM     25  C   UNL d   1     -48.535  32.072  33.952  0.00  0.00     0.025 A 
ENDBRANCH  19  20
ENDBRANCH  18  19
ENDBRANCH   4  18
TORSDOF 7
ENDMDL
MODEL 3
REMARK VINA RESULT:      54.1      2.998      6.558
REMARK  7 active torsions:
REMARK  status: ('A' for Active; 'I' for Inactive)
REMARK    1  A    between atoms: N_3  and  C_2 
REMARK       I    between atoms: C_6  and  N_3 
REMARK    2  A    between atoms: C_11  and  C_4 
REMARK    3  A    between atoms: C_5  and  C_6 
REMARK    4  A    between atoms: C_15  and  C_11 
REMARK    5  A    between atoms: C_18  and  C_12 
REMARK    6  A    between atoms: O_17  and  C_18 
REMARK    7  A    between atoms: C_19  and  O_17 
ROOT
ATOM      1  C   UNL d   1     -48.819  28.070  34.644  0.00  0.00     0.158 A 
ATOM      2  O   UNL d   1     -48.971  27.704  33.923  0.00  0.00    -0.300 OA
ATOM      3  C   UNL d   1     -49.309  27.728  35.211  0.00  0.00     0.032 A 
ATOM      4  C   UNL d   1     -49.554  27.135  34.039  0.00  0.00     0.125 A 
ATOM      5  C   UNL d   1     -49.767  27.145  34.836  0.00  0.00     0.029 A 
ENDROOT
BRANCH   1   6
ATOM      6  C   UNL d   1     -48.270  28.677  34.779  0.00  0.00     0.304 C 
ATOM      7  N   UNL d   1     -48.462  29.298  35.288  0.00  0.00    -0.180 NA
ATOM      8  O   UNL d   1     -47.538  28.652  34.405  0.00  0.00    -0.263 OA
BRANCH   7   9
ATOM      9  C   UNL d   1     -47.916  29.903  35.423  0.00  0.00     0.216 A 
ATOM     10  N   UNL d   1     -47.943  30.669  35.089  0.00  0.00    -0.200 NA
ATOM     11  C   UNL d   1     -47.300  31.082  35.372  0.00  0.00     0.175 A 
ATOM     12  N   UNL d   1     -46.872  30.588  35.875  0.00  0.00    -0.187 NA
ATOM     13  S   UNL d   1     -47.260  29.854  35.904  0.00  0.00     0.054 SA
BRANCH  11  14
ATOM     14  C   UNL d   1     -47.104  31.858  35.191  0.00  0.00     0.082 C 
BRANCH  14  15
ATOM     15  C   UNL d   1     -47.436  32.222  34.523  0.00  0.00     0.199 C 
ATOM     16  O   UNL d   1     -47.078  32.134  33.783  0.00  0.00    -0.286 OA
ATOM     17  C   UNL d   1     -48.124  32.673  34.595  0.00  0.00     0.045 C 
ENDBRANCH  14  15
ENDBRANCH  11  14
ENDBRANCH   7   9
ENDBRANCH   1   6
BRANCH   4  18
ATOM     18  C   UNL d   1     -49.869  26.641  33.461  0.00  0.00     0.147 C 
BRANCH  18  19
ATOM     19  O   UNL d   1     -49.765  25.823  33.522  0.00  0.00    -0.303 OA
BRANCH  19  20
ATOM     20  C   UNL d   1     -50.413  25.320  33.450  0.00  0.00     0.100 A 
ATOM     21  C   UNL d   1     -51.178  25.635  33.378  0.00  0.00     0.025 A 
ATOM     22  C   UNL d   1     -51.826  25.132  33.306  0.00  0.00     0.002 A 
ATOM     23  C   UNL d   1     -51.709  24.315  33.307  0.00  0.00     0.000 A 
ATOM     24  C   UNL d   1     -50.948  24.001  33.379  0.00  0.00     0.002 A 
ATOM     25  C   UNL d   1     -50.300  24.503  33.450  0.00  0.00     0.025 A 
ENDBRANCH  19  20
ENDBRANCH  18  19
ENDBRANCH   4  18
TORSDOF 7
ENDMDL
