MODEL 1
REMARK VINA RESULT:      -2.7      0.000      0.000
REMARK  8 active torsions:
REMARK  status: ('A' for Active; 'I' for Inactive)
REMARK    1  A    between atoms: C_16  and  N_1 
REMARK    2  A    between atoms: S_7  and  C_2 
REMARK       I    between atoms: C_6  and  N_12 
REMARK    3  A    between atoms: C_9  and  C_6 
REMARK    4  A    between atoms: C_13  and  S_7 
REMARK    5  A    between atoms: C_8  and  C_13 
REMARK    6  A    between atoms: N_12  and  C_22 
REMARK    7  A    between atoms: C_22  and  C_16 
REMARK    8  A    between atoms: O_24  and  C_18 
ROOT
ATOM      1  N   UNL d   1      33.165  19.780 -22.650  0.00  0.00    -0.302 N 
ATOM      2  C   UNL d   1      33.046  18.517 -23.077  0.00  0.00     0.049 A 
ATOM      3  C   UNL d   1      33.086  18.991 -22.401  0.00  0.00     0.087 A 
ATOM      4  C   UNL d   1      33.100  19.007 -23.748  0.00  0.00     0.024 A 
ATOM      5  C   UNL d   1      33.175  19.792 -23.479  0.00  0.00     0.065 A 
ATOM      6  C   UNL d   1      33.093  18.856 -24.556  0.00  0.00     0.002 A 
ATOM      7  C   UNL d   1      33.241  20.415 -24.026  0.00  0.00     0.018 A 
ATOM      8  C   UNL d   1      33.158  19.468 -25.097  0.00  0.00     0.000 A 
ATOM      9  C   UNL d   1      33.233  20.253 -24.828  0.00  0.00     0.002 A 
ENDROOT
BRANCH   1  10
ATOM     10  C   UNL d   1      33.225  20.438 -22.156  0.00  0.00     0.101 C 
BRANCH  10  11
ATOM     11  C   UNL d   1      32.803  20.463 -21.447  0.00  0.00     0.121 C 
BRANCH  11  12
ATOM     12  N   UNL d   1      32.999  21.016 -20.866  0.00  0.00    -0.205 NA
ATOM     13  C   UNL d   1      32.414  21.485 -20.530  0.00  0.00     0.279 C 
ATOM     14  O   UNL d   1      31.628  21.406 -20.770  0.00  0.00    -0.265 OA
BRANCH  13  15
ATOM     15  C   UNL d   1      32.610  22.037 -19.949  0.00  0.00     0.058 A 
ATOM     16  C   UNL d   1      32.471  22.851 -20.084  0.00  0.00     0.007 A 
ATOM     17  C   UNL d   1      32.667  23.404 -19.503  0.00  0.00     0.024 A 
ATOM     18  C   UNL d   1      33.000  23.140 -18.791  0.00  0.00     0.094 A 
ATOM     19  C   UNL d   1      33.135  22.337 -18.660  0.00  0.00     0.024 A 
ATOM     20  C   UNL d   1      32.940  21.794 -19.237  0.00  0.00     0.007 A 
BRANCH  18  21
ATOM     21  O   UNL d   1      33.203  23.692 -18.194  0.00  0.00    -0.328 OA
ATOM     22  C   UNL d   1      32.814  23.702 -17.462  0.00  0.00     0.181 C 
ENDBRANCH  18  21
ENDBRANCH  13  15
ENDBRANCH  11  12
ENDBRANCH  10  11
ENDBRANCH   1  10
BRANCH   2  23
ATOM     23  S   UNL d   1      32.966  17.696 -23.093  0.00  0.00    -0.080 SA
BRANCH  23  24
ATOM     24  C   UNL d   1      32.236  17.348 -22.912  0.00  0.00     0.100 C 
BRANCH  24  25
ATOM     25  C   UNL d   1      32.044  16.604 -23.204  0.00  0.00     0.303 C 
ATOM     26  O   UNL d   1      32.644  16.071 -23.393  0.00  0.00    -0.263 OA
ATOM     27  N   UNL d   1      31.254  16.390 -23.309  0.00  0.00    -0.102 N 
ENDBRANCH  24  25
ENDBRANCH  23  24
ENDBRANCH   2  23
TORSDOF 8
ENDMDL
MODEL 2
REMARK VINA RESULT:      -0.9      1.850      5.752
REMARK  8 active torsions:
REMARK  status: ('A' for Active; 'I' for Inactive)
REMARK    1  A    between atoms: C_16  and  N_1 
REMARK    2  A    between atoms: S_7  and  C_2 
REMARK       I    between atoms: C_6  and  N_12 
REMARK    3  A    between atoms: C_9  and  C_6 
REMARK    4  A    between atoms: C_13  and  S_7 
REMARK    5  A    between atoms: C_8  and  C_13 
REMARK    6  A    between atoms: N_12  and  C_22 
REMARK    7  A    between atoms: C_22  and  C_16 
REMARK    8  A    between atoms: O_24  and  C_18 
ROOT
ATOM      1  N   UNL d   1      33.224  20.587 -23.191  0.00  0.00    -0.302 N 
ATOM      2  C   UNL d   1      33.191  21.647 -22.373  0.00  0.00     0.049 A 
ATOM      3  C   UNL d   1      33.203  20.821 -22.392  0.00  0.00     0.087 A 
ATOM      4  C   UNL d   1      33.204  21.931 -23.156  0.00  0.00     0.024 A 
ATOM      5  C   UNL d   1      33.225  21.269 -23.662  0.00  0.00     0.065 A 
ATOM      6  C   UNL d   1      33.201  22.686 -23.480  0.00  0.00     0.002 A 
ATOM      7  C   UNL d   1      33.241  21.376 -24.486  0.00  0.00     0.018 A 
ATOM      8  C   UNL d   1      33.217  22.794 -24.292  0.00  0.00     0.000 A 
ATOM      9  C   UNL d   1      33.237  22.132 -24.797  0.00  0.00     0.002 A 
ENDROOT
BRANCH   1  10
ATOM     10  C   UNL d   1      33.241  19.809 -23.464  0.00  0.00     0.101 C 
BRANCH  10  11
ATOM     11  C   UNL d   1      32.624  19.519 -23.929  0.00  0.00     0.121 C 
BRANCH  11  12
ATOM     12  N   UNL d   1      32.254  18.808 -23.733  0.00  0.00    -0.205 NA
ATOM     13  C   UNL d   1      31.865  18.373 -24.312  0.00  0.00     0.279 C 
ATOM     14  O   UNL d   1      31.843  18.643 -25.091  0.00  0.00    -0.265 OA
BRANCH  13  15
ATOM     15  C   UNL d   1      31.496  17.662 -24.116  0.00  0.00     0.058 A 
ATOM     16  C   UNL d   1      31.935  17.050 -23.750  0.00  0.00     0.007 A 
ATOM     17  C   UNL d   1      31.566  16.339 -23.554  0.00  0.00     0.024 A 
ATOM     18  C   UNL d   1      30.760  16.243 -23.724  0.00  0.00     0.094 A 
ATOM     19  C   UNL d   1      30.329  16.847 -24.084  0.00  0.00     0.024 A 
ATOM     20  C   UNL d   1      30.698  17.549 -24.276  0.00  0.00     0.007 A 
BRANCH  18  21
ATOM     21  O   UNL d   1      30.374  15.524 -23.529  0.00  0.00    -0.328 OA
ATOM     22  C   UNL d   1      29.645  15.517 -23.134  0.00  0.00     0.181 C 
ENDBRANCH  18  21
ENDBRANCH  13  15
ENDBRANCH  11  12
ENDBRANCH  10  11
ENDBRANCH   1  10
BRANCH   2  23
ATOM     23  S   UNL d   1      33.170  22.119 -21.697  0.00  0.00    -0.080 SA
BRANCH  23  24
ATOM     24  C   UNL d   1      32.506  22.103 -21.201  0.00  0.00     0.100 C 
BRANCH  24  25
ATOM     25  C   UNL d   1      32.405  22.674 -20.619  0.00  0.00     0.303 C 
ATOM     26  O   UNL d   1      31.671  23.036 -20.525  0.00  0.00    -0.263 OA
ATOM     27  N   UNL d   1      33.035  22.885 -20.131  0.00  0.00    -0.102 N 
ENDBRANCH  24  25
ENDBRANCH  23  24
ENDBRANCH   2  23
TORSDOF 8
ENDMDL
