MODEL 1
REMARK VINA RESULT:      20.3      0.000      0.000
REMARK  4 active torsions:
REMARK  status: ('A' for Active; 'I' for Inactive)
REMARK       I    between atoms: C_2  and  N_1 
REMARK    1  A    between atoms: C_3  and  N_1 
REMARK    2  A    between atoms: C_5  and  C_2 
REMARK    3  A    between atoms: C_4  and  C_3 
REMARK    4  A    between atoms: N_6  and  C_3 
ROOT
ATOM      1  C   UNL d   1      46.591 -18.409  43.630  0.00  0.00     0.170 C 
ENDROOT
BRANCH   1   2
ATOM      2  N   UNL d   1      46.605 -17.602  43.837  0.00  0.00    -0.191 NA
ATOM      3  C   UNL d   1      45.876 -17.231  44.116  0.00  0.00     0.281 C 
ATOM      4  O   UNL d   1      45.174 -17.656  44.181  0.00  0.00    -0.265 OA
BRANCH   3   5
ATOM      5  C   UNL d   1      45.869 -16.429  44.327  0.00  0.00     0.069 A 
ATOM      6  C   UNL d   1      45.171 -16.107  44.613  0.00  0.00     0.062 A 
ATOM      7 CL   UNL d   1      44.507 -16.433  44.721  0.00  0.00    -0.082 Cl
ATOM      8  C   UNL d   1      45.135 -15.280  44.839  0.00  0.00     0.012 A 
ATOM      9  C   UNL d   1      45.803 -14.813  44.767  0.00  0.00     0.001 A 
ATOM     10  C   UNL d   1      46.516 -15.147  44.473  0.00  0.00     0.000 A 
ATOM     11  C   UNL d   1      46.543 -15.959  44.254  0.00  0.00     0.006 A 
ENDBRANCH   3   5
ENDBRANCH   1   2
BRANCH   1  12
ATOM     12  C   UNL d   1      46.613 -18.979  44.240  0.00  0.00     0.249 C 
ATOM     13 CL   UNL d   1      46.635 -19.500  44.847  0.00  0.00    -0.075 Cl
ATOM     14 CL   UNL d   1      46.597 -19.854  44.044  0.00  0.00    -0.075 Cl
ATOM     15 CL   UNL d   1      46.647 -18.689  44.955  0.00  0.00    -0.075 Cl
ENDBRANCH   1  12
BRANCH   1  16
ATOM     16  N   UNL d   1      46.558 -18.642  42.848  0.00  0.00    -0.286 N 
ATOM     17  C   UNL d   1      46.437 -19.413  42.664  0.00  0.00     0.108 A 
ATOM     18  C   UNL d   1      46.403 -19.650  41.875  0.00  0.00     0.142 A 
ATOM     19  O   UNL d   1      46.487 -19.135  41.270  0.00  0.00    -0.300 OA
ATOM     20  C   UNL d   1      46.613 -18.328  41.456  0.00  0.00     0.142 A 
ATOM     21  C   UNL d   1      46.647 -18.092  42.245  0.00  0.00     0.108 A 
ENDBRANCH   1  16
TORSDOF 4
ENDMDL
MODEL 2
REMARK VINA RESULT:      20.8      1.405      1.872
REMARK  4 active torsions:
REMARK  status: ('A' for Active; 'I' for Inactive)
REMARK       I    between atoms: C_2  and  N_1 
REMARK    1  A    between atoms: C_3  and  N_1 
REMARK    2  A    between atoms: C_5  and  C_2 
REMARK    3  A    between atoms: C_4  and  C_3 
REMARK    4  A    between atoms: N_6  and  C_3 
ROOT
ATOM      1  C   UNL d   1      46.307 -18.210  43.288  0.00  0.00     0.170 C 
ENDROOT
BRANCH   1   2
ATOM      2  N   UNL d   1      46.408 -17.463  43.643  0.00  0.00    -0.191 NA
ATOM      3  C   UNL d   1      45.707 -17.000  43.848  0.00  0.00     0.281 C 
ATOM      4  O   UNL d   1      44.948 -17.281  43.701  0.00  0.00    -0.265 OA
BRANCH   3   5
ATOM      5  C   UNL d   1      45.788 -16.254  44.202  0.00  0.00     0.069 A 
ATOM      6  C   UNL d   1      45.136 -15.930  44.579  0.00  0.00     0.062 A 
ATOM      7 CL   UNL d   1      44.447 -16.208  44.661  0.00  0.00    -0.082 Cl
ATOM      8  C   UNL d   1      45.190 -15.160  44.954  0.00  0.00     0.012 A 
ATOM      9  C   UNL d   1      45.898 -14.750  44.932  0.00  0.00     0.001 A 
ATOM     10  C   UNL d   1      46.564 -15.086  44.544  0.00  0.00     0.000 A 
ATOM     11  C   UNL d   1      46.502 -15.842  44.179  0.00  0.00     0.006 A 
ENDBRANCH   3   5
ENDBRANCH   1   2
BRANCH   1  12
ATOM     12  C   UNL d   1      46.101 -18.244  42.479  0.00  0.00     0.249 C 
ATOM     13 CL   UNL d   1      45.933 -18.292  41.698  0.00  0.00    -0.075 Cl
ATOM     14 CL   UNL d   1      45.309 -17.932  42.199  0.00  0.00    -0.075 Cl
ATOM     15 CL   UNL d   1      46.637 -18.558  42.021  0.00  0.00    -0.075 Cl
ENDBRANCH   1  12
BRANCH   1  16
ATOM     16  N   UNL d   1      46.406 -18.897  43.718  0.00  0.00    -0.286 N 
ATOM     17  C   UNL d   1      46.385 -18.876  44.519  0.00  0.00     0.108 A 
ATOM     18  C   UNL d   1      46.485 -19.570  44.953  0.00  0.00     0.142 A 
ATOM     19  O   UNL d   1      46.605 -20.279  44.606  0.00  0.00    -0.300 OA
ATOM     20  C   UNL d   1      46.627 -20.307  43.769  0.00  0.00     0.142 A 
ATOM     21  C   UNL d   1      46.527 -19.613  43.335  0.00  0.00     0.108 A 
ENDBRANCH   1  16
TORSDOF 4
ENDMDL
MODEL 3
REMARK VINA RESULT:      23.2      1.850      4.135
REMARK  4 active torsions:
REMARK  status: ('A' for Active; 'I' for Inactive)
REMARK       I    between atoms: C_2  and  N_1 
REMARK    1  A    between atoms: C_3  and  N_1 
REMARK    2  A    between atoms: C_5  and  C_2 
REMARK    3  A    between atoms: C_4  and  C_3 
REMARK    4  A    between atoms: N_6  and  C_3 
ROOT
ATOM      1  C   UNL d   1      45.176 -15.242  44.679  0.00  0.00     0.170 C 
ENDROOT
BRANCH   1   2
ATOM      2  N   UNL d   1      45.537 -15.988  44.774  0.00  0.00    -0.191 NA
ATOM      3  C   UNL d   1      45.575 -16.521  44.095  0.00  0.00     0.281 C 
ATOM      4  O   UNL d   1      45.266 -16.309  43.362  0.00  0.00    -0.265 OA
BRANCH   3   5
ATOM      5  C   UNL d   1      45.930 -17.267  44.169  0.00  0.00     0.069 A 
ATOM      6  C   UNL d   1      46.019 -17.725  43.494  0.00  0.00     0.062 A 
ATOM      7 CL   UNL d   1      45.824 -17.574  42.789  0.00  0.00    -0.082 Cl
ATOM      8  C   UNL d   1      46.382 -18.501  43.541  0.00  0.00     0.012 A 
ATOM      9  C   UNL d   1      46.640 -18.782  44.265  0.00  0.00     0.001 A 
ATOM     10  C   UNL d   1      46.547 -18.309  44.954  0.00  0.00     0.000 A 
ATOM     11  C   UNL d   1      46.189 -17.549  44.900  0.00  0.00     0.006 A 
ENDBRANCH   3   5
ENDBRANCH   1   2
BRANCH   1  12
ATOM     12  C   UNL d   1      44.355 -15.174  44.818  0.00  0.00     0.249 C 
ATOM     13 CL   UNL d   1      43.573 -15.074  44.950  0.00  0.00    -0.075 Cl
ATOM     14 CL   UNL d   1      43.849 -15.906  44.917  0.00  0.00    -0.075 Cl
ATOM     15 CL   UNL d   1      44.092 -14.448  44.850  0.00  0.00    -0.075 Cl
ENDBRANCH   1  12
BRANCH   1  16
ATOM     16  N   UNL d   1      45.613 -14.589  44.456  0.00  0.00    -0.286 N 
ATOM     17  C   UNL d   1      45.481 -14.242  43.745  0.00  0.00     0.108 A 
ATOM     18  C   UNL d   1      45.921 -13.583  43.519  0.00  0.00     0.142 A 
ATOM     19  O   UNL d   1      46.486 -13.265  43.985  0.00  0.00    -0.300 OA
ATOM     20  C   UNL d   1      46.629 -13.623  44.729  0.00  0.00     0.142 A 
ATOM     21  C   UNL d   1      46.188 -14.283  44.955  0.00  0.00     0.108 A 
ENDBRANCH   1  16
TORSDOF 4
ENDMDL
