MODEL 1
REMARK VINA RESULT:      -4.5      0.000      0.000
REMARK  5 active torsions:
REMARK  status: ('A' for Active; 'I' for Inactive)
REMARK    1  A    between atoms: C_2  and  C_1 
REMARK       I    between atoms: N_3  and  C_1 
REMARK       I    between atoms: N_4  and  C_2 
REMARK    2  A    between atoms: C_5  and  N_3 
REMARK    3  A    between atoms: C_10  and  N_4 
REMARK    4  A    between atoms: C_12  and  C_10 
REMARK    5  A    between atoms: O_13  and  C_11 
ROOT
ATOM      1  C   UNL d   1      58.404  -0.203  30.108  0.00  0.00     0.337 C 
ATOM      2  N   UNL d   1      58.365  -0.679  29.445  0.00  0.00    -0.204 NA
ATOM      3  O   UNL d   1      59.136  -0.046  30.457  0.00  0.00    -0.260 OA
ENDROOT
BRANCH   1   4
ATOM      4  C   UNL d   1      57.717   0.120  30.429  0.00  0.00     0.337 C 
ATOM      5  N   UNL d   1      57.459  -0.116  31.172  0.00  0.00    -0.202 NA
ATOM      6  O   UNL d   1      57.287   0.682  30.004  0.00  0.00    -0.260 OA
BRANCH   5   7
ATOM      7  C   UNL d   1      56.775   0.206  31.491  0.00  0.00     0.102 C 
BRANCH   7   8
ATOM      8  C   UNL d   1      56.470  -0.092  32.199  0.00  0.00     0.022 A 
ATOM      9  C   UNL d   1      56.260  -0.880  32.248  0.00  0.00     0.022 A 
ATOM     10  C   UNL d   1      55.955  -1.178  32.955  0.00  0.00     0.099 A 
ATOM     11  N   UNL d   1      55.864  -0.681  33.606  0.00  0.00    -0.242 NA
ATOM     12  C   UNL d   1      56.078   0.115  33.552  0.00  0.00     0.099 A 
ATOM     13  C   UNL d   1      56.380   0.405  32.850  0.00  0.00     0.022 A 
ENDBRANCH   7   8
ENDBRANCH   5   7
ENDBRANCH   1   4
BRANCH   2  14
ATOM     14  C   UNL d   1      59.053  -1.002  29.123  0.00  0.00     0.087 A 
ATOM     15  C   UNL d   1      59.177  -1.818  29.149  0.00  0.00     0.043 A 
ATOM     16  C   UNL d   1      59.864  -2.141  28.828  0.00  0.00     0.096 A 
ATOM     17  C   UNL d   1      60.428  -1.649  28.481  0.00  0.00     0.024 A 
ATOM     18  C   UNL d   1      60.304  -0.833  28.455  0.00  0.00     0.004 A 
ATOM     19  C   UNL d   1      59.617  -0.510  28.776  0.00  0.00     0.019 A 
BRANCH  16  20
ATOM     20  O   UNL d   1      59.999  -2.961  28.849  0.00  0.00    -0.328 OA
ATOM     21  C   UNL d   1      60.745  -3.249  29.082  0.00  0.00     0.181 C 
ENDBRANCH  16  20
ENDBRANCH   2  14
TORSDOF 5
ENDMDL
MODEL 2
REMARK VINA RESULT:      -4.4      1.476      5.119
REMARK  5 active torsions:
REMARK  status: ('A' for Active; 'I' for Inactive)
REMARK    1  A    between atoms: C_2  and  C_1 
REMARK       I    between atoms: N_3  and  C_1 
REMARK       I    between atoms: N_4  and  C_2 
REMARK    2  A    between atoms: C_5  and  N_3 
REMARK    3  A    between atoms: C_10  and  N_4 
REMARK    4  A    between atoms: C_12  and  C_10 
REMARK    5  A    between atoms: O_13  and  C_11 
ROOT
ATOM      1  C   UNL d   1      57.316   0.012  31.120  0.00  0.00     0.337 C 
ATOM      2  N   UNL d   1      57.198   0.682  31.574  0.00  0.00    -0.204 NA
ATOM      3  O   UNL d   1      57.116  -0.729  31.424  0.00  0.00    -0.260 OA
ENDROOT
BRANCH   1   4
ATOM      4  C   UNL d   1      57.632   0.075  30.361  0.00  0.00     0.337 C 
ATOM      5  N   UNL d   1      58.194  -0.465  30.103  0.00  0.00    -0.202 NA
ATOM      6  O   UNL d   1      57.383   0.682  29.860  0.00  0.00    -0.260 OA
BRANCH   5   7
ATOM      7  C   UNL d   1      58.508  -0.402  29.348  0.00  0.00     0.102 C 
BRANCH   7   8
ATOM      8  C   UNL d   1      59.107  -0.917  29.106  0.00  0.00     0.022 A 
ATOM      9  C   UNL d   1      58.912  -1.647  28.796  0.00  0.00     0.022 A 
ATOM     10  C   UNL d   1      59.511  -2.161  28.554  0.00  0.00     0.099 A 
ATOM     11  N   UNL d   1      60.301  -1.937  28.627  0.00  0.00    -0.242 NA
ATOM     12  C   UNL d   1      60.493  -1.198  28.941  0.00  0.00     0.099 A 
ATOM     13  C   UNL d   1      59.897  -0.692  29.179  0.00  0.00     0.022 A 
ENDBRANCH   7   8
ENDBRANCH   5   7
ENDBRANCH   1   4
BRANCH   2  14
ATOM     14  C   UNL d   1      56.882   0.619  32.334  0.00  0.00     0.087 A 
ATOM     15  C   UNL d   1      56.066   0.673  32.447  0.00  0.00     0.043 A 
ATOM     16  C   UNL d   1      55.750   0.610  33.205  0.00  0.00     0.096 A 
ATOM     17  C   UNL d   1      56.249   0.493  33.852  0.00  0.00     0.024 A 
ATOM     18  C   UNL d   1      57.065   0.439  33.739  0.00  0.00     0.004 A 
ATOM     19  C   UNL d   1      57.381   0.502  32.981  0.00  0.00     0.019 A 
BRANCH  16  20
ATOM     20  O   UNL d   1      54.930   0.663  33.331  0.00  0.00    -0.328 OA
ATOM     21  C   UNL d   1      54.634   0.682  34.109  0.00  0.00     0.181 C 
ENDBRANCH  16  20
ENDBRANCH   2  14
TORSDOF 5
ENDMDL
MODEL 3
REMARK VINA RESULT:      -4.0      1.273      4.771
REMARK  5 active torsions:
REMARK  status: ('A' for Active; 'I' for Inactive)
REMARK    1  A    between atoms: C_2  and  C_1 
REMARK       I    between atoms: N_3  and  C_1 
REMARK       I    between atoms: N_4  and  C_2 
REMARK    2  A    between atoms: C_5  and  N_3 
REMARK    3  A    between atoms: C_10  and  N_4 
REMARK    4  A    between atoms: C_12  and  C_10 
REMARK    5  A    between atoms: O_13  and  C_11 
ROOT
ATOM      1  C   UNL d   1      57.973  -0.174  30.201  0.00  0.00     0.337 C 
ATOM      2  N   UNL d   1      58.006  -0.453  30.969  0.00  0.00    -0.204 NA
ATOM      3  O   UNL d   1      57.338   0.297  29.964  0.00  0.00    -0.260 OA
ENDROOT
BRANCH   1   4
ATOM      4  C   UNL d   1      58.571  -0.361  29.664  0.00  0.00     0.337 C 
ATOM      5  N   UNL d   1      58.660  -1.132  29.400  0.00  0.00    -0.202 NA
ATOM      6  O   UNL d   1      59.080   0.229  29.393  0.00  0.00    -0.260 OA
BRANCH   5   7
ATOM      7  C   UNL d   1      59.254  -1.318  28.866  0.00  0.00     0.102 C 
BRANCH   7   8
ATOM      8  C   UNL d   1      59.506  -2.100  28.784  0.00  0.00     0.022 A 
ATOM      9  C   UNL d   1      60.303  -2.275  28.838  0.00  0.00     0.022 A 
ATOM     10  C   UNL d   1      60.555  -3.057  28.756  0.00  0.00     0.099 A 
ATOM     11  N   UNL d   1      60.005  -3.656  28.622  0.00  0.00    -0.242 NA
ATOM     12  C   UNL d   1      59.201  -3.474  28.568  0.00  0.00     0.099 A 
ATOM     13  C   UNL d   1      58.956  -2.699  28.650  0.00  0.00     0.022 A 
ENDBRANCH   7   8
ENDBRANCH   5   7
ENDBRANCH   1   4
BRANCH   2  14
ATOM     14  C   UNL d   1      57.408  -0.266  31.506  0.00  0.00     0.087 A 
ATOM     15  C   UNL d   1      56.853  -0.838  31.722  0.00  0.00     0.043 A 
ATOM     16  C   UNL d   1      56.256  -0.652  32.258  0.00  0.00     0.096 A 
ATOM     17  C   UNL d   1      56.213   0.107  32.580  0.00  0.00     0.024 A 
ATOM     18  C   UNL d   1      56.768   0.680  32.364  0.00  0.00     0.004 A 
ATOM     19  C   UNL d   1      57.365   0.493  31.827  0.00  0.00     0.019 A 
BRANCH  16  20
ATOM     20  O   UNL d   1      55.692  -1.220  32.482  0.00  0.00    -0.328 OA
ATOM     21  C   UNL d   1      55.475  -1.289  33.284  0.00  0.00     0.181 C 
ENDBRANCH  16  20
ENDBRANCH   2  14
TORSDOF 5
ENDMDL
MODEL 4
REMARK VINA RESULT:      -2.5      8.673      9.862
REMARK  5 active torsions:
REMARK  status: ('A' for Active; 'I' for Inactive)
REMARK    1  A    between atoms: C_2  and  C_1 
REMARK       I    between atoms: N_3  and  C_1 
REMARK       I    between atoms: N_4  and  C_2 
REMARK    2  A    between atoms: C_5  and  N_3 
REMARK    3  A    between atoms: C_10  and  N_4 
REMARK    4  A    between atoms: C_12  and  C_10 
REMARK    5  A    between atoms: O_13  and  C_11 
ROOT
ATOM      1  C   UNL d   1      60.231  -9.140  33.392  0.00  0.00     0.337 C 
ATOM      2  N   UNL d   1      59.838  -9.472  34.027  0.00  0.00    -0.204 NA
ATOM      3  O   UNL d   1      60.742  -8.503  33.514  0.00  0.00    -0.260 OA
ENDROOT
BRANCH   1   4
ATOM      4  C   UNL d   1      60.119  -9.438  32.631  0.00  0.00     0.337 C 
ATOM      5  N   UNL d   1      59.360  -9.522  32.329  0.00  0.00    -0.202 NA
ATOM      6  O   UNL d   1      60.771  -9.653  32.173  0.00  0.00    -0.260 OA
BRANCH   5   7
ATOM      7  C   UNL d   1      59.249  -9.818  31.573  0.00  0.00     0.102 C 
BRANCH   7   8
ATOM      8  C   UNL d   1      58.507  -9.764  31.214  0.00  0.00     0.022 A 
ATOM      9  C   UNL d   1      58.457  -9.660  30.405  0.00  0.00     0.022 A 
ATOM     10  C   UNL d   1      57.716  -9.606  30.045  0.00  0.00     0.099 A 
ATOM     11  N   UNL d   1      57.032  -9.658  30.502  0.00  0.00    -0.242 NA
ATOM     12  C   UNL d   1      57.087  -9.763  31.319  0.00  0.00     0.099 A 
ATOM     13  C   UNL d   1      57.823  -9.816  31.670  0.00  0.00     0.022 A 
ENDBRANCH   7   8
ENDBRANCH   5   7
ENDBRANCH   1   4
BRANCH   2  14
ATOM     14  C   UNL d   1      59.951  -9.174  34.788  0.00  0.00     0.087 A 
ATOM     15  C   UNL d   1      59.450  -8.586  35.079  0.00  0.00     0.043 A 
ATOM     16  C   UNL d   1      59.562  -8.288  35.839  0.00  0.00     0.096 A 
ATOM     17  C   UNL d   1      60.175  -8.577  36.310  0.00  0.00     0.024 A 
ATOM     18  C   UNL d   1      60.676  -9.166  36.019  0.00  0.00     0.004 A 
ATOM     19  C   UNL d   1      60.564  -9.464  35.259  0.00  0.00     0.019 A 
BRANCH  16  20
ATOM     20  O   UNL d   1      59.063  -7.695  36.143  0.00  0.00    -0.328 OA
ATOM     21  C   UNL d   1      59.336  -6.909  36.180  0.00  0.00     0.181 C 
ENDBRANCH  16  20
ENDBRANCH   2  14
TORSDOF 5
ENDMDL
MODEL 5
REMARK VINA RESULT:      -2.0      8.750      9.966
REMARK  5 active torsions:
REMARK  status: ('A' for Active; 'I' for Inactive)
REMARK    1  A    between atoms: C_2  and  C_1 
REMARK       I    between atoms: N_3  and  C_1 
REMARK       I    between atoms: N_4  and  C_2 
REMARK    2  A    between atoms: C_5  and  N_3 
REMARK    3  A    between atoms: C_10  and  N_4 
REMARK    4  A    between atoms: C_12  and  C_10 
REMARK    5  A    between atoms: O_13  and  C_11 
ROOT
ATOM      1  C   UNL d   1      59.108  -9.520  33.122  0.00  0.00     0.337 C 
ATOM      2  N   UNL d   1      58.784  -9.088  33.735  0.00  0.00    -0.204 NA
ATOM      3  O   UNL d   1      59.874  -9.818  33.190  0.00  0.00    -0.260 OA
ENDROOT
BRANCH   1   4
ATOM      4  C   UNL d   1      58.671  -9.660  32.436  0.00  0.00     0.337 C 
ATOM      5  N   UNL d   1      59.046  -9.679  31.706  0.00  0.00    -0.202 NA
ATOM      6  O   UNL d   1      57.856  -9.782  32.484  0.00  0.00    -0.260 OA
BRANCH   5   7
ATOM      7  C   UNL d   1      58.612  -9.818  31.024  0.00  0.00     0.102 C 
BRANCH   7   8
ATOM      8  C   UNL d   1      58.983  -9.793  30.287  0.00  0.00     0.022 A 
ATOM      9  C   UNL d   1      59.799  -9.813  30.244  0.00  0.00     0.022 A 
ATOM     10  C   UNL d   1      60.169  -9.789  29.506  0.00  0.00     0.099 A 
ATOM     11  N   UNL d   1      59.717  -9.745  28.819  0.00  0.00    -0.242 NA
ATOM     12  C   UNL d   1      58.893  -9.725  28.867  0.00  0.00     0.099 A 
ATOM     13  C   UNL d   1      58.531  -9.750  29.599  0.00  0.00     0.022 A 
ENDBRANCH   7   8
ENDBRANCH   5   7
ENDBRANCH   1   4
BRANCH   2  14
ATOM     14  C   UNL d   1      59.220  -8.948  34.421  0.00  0.00     0.087 A 
ATOM     15  C   UNL d   1      59.576  -8.213  34.542  0.00  0.00     0.043 A 
ATOM     16  C   UNL d   1      60.012  -8.073  35.227  0.00  0.00     0.096 A 
ATOM     17  C   UNL d   1      60.093  -8.668  35.794  0.00  0.00     0.024 A 
ATOM     18  C   UNL d   1      59.737  -9.403  35.673  0.00  0.00     0.004 A 
ATOM     19  C   UNL d   1      59.301  -9.543  34.988  0.00  0.00     0.019 A 
BRANCH  16  20
ATOM     20  O   UNL d   1      60.375  -7.337  35.358  0.00  0.00    -0.328 OA
ATOM     21  C   UNL d   1      60.459  -7.053  36.137  0.00  0.00     0.181 C 
ENDBRANCH  16  20
ENDBRANCH   2  14
TORSDOF 5
ENDMDL
