MODEL 1
REMARK VINA RESULT:      22.1      0.000      0.000
REMARK  2 active torsions:
REMARK  status: ('A' for Active; 'I' for Inactive)
REMARK    1  A    between atoms: N_3  and  C_1 
REMARK       I    between atoms: C_6  and  N_3 
REMARK    2  A    between atoms: C_8  and  C_6 
ROOT
ATOM      1  N   UNL d   1      46.636 -13.517  44.890  0.00  0.00    -0.183 NA
ATOM      2  C   UNL d   1      46.246 -12.801  44.667  0.00  0.00     0.281 C 
ATOM      3  O   UNL d   1      46.528 -12.080  44.937  0.00  0.00    -0.265 OA
ENDROOT
BRANCH   1   4
ATOM      4  C   UNL d   1      46.355 -14.235  44.620  0.00  0.00     0.197 A 
ATOM      5  N   UNL d   1      46.633 -14.649  43.975  0.00  0.00    -0.221 NA
ATOM      6  C   UNL d   1      46.201 -15.331  43.901  0.00  0.00     0.090 A 
ATOM      7  C   UNL d   1      46.232 -15.954  43.362  0.00  0.00     0.020 A 
ATOM      8  C   UNL d   1      45.644 -15.342  44.512  0.00  0.00     0.050 A 
ATOM      9  C   UNL d   1      45.708 -16.588  43.429  0.00  0.00     0.002 A 
ATOM     10  C   UNL d   1      45.150 -16.599  44.040  0.00  0.00     0.001 A 
ATOM     11  C   UNL d   1      45.123 -15.975  44.577  0.00  0.00     0.008 A 
ATOM     12  S   UNL d   1      45.744 -14.667  44.949  0.00  0.00    -0.047 SA
ENDBRANCH   1   4
BRANCH   2  13
ATOM     13  C   UNL d   1      45.595 -12.832  44.187  0.00  0.00     0.058 A 
ATOM     14  C   UNL d   1      45.647 -12.561  43.409  0.00  0.00     0.005 A 
ATOM     15  C   UNL d   1      44.988 -12.589  42.913  0.00  0.00     0.000 A 
ATOM     16  C   UNL d   1      45.038 -12.323  42.148  0.00  0.00     0.000 C 
ATOM     17  C   UNL d   1      44.272 -12.891  43.197  0.00  0.00     0.000 A 
ATOM     18  C   UNL d   1      44.230 -13.163  43.986  0.00  0.00     0.000 A 
ATOM     19  C   UNL d   1      44.878 -13.134  44.471  0.00  0.00     0.005 A 
ENDBRANCH   2  13
TORSDOF 2
ENDMDL
