MODEL 1
REMARK VINA RESULT:      -2.7      0.000      0.000
REMARK  5 active torsions:
REMARK  status: ('A' for Active; 'I' for Inactive)
REMARK    1  A    between atoms: C_3  and  S_1 
REMARK    2  A    between atoms: N_5  and  S_1 
REMARK    3  A    between atoms: C_2  and  C_8 
REMARK       I    between atoms: N_4  and  C_2 
REMARK    4  A    between atoms: C_9  and  N_4 
REMARK    5  A    between atoms: O_17  and  C_16 
ROOT
ATOM      1  C   UNL d   1      32.863  21.125 -21.335  0.00  0.00     0.104 A 
ATOM      2  C   UNL d   1      32.870  19.685 -22.197  0.00  0.00     0.058 A 
ATOM      3  C   UNL d   1      33.199  20.468 -21.039  0.00  0.00     0.013 A 
ATOM      4  C   UNL d   1      32.523  21.076 -22.069  0.00  0.00     0.013 A 
ATOM      5  C   UNL d   1      32.510  20.384 -22.518  0.00  0.00     0.005 A 
ATOM      6  C   UNL d   1      33.204  19.755 -21.463  0.00  0.00     0.005 A 
ENDROOT
BRANCH   2   7
ATOM      7  C   UNL d   1      32.875  18.955 -22.631  0.00  0.00     0.279 C 
ATOM      8  N   UNL d   1      32.568  18.889 -23.347  0.00  0.00    -0.208 NA
ATOM      9  O   UNL d   1      33.235  18.287 -22.244  0.00  0.00    -0.265 OA
BRANCH   8  10
ATOM     10  C   UNL d   1      32.587  18.166 -23.745  0.00  0.00     0.087 A 
ATOM     11  C   UNL d   1      31.987  17.636 -23.632  0.00  0.00     0.043 A 
ATOM     12  C   UNL d   1      32.006  16.914 -24.031  0.00  0.00     0.096 A 
ATOM     13  C   UNL d   1      32.625  16.723 -24.542  0.00  0.00     0.024 A 
ATOM     14  C   UNL d   1      33.241  17.279 -24.651  0.00  0.00     0.004 A 
ATOM     15  C   UNL d   1      33.217  17.999 -24.251  0.00  0.00     0.019 A 
BRANCH  12  16
ATOM     16  O   UNL d   1      31.535  16.499 -23.941  0.00  0.00    -0.328 OA
ATOM     17  C   UNL d   1      31.247  15.910 -24.430  0.00  0.00     0.181 C 
ENDBRANCH  12  16
ENDBRANCH   8  10
ENDBRANCH   2   7
BRANCH   1  18
ATOM     18  S   UNL d   1      32.822  21.919 -20.938  0.00  0.00     0.271 S 
ATOM     19  O   UNL d   1      33.238  22.324 -21.549  0.00  0.00    -0.200 OA
ATOM     20  O   UNL d   1      32.425  21.526 -20.356  0.00  0.00    -0.200 OA
BRANCH  18  21
ATOM     21  N   UNL d   1      32.746  22.672 -20.490  0.00  0.00    -0.226 N 
ATOM     22  C   UNL d   1      32.433  23.349 -20.868  0.00  0.00     0.111 C 
ATOM     23  C   UNL d   1      32.982  22.711 -19.700  0.00  0.00     0.111 C 
ENDBRANCH  18  21
ENDBRANCH   1  18
TORSDOF 5
ENDMDL
MODEL 2
REMARK VINA RESULT:      -2.1      1.134      1.506
REMARK  5 active torsions:
REMARK  status: ('A' for Active; 'I' for Inactive)
REMARK    1  A    between atoms: C_3  and  S_1 
REMARK    2  A    between atoms: N_5  and  S_1 
REMARK    3  A    between atoms: C_2  and  C_8 
REMARK       I    between atoms: N_4  and  C_2 
REMARK    4  A    between atoms: C_9  and  N_4 
REMARK    5  A    between atoms: O_17  and  C_16 
ROOT
ATOM      1  C   UNL d   1      32.661  21.959 -20.616  0.00  0.00     0.104 A 
ATOM      2  C   UNL d   1      32.807  20.809 -21.830  0.00  0.00     0.058 A 
ATOM      3  C   UNL d   1      32.257  21.275 -20.588  0.00  0.00     0.013 A 
ATOM      4  C   UNL d   1      33.147  22.083 -21.253  0.00  0.00     0.013 A 
ATOM      5  C   UNL d   1      33.241  21.538 -21.865  0.00  0.00     0.005 A 
ATOM      6  C   UNL d   1      32.327  20.705 -21.186  0.00  0.00     0.005 A 
ENDROOT
BRANCH   2   7
ATOM      7  C   UNL d   1      32.879  20.226 -22.442  0.00  0.00     0.279 C 
ATOM      8  N   UNL d   1      32.863  19.458 -22.296  0.00  0.00    -0.208 NA
ATOM      9  O   UNL d   1      32.970  20.519 -23.237  0.00  0.00    -0.265 OA
BRANCH   8  10
ATOM     10  C   UNL d   1      32.935  18.912 -22.911  0.00  0.00     0.087 A 
ATOM     11  C   UNL d   1      32.951  18.122 -22.740  0.00  0.00     0.043 A 
ATOM     12  C   UNL d   1      33.023  17.578 -23.356  0.00  0.00     0.096 A 
ATOM     13  C   UNL d   1      33.079  17.824 -24.142  0.00  0.00     0.024 A 
ATOM     14  C   UNL d   1      33.061  18.644 -24.307  0.00  0.00     0.004 A 
ATOM     15  C   UNL d   1      32.989  19.184 -23.688  0.00  0.00     0.019 A 
BRANCH  12  16
ATOM     16  O   UNL d   1      33.036  16.958 -23.220  0.00  0.00    -0.328 OA
ATOM     17  C   UNL d   1      32.784  16.315 -23.658  0.00  0.00     0.181 C 
ENDBRANCH  12  16
ENDBRANCH   8  10
ENDBRANCH   2   7
BRANCH   1  18
ATOM     18  S   UNL d   1      32.633  22.611 -20.013  0.00  0.00     0.271 S 
ATOM     19  O   UNL d   1      33.210  22.261 -19.507  0.00  0.00    -0.200 OA
ATOM     20  O   UNL d   1      32.083  22.941 -20.500  0.00  0.00    -0.200 OA
BRANCH  18  21
ATOM     21  N   UNL d   1      32.556  23.288 -19.457  0.00  0.00    -0.226 N 
ATOM     22  C   UNL d   1      33.208  23.512 -18.983  0.00  0.00     0.111 C 
ATOM     23  C   UNL d   1      31.844  23.701 -19.403  0.00  0.00     0.111 C 
ENDBRANCH  18  21
ENDBRANCH   1  18
TORSDOF 5
ENDMDL
MODEL 3
REMARK VINA RESULT:      -0.0      2.286      5.275
REMARK  5 active torsions:
REMARK  status: ('A' for Active; 'I' for Inactive)
REMARK    1  A    between atoms: C_3  and  S_1 
REMARK    2  A    between atoms: N_5  and  S_1 
REMARK    3  A    between atoms: C_2  and  C_8 
REMARK       I    between atoms: N_4  and  C_2 
REMARK    4  A    between atoms: C_9  and  N_4 
REMARK    5  A    between atoms: O_17  and  C_16 
ROOT
ATOM      1  C   UNL d   1      32.441  17.830 -23.911  0.00  0.00     0.104 A 
ATOM      2  C   UNL d   1      32.748  19.456 -24.187  0.00  0.00     0.058 A 
ATOM      3  C   UNL d   1      32.332  18.154 -24.628  0.00  0.00     0.013 A 
ATOM      4  C   UNL d   1      32.706  18.312 -23.316  0.00  0.00     0.013 A 
ATOM      5  C   UNL d   1      32.866  19.114 -23.419  0.00  0.00     0.005 A 
ATOM      6  C   UNL d   1      32.483  18.958 -24.768  0.00  0.00     0.005 A 
ENDROOT
BRANCH   2   7
ATOM      7  C   UNL d   1      32.902  20.279 -24.330  0.00  0.00     0.279 C 
ATOM      8  N   UNL d   1      32.762  20.832 -23.796  0.00  0.00    -0.208 NA
ATOM      9  O   UNL d   1      33.221  20.477 -25.095  0.00  0.00    -0.265 OA
BRANCH   8  10
ATOM     10  C   UNL d   1      32.922  21.625 -23.962  0.00  0.00     0.087 A 
ATOM     11  C   UNL d   1      33.005  22.148 -23.352  0.00  0.00     0.043 A 
ATOM     12  C   UNL d   1      33.164  22.940 -23.519  0.00  0.00     0.096 A 
ATOM     13  C   UNL d   1      33.241  23.208 -24.296  0.00  0.00     0.024 A 
ATOM     14  C   UNL d   1      33.153  22.657 -24.920  0.00  0.00     0.004 A 
ATOM     15  C   UNL d   1      32.994  21.867 -24.747  0.00  0.00     0.019 A 
BRANCH  12  16
ATOM     16  O   UNL d   1      33.229  23.351 -23.039  0.00  0.00    -0.328 OA
ATOM     17  C   UNL d   1      32.668  23.677 -22.542  0.00  0.00     0.181 C 
ENDBRANCH  12  16
ENDBRANCH   8  10
ENDBRANCH   2   7
BRANCH   1  18
ATOM     18  S   UNL d   1      32.300  16.980 -23.692  0.00  0.00     0.271 S 
ATOM     19  O   UNL d   1      33.114  16.763 -23.727  0.00  0.00    -0.200 OA
ATOM     20  O   UNL d   1      31.524  17.192 -23.659  0.00  0.00    -0.200 OA
BRANCH  18  21
ATOM     21  N   UNL d   1      32.091  16.155 -23.472  0.00  0.00    -0.226 N 
ATOM     22  C   UNL d   1      32.696  15.603 -23.306  0.00  0.00     0.111 C 
ATOM     23  C   UNL d   1      31.298  15.926 -23.429  0.00  0.00     0.111 C 
ENDBRANCH  18  21
ENDBRANCH   1  18
TORSDOF 5
ENDMDL
