MODEL 1
REMARK VINA RESULT:      -3.6      0.000      0.000
REMARK  6 active torsions:
REMARK  status: ('A' for Active; 'I' for Inactive)
REMARK    1  A    between atoms: C_10  and  C_3 
REMARK    2  A    between atoms: S_9  and  C_4 
REMARK       I    between atoms: N_6  and  C_7 
REMARK    3  A    between atoms: C_8  and  N_6 
REMARK    4  A    between atoms: C_7  and  C_14 
REMARK    5  A    between atoms: C_14  and  S_9 
REMARK    6  A    between atoms: O_15  and  C_12 
ROOT
ATOM      1  S   UNL d   1      33.137  19.436 -22.269  0.00  0.00    -0.036 SA
ENDROOT
BRANCH   1   2
ATOM      2  C   UNL d   1      32.953  18.980 -22.960  0.00  0.00     0.236 A 
ATOM      3  O   UNL d   1      32.409  18.364 -22.921  0.00  0.00    -0.263 OA
ATOM      4  C   UNL d   1      32.344  18.030 -23.655  0.00  0.00     0.205 A 
ATOM      5  N   UNL d   1      32.852  18.440 -24.162  0.00  0.00    -0.120 NA
ATOM      6  N   UNL d   1      33.223  19.019 -23.738  0.00  0.00    -0.114 NA
BRANCH   4   7
ATOM      7  C   UNL d   1      31.873  17.401 -23.894  0.00  0.00     0.046 A 
ATOM      8  C   UNL d   1      31.896  16.696 -23.485  0.00  0.00     0.024 A 
ATOM      9  C   UNL d   1      31.413  16.054 -23.732  0.00  0.00     0.099 A 
ATOM     10  N   UNL d   1      30.921  16.146 -24.386  0.00  0.00    -0.242 NA
ATOM     11  C   UNL d   1      30.900  16.881 -24.808  0.00  0.00     0.099 A 
ATOM     12  C   UNL d   1      31.375  17.498 -24.557  0.00  0.00     0.024 A 
ENDBRANCH   4   7
ENDBRANCH   1   2
BRANCH   1  13
ATOM     13  C   UNL d   1      33.161  20.259 -22.338  0.00  0.00     0.101 C 
BRANCH  13  14
ATOM     14  C   UNL d   1      33.102  20.702 -21.647  0.00  0.00     0.286 C 
ATOM     15  N   UNL d   1      32.902  21.507 -21.694  0.00  0.00    -0.206 NA
ATOM     16  O   UNL d   1      33.234  20.374 -20.903  0.00  0.00    -0.265 OA
BRANCH  15  17
ATOM     17  C   UNL d   1      32.839  21.964 -21.012  0.00  0.00     0.107 A 
ATOM     18  C   UNL d   1      32.369  22.668 -20.995  0.00  0.00     0.112 A 
ATOM     19  C   UNL d   1      32.316  23.106 -20.320  0.00  0.00     0.026 A 
ATOM     20  C   UNL d   1      32.710  22.892 -19.628  0.00  0.00     0.002 A 
ATOM     21  C   UNL d   1      33.177  22.211 -19.610  0.00  0.00     0.002 A 
ATOM     22  C   UNL d   1      33.241  21.749 -20.298  0.00  0.00     0.021 A 
BRANCH  18  23
ATOM     23  O   UNL d   1      31.967  22.883 -21.709  0.00  0.00    -0.327 OA
ATOM     24  C   UNL d   1      31.747  23.696 -21.801  0.00  0.00     0.181 C 
ENDBRANCH  18  23
ENDBRANCH  15  17
ENDBRANCH  13  14
ENDBRANCH   1  13
TORSDOF 6
ENDMDL
MODEL 2
REMARK VINA RESULT:      -3.5      0.960      5.727
REMARK  6 active torsions:
REMARK  status: ('A' for Active; 'I' for Inactive)
REMARK    1  A    between atoms: C_10  and  C_3 
REMARK    2  A    between atoms: S_9  and  C_4 
REMARK       I    between atoms: N_6  and  C_7 
REMARK    3  A    between atoms: C_8  and  N_6 
REMARK    4  A    between atoms: C_7  and  C_14 
REMARK    5  A    between atoms: C_14  and  S_9 
REMARK    6  A    between atoms: O_15  and  C_12 
ROOT
ATOM      1  S   UNL d   1      32.943  19.552 -22.239  0.00  0.00    -0.036 SA
ENDROOT
BRANCH   1   2
ATOM      2  C   UNL d   1      32.994  20.396 -22.173  0.00  0.00     0.236 A 
ATOM      3  O   UNL d   1      32.769  20.775 -21.477  0.00  0.00    -0.263 OA
ATOM      4  C   UNL d   1      32.875  21.571 -21.571  0.00  0.00     0.205 A 
ATOM      5  N   UNL d   1      33.169  21.696 -22.334  0.00  0.00    -0.120 NA
ATOM      6  N   UNL d   1      33.241  20.980 -22.700  0.00  0.00    -0.114 NA
BRANCH   4   7
ATOM      7  C   UNL d   1      32.731  22.176 -21.035  0.00  0.00     0.046 A 
ATOM      8  C   UNL d   1      32.102  22.683 -21.151  0.00  0.00     0.024 A 
ATOM      9  C   UNL d   1      31.957  23.301 -20.601  0.00  0.00     0.099 A 
ATOM     10  N   UNL d   1      32.453  23.388 -19.949  0.00  0.00    -0.242 NA
ATOM     11  C   UNL d   1      33.106  22.858 -19.832  0.00  0.00     0.099 A 
ATOM     12  C   UNL d   1      33.236  22.261 -20.375  0.00  0.00     0.024 A 
ENDBRANCH   4   7
ENDBRANCH   1   2
BRANCH   1  13
ATOM     13  C   UNL d   1      33.011  19.212 -22.988  0.00  0.00     0.101 C 
BRANCH  13  14
ATOM     14  C   UNL d   1      32.916  18.398 -23.049  0.00  0.00     0.286 C 
ATOM     15  N   UNL d   1      32.486  18.083 -23.687  0.00  0.00    -0.206 NA
ATOM     16  O   UNL d   1      33.233  17.877 -22.496  0.00  0.00    -0.265 OA
BRANCH  15  17
ATOM     17  C   UNL d   1      32.382  17.270 -23.762  0.00  0.00     0.107 A 
ATOM     18  C   UNL d   1      31.640  16.942 -24.007  0.00  0.00     0.112 A 
ATOM     19  C   UNL d   1      31.553  16.143 -24.076  0.00  0.00     0.026 A 
ATOM     20  C   UNL d   1      32.169  15.620 -23.915  0.00  0.00     0.002 A 
ATOM     21  C   UNL d   1      32.905  15.907 -23.674  0.00  0.00     0.002 A 
ATOM     22  C   UNL d   1      33.011  16.728 -23.598  0.00  0.00     0.021 A 
BRANCH  18  23
ATOM     23  O   UNL d   1      31.011  17.484 -24.171  0.00  0.00    -0.327 OA
ATOM     24  C   UNL d   1      30.314  17.171 -24.536  0.00  0.00     0.181 C 
ENDBRANCH  18  23
ENDBRANCH  15  17
ENDBRANCH  13  14
ENDBRANCH   1  13
TORSDOF 6
ENDMDL
MODEL 3
REMARK VINA RESULT:      -2.6      1.216      5.700
REMARK  6 active torsions:
REMARK  status: ('A' for Active; 'I' for Inactive)
REMARK    1  A    between atoms: C_10  and  C_3 
REMARK    2  A    between atoms: S_9  and  C_4 
REMARK       I    between atoms: N_6  and  C_7 
REMARK    3  A    between atoms: C_8  and  N_6 
REMARK    4  A    between atoms: C_7  and  C_14 
REMARK    5  A    between atoms: C_14  and  S_9 
REMARK    6  A    between atoms: O_15  and  C_12 
ROOT
ATOM      1  S   UNL d   1      33.241  18.976 -22.541  0.00  0.00    -0.036 SA
ENDROOT
BRANCH   1   2
ATOM      2  C   UNL d   1      33.191  19.657 -22.038  0.00  0.00     0.236 A 
ATOM      3  O   UNL d   1      33.071  20.406 -22.360  0.00  0.00    -0.263 OA
ATOM      4  C   UNL d   1      33.048  20.944 -21.757  0.00  0.00     0.205 A 
ATOM      5  N   UNL d   1      33.153  20.532 -21.049  0.00  0.00    -0.120 NA
ATOM      6  N   UNL d   1      33.241  19.748 -21.220  0.00  0.00    -0.114 NA
BRANCH   4   7
ATOM      7  C   UNL d   1      32.940  21.758 -21.799  0.00  0.00     0.046 A 
ATOM      8  C   UNL d   1      33.218  22.174 -22.443  0.00  0.00     0.024 A 
ATOM      9  C   UNL d   1      33.106  23.006 -22.482  0.00  0.00     0.099 A 
ATOM     10  N   UNL d   1      32.718  23.392 -21.867  0.00  0.00    -0.242 NA
ATOM     11  C   UNL d   1      32.431  22.955 -21.199  0.00  0.00     0.099 A 
ATOM     12  C   UNL d   1      32.546  22.146 -21.173  0.00  0.00     0.024 A 
ENDBRANCH   4   7
ENDBRANCH   1   2
BRANCH   1  13
ATOM     13  C   UNL d   1      32.617  18.826 -23.061  0.00  0.00     0.101 C 
BRANCH  13  14
ATOM     14  C   UNL d   1      32.570  18.077 -23.396  0.00  0.00     0.286 C 
ATOM     15  N   UNL d   1      31.826  17.724 -23.507  0.00  0.00    -0.206 NA
ATOM     16  O   UNL d   1      33.240  17.657 -23.627  0.00  0.00    -0.265 OA
BRANCH  15  17
ATOM     17  C   UNL d   1      31.762  16.975 -23.841  0.00  0.00     0.107 A 
ATOM     18  C   UNL d   1      31.083  16.750 -24.295  0.00  0.00     0.112 A 
ATOM     19  C   UNL d   1      31.035  16.012 -24.616  0.00  0.00     0.026 A 
ATOM     20  C   UNL d   1      31.633  15.453 -24.519  0.00  0.00     0.002 A 
ATOM     21  C   UNL d   1      32.309  15.639 -24.083  0.00  0.00     0.002 A 
ATOM     22  C   UNL d   1      32.373  16.396 -23.746  0.00  0.00     0.021 A 
BRANCH  18  23
ATOM     23  O   UNL d   1      30.472  17.329 -24.390  0.00  0.00    -0.327 OA
ATOM     24  C   UNL d   1      29.692  17.045 -24.559  0.00  0.00     0.181 C 
ENDBRANCH  18  23
ENDBRANCH  15  17
ENDBRANCH  13  14
ENDBRANCH   1  13
TORSDOF 6
ENDMDL
MODEL 4
REMARK VINA RESULT:      -2.4      1.273      5.822
REMARK  6 active torsions:
REMARK  status: ('A' for Active; 'I' for Inactive)
REMARK    1  A    between atoms: C_10  and  C_3 
REMARK    2  A    between atoms: S_9  and  C_4 
REMARK       I    between atoms: N_6  and  C_7 
REMARK    3  A    between atoms: C_8  and  N_6 
REMARK    4  A    between atoms: C_7  and  C_14 
REMARK    5  A    between atoms: C_14  and  S_9 
REMARK    6  A    between atoms: O_15  and  C_12 
ROOT
ATOM      1  S   UNL d   1      33.117  20.018 -21.364  0.00  0.00    -0.036 SA
ENDROOT
BRANCH   1   2
ATOM      2  C   UNL d   1      33.117  20.843 -21.171  0.00  0.00     0.236 A 
ATOM      3  O   UNL d   1      33.106  21.088 -20.385  0.00  0.00    -0.263 OA
ATOM      4  C   UNL d   1      33.109  21.897 -20.367  0.00  0.00     0.205 A 
ATOM      5  N   UNL d   1      33.123  22.165 -21.149  0.00  0.00    -0.120 NA
ATOM      6  N   UNL d   1      33.128  21.522 -21.639  0.00  0.00    -0.114 NA
BRANCH   4   7
ATOM      7  C   UNL d   1      33.101  22.397 -19.715  0.00  0.00     0.046 A 
ATOM      8  C   UNL d   1      32.959  23.194 -19.814  0.00  0.00     0.024 A 
ATOM      9  C   UNL d   1      32.952  23.702 -19.145  0.00  0.00     0.099 A 
ATOM     10  N   UNL d   1      33.088  23.389 -18.396  0.00  0.00    -0.242 NA
ATOM     11  C   UNL d   1      33.236  22.559 -18.298  0.00  0.00     0.099 A 
ATOM     12  C   UNL d   1      33.241  22.075 -18.957  0.00  0.00     0.024 A 
ENDBRANCH   4   7
ENDBRANCH   1   2
BRANCH   1  13
ATOM     13  C   UNL d   1      33.176  19.801 -22.159  0.00  0.00     0.101 C 
BRANCH  13  14
ATOM     14  C   UNL d   1      33.045  19.012 -22.350  0.00  0.00     0.286 C 
ATOM     15  N   UNL d   1      32.936  18.797 -23.146  0.00  0.00    -0.206 NA
ATOM     16  O   UNL d   1      33.018  18.420 -21.778  0.00  0.00    -0.265 OA
BRANCH  15  17
ATOM     17  C   UNL d   1      32.804  18.011 -23.354  0.00  0.00     0.107 A 
ATOM     18  C   UNL d   1      32.261  17.804 -23.970  0.00  0.00     0.112 A 
ATOM     19  C   UNL d   1      32.142  17.030 -24.163  0.00  0.00     0.026 A 
ATOM     20  C   UNL d   1      32.536  16.417 -23.777  0.00  0.00     0.002 A 
ATOM     21  C   UNL d   1      33.073  16.585 -23.171  0.00  0.00     0.002 A 
ATOM     22  C   UNL d   1      33.206  17.378 -22.961  0.00  0.00     0.021 A 
BRANCH  18  23
ATOM     23  O   UNL d   1      31.860  18.437 -24.363  0.00  0.00    -0.327 OA
ATOM     24  C   UNL d   1      31.336  18.231 -24.996  0.00  0.00     0.181 C 
ENDBRANCH  18  23
ENDBRANCH  15  17
ENDBRANCH  13  14
ENDBRANCH   1  13
TORSDOF 6
ENDMDL
