MODEL 1
REMARK VINA RESULT:      -9.9      0.000      0.000
REMARK  2 active torsions:
REMARK  status: ('A' for Active; 'I' for Inactive)
REMARK    1  A    between atoms: C_12  and  N_1 
REMARK    2  A    between atoms: N_6  and  C_13 
ROOT
ATOM      1  N   UNL d   1     -48.591  13.377  22.709  0.00  0.00    -0.242 N 
ATOM      2  C   UNL d   1     -48.823  14.199  22.942  0.00  0.00     0.263 A 
ATOM      3  C   UNL d   1     -49.168  13.052  22.286  0.00  0.00     0.263 A 
ATOM      4  C   UNL d   1     -49.821  13.580  22.185  0.00  0.00     0.039 A 
ATOM      5  C   UNL d   1     -49.679  14.248  22.538  0.00  0.00     0.039 A 
ATOM      6  C   UNL d   1     -50.187  14.846  22.538  0.00  0.00     0.049 A 
ATOM      7  C   UNL d   1     -50.540  13.503  21.795  0.00  0.00     0.049 A 
ATOM      8  C   UNL d   1     -50.890  14.788  22.164  0.00  0.00    -0.026 A 
ATOM      9  C   UNL d   1     -51.064  14.098  21.786  0.00  0.00    -0.026 A 
ATOM     10  C   UNL d   1     -50.000  14.059  22.298  0.00  0.00     0.018 A 
ATOM     11  O   UNL d   1     -49.157  12.294  21.971  0.00  0.00    -0.267 OA
ATOM     12  O   UNL d   1     -48.494  14.711  23.322  0.00  0.00    -0.267 OA
ENDROOT
BRANCH   1  13
ATOM     13  C   UNL d   1     -47.898  12.971  22.882  0.00  0.00     0.070 A 
ATOM     14  C   UNL d   1     -47.202  13.142  22.467  0.00  0.00     0.019 A 
ATOM     15  C   UNL d   1     -46.497  12.736  22.636  0.00  0.00     0.018 A 
ATOM     16  C   UNL d   1     -46.489  12.147  23.233  0.00  0.00     0.096 A 
ATOM     17  C   UNL d   1     -47.188  11.984  23.641  0.00  0.00     0.018 A 
ATOM     18  C   UNL d   1     -47.891  12.396  23.466  0.00  0.00     0.019 A 
BRANCH  16  19
ATOM     19  N   UNL d   1     -45.801  11.740  23.409  0.00  0.00     0.037 NA
ATOM     20  O   UNL d   1     -46.098  12.445  23.698  0.00  0.00    -0.084 OA
ATOM     21  O   UNL d   1     -45.041  11.428  23.698  0.00  0.00    -0.084 OA
ENDBRANCH  16  19
ENDBRANCH   1  13
TORSDOF 2
ENDMDL
MODEL 2
REMARK VINA RESULT:      -8.8      1.341      4.120
REMARK  2 active torsions:
REMARK  status: ('A' for Active; 'I' for Inactive)
REMARK    1  A    between atoms: C_12  and  N_1 
REMARK    2  A    between atoms: N_6  and  C_13 
ROOT
ATOM      1  N   UNL d   1     -48.142  13.000  23.121  0.00  0.00    -0.242 N 
ATOM      2  C   UNL d   1     -48.267  12.186  23.445  0.00  0.00     0.263 A 
ATOM      3  C   UNL d   1     -47.376  13.117  22.991  0.00  0.00     0.263 A 
ATOM      4  C   UNL d   1     -46.915  12.439  23.199  0.00  0.00     0.039 A 
ATOM      5  C   UNL d   1     -47.371  11.878  23.463  0.00  0.00     0.039 A 
ATOM      6  C   UNL d   1     -47.097  11.182  23.698  0.00  0.00     0.049 A 
ATOM      7  C   UNL d   1     -46.108  12.288  23.167  0.00  0.00     0.049 A 
ATOM      8  C   UNL d   1     -46.315  11.019  23.674  0.00  0.00    -0.026 A 
ATOM      9  C   UNL d   1     -45.815  11.589  23.401  0.00  0.00    -0.026 A 
ATOM     10  C   UNL d   1     -46.940  11.951  23.388  0.00  0.00     0.018 A 
ATOM     11  O   UNL d   1     -47.044  13.805  22.692  0.00  0.00    -0.267 OA
ATOM     12  O   UNL d   1     -48.852  11.825  23.647  0.00  0.00    -0.267 OA
ENDROOT
BRANCH   1  13
ATOM     13  C   UNL d   1     -48.703  13.581  22.961  0.00  0.00     0.070 A 
ATOM     14  C   UNL d   1     -48.995  14.054  23.575  0.00  0.00     0.019 A 
ATOM     15  C   UNL d   1     -49.562  14.642  23.422  0.00  0.00     0.018 A 
ATOM     16  C   UNL d   1     -49.840  14.758  22.639  0.00  0.00     0.096 A 
ATOM     17  C   UNL d   1     -49.542  14.281  22.035  0.00  0.00     0.018 A 
ATOM     18  C   UNL d   1     -48.974  13.693  22.197  0.00  0.00     0.019 A 
BRANCH  16  19
ATOM     19  N   UNL d   1     -50.398  15.335  22.475  0.00  0.00     0.037 NA
ATOM     20  O   UNL d   1     -50.349  14.791  23.084  0.00  0.00    -0.084 OA
ATOM     21  O   UNL d   1     -51.064  15.895  22.435  0.00  0.00    -0.084 OA
ENDBRANCH  16  19
ENDBRANCH   1  13
TORSDOF 2
ENDMDL
MODEL 3
REMARK VINA RESULT:      -7.6      8.936      9.987
REMARK  2 active torsions:
REMARK  status: ('A' for Active; 'I' for Inactive)
REMARK    1  A    between atoms: C_12  and  N_1 
REMARK    2  A    between atoms: N_6  and  C_13 
ROOT
ATOM      1  N   UNL d   1     -39.656  14.484  19.722  0.00  0.00    -0.242 N 
ATOM      2  C   UNL d   1     -38.794  14.306  19.821  0.00  0.00     0.263 A 
ATOM      3  C   UNL d   1     -40.025  14.383  20.408  0.00  0.00     0.263 A 
ATOM      4  C   UNL d   1     -39.493  14.139  21.019  0.00  0.00     0.039 A 
ATOM      5  C   UNL d   1     -38.779  14.079  20.741  0.00  0.00     0.039 A 
ATOM      6  C   UNL d   1     -38.166  13.863  21.181  0.00  0.00     0.049 A 
ATOM      7  C   UNL d   1     -39.606  13.966  21.814  0.00  0.00     0.049 A 
ATOM      8  C   UNL d   1     -38.259  13.691  21.956  0.00  0.00    -0.026 A 
ATOM      9  C   UNL d   1     -38.998  13.745  22.273  0.00  0.00    -0.026 A 
ATOM     10  C   UNL d   1     -38.993  14.024  21.125  0.00  0.00     0.018 A 
ATOM     11  O   UNL d   1     -40.828  14.495  20.537  0.00  0.00    -0.267 OA
ATOM     12  O   UNL d   1     -38.238  14.317  19.369  0.00  0.00    -0.267 OA
ENDROOT
BRANCH   1  13
ATOM     13  C   UNL d   1     -40.056  14.721  19.044  0.00  0.00     0.070 A 
ATOM     14  C   UNL d   1     -40.291  14.158  18.483  0.00  0.00     0.019 A 
ATOM     15  C   UNL d   1     -40.697  14.390  17.796  0.00  0.00     0.018 A 
ATOM     16  C   UNL d   1     -40.870  15.201  17.668  0.00  0.00     0.096 A 
ATOM     17  C   UNL d   1     -40.631  15.753  18.233  0.00  0.00     0.018 A 
ATOM     18  C   UNL d   1     -40.225  15.513  18.921  0.00  0.00     0.019 A 
BRANCH  16  19
ATOM     19  N   UNL d   1     -41.268  15.442  16.994  0.00  0.00     0.037 NA
ATOM     20  O   UNL d   1     -41.097  14.695  17.280  0.00  0.00    -0.084 OA
ATOM     21  O   UNL d   1     -41.709  15.540  16.250  0.00  0.00    -0.084 OA
ENDBRANCH  16  19
ENDBRANCH   1  13
TORSDOF 2
ENDMDL
MODEL 4
REMARK VINA RESULT:      -7.3      8.613     10.283
REMARK  2 active torsions:
REMARK  status: ('A' for Active; 'I' for Inactive)
REMARK    1  A    between atoms: C_12  and  N_1 
REMARK    2  A    between atoms: N_6  and  C_13 
ROOT
ATOM      1  N   UNL d   1     -39.596  14.509  18.549  0.00  0.00    -0.242 N 
ATOM      2  C   UNL d   1     -39.245  15.014  19.186  0.00  0.00     0.263 A 
ATOM      3  C   UNL d   1     -40.297  14.243  18.783  0.00  0.00     0.263 A 
ATOM      4  C   UNL d   1     -40.496  14.516  19.558  0.00  0.00     0.039 A 
ATOM      5  C   UNL d   1     -39.932  14.960  19.835  0.00  0.00     0.039 A 
ATOM      6  C   UNL d   1     -39.962  15.293  20.546  0.00  0.00     0.049 A 
ATOM      7  C   UNL d   1     -41.152  14.394  20.037  0.00  0.00     0.049 A 
ATOM      8  C   UNL d   1     -40.593  15.184  21.023  0.00  0.00    -0.026 A 
ATOM      9  C   UNL d   1     -41.198  14.723  20.757  0.00  0.00    -0.026 A 
ATOM     10  C   UNL d   1     -40.328  14.806  19.961  0.00  0.00     0.018 A 
ATOM     11  O   UNL d   1     -40.792  13.757  18.343  0.00  0.00    -0.267 OA
ATOM     12  O   UNL d   1     -38.628  15.376  19.238  0.00  0.00    -0.267 OA
ENDROOT
BRANCH   1  13
ATOM     13  C   UNL d   1     -39.282  14.318  17.813  0.00  0.00     0.070 A 
ATOM     14  C   UNL d   1     -39.399  14.825  17.168  0.00  0.00     0.019 A 
ATOM     15  C   UNL d   1     -39.085  14.638  16.422  0.00  0.00     0.018 A 
ATOM     16  C   UNL d   1     -38.645  13.931  16.320  0.00  0.00     0.096 A 
ATOM     17  C   UNL d   1     -38.534  13.434  16.969  0.00  0.00     0.018 A 
ATOM     18  C   UNL d   1     -38.853  13.628  17.715  0.00  0.00     0.019 A 
BRANCH  16  19
ATOM     19  N   UNL d   1     -38.330  13.736  15.590  0.00  0.00     0.037 NA
ATOM     20  O   UNL d   1     -38.505  14.461  15.924  0.00  0.00    -0.084 OA
ATOM     21  O   UNL d   1     -37.993  13.689  14.788  0.00  0.00    -0.084 OA
ENDBRANCH  16  19
ENDBRANCH   1  13
TORSDOF 2
ENDMDL
