MODEL 1
REMARK VINA RESULT:      -3.0      0.000      0.000
REMARK  5 active torsions:
REMARK  status: ('A' for Active; 'I' for Inactive)
REMARK    1  A    between atoms: S_9  and  C_2 
REMARK    2  A    between atoms: C_7  and  C_18 
REMARK       I    between atoms: N_13  and  C_7 
REMARK    3  A    between atoms: C_18  and  S_9 
REMARK    4  A    between atoms: C_20  and  N_13 
REMARK    5  A    between atoms: C_19  and  C_20 
ROOT
ATOM      1  C   UNL d   1      32.513  16.954 -23.589  0.00  0.00     0.286 C 
ATOM      2  N   UNL d   1      31.755  16.654 -23.733  0.00  0.00    -0.206 NA
ATOM      3  O   UNL d   1      33.108  16.457 -23.302  0.00  0.00    -0.265 OA
ENDROOT
BRANCH   2   4
ATOM      4  C   UNL d   1      31.146  17.156 -24.026  0.00  0.00     0.102 C 
BRANCH   4   5
ATOM      5  C   UNL d   1      30.373  16.850 -24.142  0.00  0.00     0.021 A 
ATOM      6  C   UNL d   1      30.024  16.355 -23.572  0.00  0.00     0.028 A 
ATOM      7  C   UNL d   1      29.258  16.060 -23.701  0.00  0.00     0.119 A 
ATOM      8  O   UNL d   1      28.778  15.574 -23.257  0.00  0.00    -0.300 OA
ATOM      9  C   UNL d   1      28.852  16.260 -24.390  0.00  0.00     0.119 A 
ATOM     10  C   UNL d   1      28.075  15.461 -23.651  0.00  0.00     0.304 A 
ATOM     11  O   UNL d   1      28.124  15.896 -24.369  0.00  0.00    -0.300 OA
ATOM     12  C   UNL d   1      29.207  16.750 -24.947  0.00  0.00     0.026 A 
ATOM     13  C   UNL d   1      29.975  17.044 -24.814  0.00  0.00     0.004 A 
ENDBRANCH   4   5
ENDBRANCH   2   4
BRANCH   1  14
ATOM     14  C   UNL d   1      32.662  17.752 -23.738  0.00  0.00     0.101 C 
BRANCH  14  15
ATOM     15  S   UNL d   1      32.963  18.012 -24.460  0.00  0.00    -0.041 SA
BRANCH  15  16
ATOM     16  C   UNL d   1      32.987  18.330 -23.705  0.00  0.00     0.233 A 
ATOM     17  N   UNL d   1      32.767  19.105 -23.477  0.00  0.00    -0.029 NA
ATOM     18  C   UNL d   1      32.883  19.171 -22.669  0.00  0.00     0.788 A 
ATOM     19  N   UNL d   1      33.169  18.462 -22.386  0.00  0.00     0.050 NA
ATOM     20  N   UNL d   1      32.735  19.851 -22.211  0.00  0.00     0.064 N 
ATOM     21  N   UNL d   1      33.239  17.932 -23.010  0.00  0.00    -0.105 NA
ENDBRANCH  15  16
ENDBRANCH  14  15
ENDBRANCH   1  14
TORSDOF 5
ENDMDL
MODEL 2
REMARK VINA RESULT:      -2.5      2.586      3.954
REMARK  5 active torsions:
REMARK  status: ('A' for Active; 'I' for Inactive)
REMARK    1  A    between atoms: S_9  and  C_2 
REMARK    2  A    between atoms: C_7  and  C_18 
REMARK       I    between atoms: N_13  and  C_7 
REMARK    3  A    between atoms: C_18  and  S_9 
REMARK    4  A    between atoms: C_20  and  N_13 
REMARK    5  A    between atoms: C_19  and  C_20 
ROOT
ATOM      1  C   UNL d   1      33.006  20.802 -22.286  0.00  0.00     0.286 C 
ATOM      2  N   UNL d   1      32.990  20.113 -22.746  0.00  0.00    -0.206 NA
ATOM      3  O   UNL d   1      33.240  21.520 -22.624  0.00  0.00    -0.265 OA
ENDROOT
BRANCH   2   4
ATOM      4  C   UNL d   1      32.752  19.381 -22.406  0.00  0.00     0.102 C 
BRANCH   4   5
ATOM      5  C   UNL d   1      32.728  18.689 -22.881  0.00  0.00     0.021 A 
ATOM      6  C   UNL d   1      32.229  18.650 -23.545  0.00  0.00     0.028 A 
ATOM      7  C   UNL d   1      32.215  17.958 -24.006  0.00  0.00     0.119 A 
ATOM      8  O   UNL d   1      31.795  17.755 -24.674  0.00  0.00    -0.300 OA
ATOM      9  C   UNL d   1      32.695  17.320 -23.801  0.00  0.00     0.119 A 
ATOM     10  C   UNL d   1      31.998  17.000 -24.898  0.00  0.00     0.304 A 
ATOM     11  O   UNL d   1      32.569  16.725 -24.344  0.00  0.00    -0.300 OA
ATOM     12  C   UNL d   1      33.185  17.369 -23.143  0.00  0.00     0.026 A 
ATOM     13  C   UNL d   1      33.195  18.064 -22.684  0.00  0.00     0.004 A 
ENDBRANCH   4   5
ENDBRANCH   2   4
BRANCH   1  14
ATOM     14  C   UNL d   1      32.787  20.759 -21.492  0.00  0.00     0.101 C 
BRANCH  14  15
ATOM     15  S   UNL d   1      33.241  20.351 -20.937  0.00  0.00    -0.041 SA
BRANCH  15  16
ATOM     16  C   UNL d   1      32.737  20.994 -20.874  0.00  0.00     0.233 A 
ATOM     17  N   UNL d   1      32.914  21.743 -20.543  0.00  0.00    -0.029 NA
ATOM     18  C   UNL d   1      32.242  22.208 -20.601  0.00  0.00     0.788 A 
ATOM     19  N   UNL d   1      31.652  21.772 -20.958  0.00  0.00     0.050 NA
ATOM     20  N   UNL d   1      32.172  22.996 -20.340  0.00  0.00     0.064 N 
ATOM     21  N   UNL d   1      31.939  21.024 -21.132  0.00  0.00    -0.105 NA
ENDBRANCH  15  16
ENDBRANCH  14  15
ENDBRANCH   1  14
TORSDOF 5
ENDMDL
MODEL 3
REMARK VINA RESULT:      -2.1      2.353      4.532
REMARK  5 active torsions:
REMARK  status: ('A' for Active; 'I' for Inactive)
REMARK    1  A    between atoms: S_9  and  C_2 
REMARK    2  A    between atoms: C_7  and  C_18 
REMARK       I    between atoms: N_13  and  C_7 
REMARK    3  A    between atoms: C_18  and  S_9 
REMARK    4  A    between atoms: C_20  and  N_13 
REMARK    5  A    between atoms: C_19  and  C_20 
ROOT
ATOM      1  C   UNL d   1      29.158  17.088 -24.790  0.00  0.00     0.286 C 
ATOM      2  N   UNL d   1      29.878  17.492 -24.863  0.00  0.00    -0.206 NA
ATOM      3  O   UNL d   1      28.448  17.471 -24.973  0.00  0.00    -0.265 OA
ENDROOT
BRANCH   2   4
ATOM      4  C   UNL d   1      30.602  17.106 -24.678  0.00  0.00     0.102 C 
BRANCH   4   5
ATOM      5  C   UNL d   1      31.282  17.563 -24.492  0.00  0.00     0.021 A 
ATOM      6  C   UNL d   1      31.486  18.224 -24.953  0.00  0.00     0.028 A 
ATOM      7  C   UNL d   1      32.162  18.667 -24.758  0.00  0.00     0.119 A 
ATOM      8  O   UNL d   1      32.498  19.328 -25.094  0.00  0.00    -0.300 OA
ATOM      9  C   UNL d   1      32.622  18.447 -24.110  0.00  0.00     0.119 A 
ATOM     10  C   UNL d   1      33.164  19.533 -24.674  0.00  0.00     0.304 A 
ATOM     11  O   UNL d   1      33.241  18.973 -24.050  0.00  0.00    -0.300 OA
ATOM     12  C   UNL d   1      32.411  17.791 -23.661  0.00  0.00     0.026 A 
ATOM     13  C   UNL d   1      31.733  17.350 -23.861  0.00  0.00     0.004 A 
ENDBRANCH   4   5
ENDBRANCH   2   4
BRANCH   1  14
ATOM     14  C   UNL d   1      29.164  16.303 -24.535  0.00  0.00     0.101 C 
BRANCH  14  15
ATOM     15  S   UNL d   1      29.261  15.675 -25.061  0.00  0.00    -0.041 SA
BRANCH  15  16
ATOM     16  C   UNL d   1      28.900  15.731 -24.327  0.00  0.00     0.233 A 
ATOM     17  N   UNL d   1      29.197  15.453 -23.596  0.00  0.00    -0.029 NA
ATOM     18  C   UNL d   1      28.646  15.632 -23.016  0.00  0.00     0.788 A 
ATOM     19  N   UNL d   1      28.014  16.013 -23.365  0.00  0.00     0.050 NA
ATOM     20  N   UNL d   1      28.718  15.455 -22.206  0.00  0.00     0.064 N 
ATOM     21  N   UNL d   1      28.153  16.082 -24.170  0.00  0.00    -0.105 NA
ENDBRANCH  15  16
ENDBRANCH  14  15
ENDBRANCH   1  14
TORSDOF 5
ENDMDL
