MODEL 1
REMARK VINA RESULT:      -7.1      0.000      0.000
REMARK  6 active torsions:
REMARK  status: ('A' for Active; 'I' for Inactive)
REMARK    1  A    between atoms: C_4  and  C_1 
REMARK    2  A    between atoms: C_3  and  C_7 
REMARK    3  A    between atoms: O_18  and  C_3 
REMARK    4  A    between atoms: C_9  and  C_4 
REMARK    5  A    between atoms: O_13  and  C_9 
REMARK    6  A    between atoms: C_15  and  O_13 
ROOT
ATOM      1  C   UNL d   1     -48.720  12.322  23.088  0.00  0.00     0.165 C 
ENDROOT
BRANCH   1   2
ATOM      2  C   UNL d   1     -49.530  12.402  23.131  0.00  0.00     0.223 C 
ATOM      3  O   UNL d   1     -49.987  11.838  23.523  0.00  0.00    -0.284 OA
BRANCH   2   4
ATOM      4  C   UNL d   1     -49.898  13.074  22.765  0.00  0.00     0.080 A 
ATOM      5  C   UNL d   1     -50.236  12.987  22.029  0.00  0.00     0.202 A 
ATOM      6  C   UNL d   1     -50.603  13.646  21.656  0.00  0.00     0.084 A 
ATOM      7  O   UNL d   1     -50.211  12.245  21.659  0.00  0.00    -0.286 OA
ATOM      8  C   UNL d   1     -50.609  14.369  22.053  0.00  0.00     0.199 A 
ATOM      9  C   UNL d   1     -50.263  14.449  22.801  0.00  0.00     0.042 A 
ATOM     10  O   UNL d   1     -50.977  15.027  21.680  0.00  0.00    -0.286 OA
ATOM     11  C   UNL d   1     -49.912  13.803  23.150  0.00  0.00     0.010 A 
ENDBRANCH   2   4
ENDBRANCH   1   2
BRANCH   1  12
ATOM     12  O   UNL d   1     -48.308  11.923  23.675  0.00  0.00    -0.302 OA
BRANCH  12  13
ATOM     13  C   UNL d   1     -47.496  11.784  23.589  0.00  0.00     0.100 A 
ATOM     14  C   UNL d   1     -46.988  12.406  23.400  0.00  0.00     0.025 A 
ATOM     15  C   UNL d   1     -46.196  12.274  23.316  0.00  0.00     0.007 A 
ATOM     16  C   UNL d   1     -45.875  11.504  23.418  0.00  0.00     0.063 A 
ATOM     17  C   UNL d   1     -46.383  10.881  23.607  0.00  0.00     0.007 A 
ATOM     18  C   UNL d   1     -47.208  11.032  23.692  0.00  0.00     0.025 A 
BRANCH  16  19
ATOM     19  C   UNL d   1     -45.054  11.377  23.329  0.00  0.00     0.296 C 
ATOM     20  O   UNL d   1     -44.589  11.898  22.889  0.00  0.00    -0.259 OA
BRANCH  19  21
ATOM     21  O   UNL d   1     -44.716  10.707  23.698  0.00  0.00    -0.296 OA
ATOM     22  C   UNL d   1     -44.032  10.357  23.398  0.00  0.00     0.185 C 
ENDBRANCH  19  21
ENDBRANCH  16  19
ENDBRANCH  12  13
ENDBRANCH   1  12
TORSDOF 6
ENDMDL
MODEL 2
REMARK VINA RESULT:      -6.7      1.030      1.434
REMARK  6 active torsions:
REMARK  status: ('A' for Active; 'I' for Inactive)
REMARK    1  A    between atoms: C_4  and  C_1 
REMARK    2  A    between atoms: C_3  and  C_7 
REMARK    3  A    between atoms: O_18  and  C_3 
REMARK    4  A    between atoms: C_9  and  C_4 
REMARK    5  A    between atoms: O_13  and  C_9 
REMARK    6  A    between atoms: C_15  and  O_13 
ROOT
ATOM      1  C   UNL d   1     -48.278  13.096  23.053  0.00  0.00     0.165 C 
ENDROOT
BRANCH   1   2
ATOM      2  C   UNL d   1     -49.068  13.074  23.255  0.00  0.00     0.223 C 
ATOM      3  O   UNL d   1     -49.372  12.447  23.696  0.00  0.00    -0.284 OA
BRANCH   2   4
ATOM      4  C   UNL d   1     -49.575  13.708  23.004  0.00  0.00     0.080 A 
ATOM      5  C   UNL d   1     -50.118  13.567  22.414  0.00  0.00     0.202 A 
ATOM      6  C   UNL d   1     -50.626  14.187  22.156  0.00  0.00     0.084 A 
ATOM      7  O   UNL d   1     -50.161  12.811  22.076  0.00  0.00    -0.286 OA
ATOM      8  C   UNL d   1     -50.556  14.927  22.514  0.00  0.00     0.199 A 
ATOM      9  C   UNL d   1     -50.001  15.062  23.113  0.00  0.00     0.042 A 
ATOM     10  O   UNL d   1     -51.064  15.546  22.256  0.00  0.00    -0.286 OA
ATOM     11  C   UNL d   1     -49.516  14.453  23.353  0.00  0.00     0.010 A 
ENDBRANCH   2   4
ENDBRANCH   1   2
BRANCH   1  12
ATOM     12  O   UNL d   1     -47.724  12.676  23.489  0.00  0.00    -0.302 OA
BRANCH  12  13
ATOM     13  C   UNL d   1     -46.946  12.608  23.214  0.00  0.00     0.100 A 
ATOM     14  C   UNL d   1     -46.533  11.902  23.316  0.00  0.00     0.025 A 
ATOM     15  C   UNL d   1     -45.773  11.832  23.049  0.00  0.00     0.007 A 
ATOM     16  C   UNL d   1     -45.393  12.474  22.663  0.00  0.00     0.063 A 
ATOM     17  C   UNL d   1     -45.806  13.181  22.561  0.00  0.00     0.007 A 
ATOM     18  C   UNL d   1     -46.598  13.242  22.844  0.00  0.00     0.025 A 
BRANCH  16  19
ATOM     19  C   UNL d   1     -44.607  12.393  22.390  0.00  0.00     0.296 C 
ATOM     20  O   UNL d   1     -44.130  11.771  22.649  0.00  0.00    -0.259 OA
BRANCH  19  21
ATOM     21  O   UNL d   1     -44.318  12.959  21.847  0.00  0.00    -0.296 OA
ATOM     22  C   UNL d   1     -43.609  12.837  21.444  0.00  0.00     0.185 C 
ENDBRANCH  19  21
ENDBRANCH  16  19
ENDBRANCH  12  13
ENDBRANCH   1  12
TORSDOF 6
ENDMDL
MODEL 3
REMARK VINA RESULT:      -6.4      1.553      2.067
REMARK  6 active torsions:
REMARK  status: ('A' for Active; 'I' for Inactive)
REMARK    1  A    between atoms: C_4  and  C_1 
REMARK    2  A    between atoms: C_3  and  C_7 
REMARK    3  A    between atoms: O_18  and  C_3 
REMARK    4  A    between atoms: C_9  and  C_4 
REMARK    5  A    between atoms: O_13  and  C_9 
REMARK    6  A    between atoms: C_15  and  O_13 
ROOT
ATOM      1  C   UNL d   1     -47.642  13.282  22.608  0.00  0.00     0.165 C 
ENDROOT
BRANCH   1   2
ATOM      2  C   UNL d   1     -48.368  13.589  22.817  0.00  0.00     0.223 C 
ATOM      3  O   UNL d   1     -48.436  14.113  23.450  0.00  0.00    -0.284 OA
BRANCH   2   4
ATOM      4  C   UNL d   1     -49.055  13.360  22.373  0.00  0.00     0.080 A 
ATOM      5  C   UNL d   1     -49.492  13.936  21.999  0.00  0.00     0.202 A 
ATOM      6  C   UNL d   1     -50.175  13.721  21.556  0.00  0.00     0.084 A 
ATOM      7  O   UNL d   1     -49.255  14.728  22.062  0.00  0.00    -0.286 OA
ATOM      8  C   UNL d   1     -50.382  12.923  21.514  0.00  0.00     0.199 A 
ATOM      9  C   UNL d   1     -49.931  12.344  21.897  0.00  0.00     0.042 A 
ATOM     10  O   UNL d   1     -51.064  12.710  21.070  0.00  0.00    -0.286 OA
ATOM     11  C   UNL d   1     -49.274  12.566  22.322  0.00  0.00     0.010 A 
ENDBRANCH   2   4
ENDBRANCH   1   2
BRANCH   1  12
ATOM     12  O   UNL d   1     -46.985  13.403  23.085  0.00  0.00    -0.302 OA
BRANCH  12  13
ATOM     13  C   UNL d   1     -46.238  13.151  22.832  0.00  0.00     0.100 A 
ATOM     14  C   UNL d   1     -45.805  13.611  22.301  0.00  0.00     0.025 A 
ATOM     15  C   UNL d   1     -45.076  13.368  22.052  0.00  0.00     0.007 A 
ATOM     16  C   UNL d   1     -44.746  12.646  22.328  0.00  0.00     0.063 A 
ATOM     17  C   UNL d   1     -45.179  12.186  22.858  0.00  0.00     0.007 A 
ATOM     18  C   UNL d   1     -45.939  12.450  23.111  0.00  0.00     0.025 A 
BRANCH  16  19
ATOM     19  C   UNL d   1     -43.991  12.403  22.064  0.00  0.00     0.296 C 
ATOM     20  O   UNL d   1     -43.640  11.717  22.357  0.00  0.00    -0.259 OA
BRANCH  19  21
ATOM     21  O   UNL d   1     -43.601  12.876  21.495  0.00  0.00    -0.296 OA
ATOM     22  C   UNL d   1     -42.831  12.703  21.255  0.00  0.00     0.185 C 
ENDBRANCH  19  21
ENDBRANCH  16  19
ENDBRANCH  12  13
ENDBRANCH   1  12
TORSDOF 6
ENDMDL
MODEL 4
REMARK VINA RESULT:      -6.2      9.020     10.239
REMARK  6 active torsions:
REMARK  status: ('A' for Active; 'I' for Inactive)
REMARK    1  A    between atoms: C_4  and  C_1 
REMARK    2  A    between atoms: C_3  and  C_7 
REMARK    3  A    between atoms: O_18  and  C_3 
REMARK    4  A    between atoms: C_9  and  C_4 
REMARK    5  A    between atoms: O_13  and  C_9 
REMARK    6  A    between atoms: C_15  and  O_13 
ROOT
ATOM      1  C   UNL d   1     -39.834  14.432  18.915  0.00  0.00     0.165 C 
ENDROOT
BRANCH   1   2
ATOM      2  C   UNL d   1     -40.125  14.175  18.198  0.00  0.00     0.223 C 
ATOM      3  O   UNL d   1     -40.933  14.040  18.096  0.00  0.00    -0.284 OA
BRANCH   2   4
ATOM      4  C   UNL d   1     -39.583  14.047  17.557  0.00  0.00     0.080 A 
ATOM      5  C   UNL d   1     -39.591  14.561  16.925  0.00  0.00     0.202 A 
ATOM      6  C   UNL d   1     -39.059  14.445  16.284  0.00  0.00     0.084 A 
ATOM      7  O   UNL d   1     -40.127  15.194  16.927  0.00  0.00    -0.286 OA
ATOM      8  C   UNL d   1     -38.539  13.805  16.315  0.00  0.00     0.199 A 
ATOM      9  C   UNL d   1     -38.538  13.286  16.960  0.00  0.00     0.042 A 
ATOM     10  O   UNL d   1     -38.008  13.689  15.673  0.00  0.00    -0.286 OA
ATOM     11  C   UNL d   1     -39.058  13.411  17.574  0.00  0.00     0.010 A 
ENDBRANCH   2   4
ENDBRANCH   1   2
BRANCH   1  12
ATOM     12  O   UNL d   1     -40.341  14.570  19.546  0.00  0.00    -0.302 OA
BRANCH  12  13
ATOM     13  C   UNL d   1     -40.033  14.754  20.292  0.00  0.00     0.100 A 
ATOM     14  C   UNL d   1     -39.832  15.533  20.475  0.00  0.00     0.025 A 
ATOM     15  C   UNL d   1     -39.531  15.716  21.202  0.00  0.00     0.007 A 
ATOM     16  C   UNL d   1     -39.418  15.120  21.783  0.00  0.00     0.063 A 
ATOM     17  C   UNL d   1     -39.619  14.341  21.600  0.00  0.00     0.007 A 
ATOM     18  C   UNL d   1     -39.932  14.162  20.838  0.00  0.00     0.025 A 
BRANCH  16  19
ATOM     19  C   UNL d   1     -39.106  15.319  22.532  0.00  0.00     0.296 C 
ATOM     20  O   UNL d   1     -39.441  15.922  22.985  0.00  0.00    -0.259 OA
BRANCH  19  21
ATOM     21  O   UNL d   1     -38.444  14.890  22.810  0.00  0.00    -0.296 OA
ATOM     22  C   UNL d   1     -38.006  15.157  23.456  0.00  0.00     0.185 C 
ENDBRANCH  19  21
ENDBRANCH  16  19
ENDBRANCH  12  13
ENDBRANCH   1  12
TORSDOF 6
ENDMDL
MODEL 5
REMARK VINA RESULT:      -5.5      9.220     10.157
REMARK  6 active torsions:
REMARK  status: ('A' for Active; 'I' for Inactive)
REMARK    1  A    between atoms: C_4  and  C_1 
REMARK    2  A    between atoms: C_3  and  C_7 
REMARK    3  A    between atoms: O_18  and  C_3 
REMARK    4  A    between atoms: C_9  and  C_4 
REMARK    5  A    between atoms: O_13  and  C_9 
REMARK    6  A    between atoms: C_15  and  O_13 
ROOT
ATOM      1  C   UNL d   1     -39.067  15.141  18.972  0.00  0.00     0.165 C 
ENDROOT
BRANCH   1   2
ATOM      2  C   UNL d   1     -39.064  15.536  18.259  0.00  0.00     0.223 C 
ATOM      3  O   UNL d   1     -38.383  15.919  17.994  0.00  0.00    -0.284 OA
BRANCH   2   4
ATOM      4  C   UNL d   1     -39.774  15.549  17.793  0.00  0.00     0.080 A 
ATOM      5  C   UNL d   1     -39.768  15.201  17.057  0.00  0.00     0.202 A 
ATOM      6  C   UNL d   1     -40.465  15.207  16.586  0.00  0.00     0.084 A 
ATOM      7  O   UNL d   1     -39.071  14.845  16.784  0.00  0.00    -0.286 OA
ATOM      8  C   UNL d   1     -41.142  15.570  16.888  0.00  0.00     0.199 A 
ATOM      9  C   UNL d   1     -41.139  15.922  17.637  0.00  0.00     0.042 A 
ATOM     10  O   UNL d   1     -41.838  15.576  16.416  0.00  0.00    -0.286 OA
ATOM     11  C   UNL d   1     -40.458  15.909  18.083  0.00  0.00     0.010 A 
ENDBRANCH   2   4
ENDBRANCH   1   2
BRANCH   1  12
ATOM     12  O   UNL d   1     -38.392  15.116  19.439  0.00  0.00    -0.302 OA
BRANCH  12  13
ATOM     13  C   UNL d   1     -38.391  14.681  20.143  0.00  0.00     0.100 A 
ATOM     14  C   UNL d   1     -38.335  13.858  20.120  0.00  0.00     0.025 A 
ATOM     15  C   UNL d   1     -38.334  13.431  20.806  0.00  0.00     0.007 A 
ATOM     16  C   UNL d   1     -38.390  13.814  21.551  0.00  0.00     0.063 A 
ATOM     17  C   UNL d   1     -38.446  14.637  21.575  0.00  0.00     0.007 A 
ATOM     18  C   UNL d   1     -38.446  15.072  20.852  0.00  0.00     0.025 A 
BRANCH  16  19
ATOM     19  C   UNL d   1     -38.388  13.363  22.255  0.00  0.00     0.296 C 
ATOM     20  O   UNL d   1     -37.941  12.673  22.316  0.00  0.00    -0.259 OA
BRANCH  19  21
ATOM     21  O   UNL d   1     -38.854  13.632  22.896  0.00  0.00    -0.296 OA
ATOM     22  C   UNL d   1     -38.820  13.258  23.631  0.00  0.00     0.185 C 
ENDBRANCH  19  21
ENDBRANCH  16  19
ENDBRANCH  12  13
ENDBRANCH   1  12
TORSDOF 6
ENDMDL
