MODEL 1
REMARK VINA RESULT:      -3.2      0.000      0.000
REMARK  2 active torsions:
REMARK  status: ('A' for Active; 'I' for Inactive)
REMARK    1  A    between atoms: C_9  and  C_3 
REMARK    2  A    between atoms: C_12  and  N_4 
ROOT
ATOM      1  C   UNL d   1      31.700  16.911 -24.238  0.00  0.00     0.035 A 
ATOM      2  C   UNL d   1      30.883  16.928 -24.348  0.00  0.00     0.065 A 
ATOM      3  C   UNL d   1      31.886  16.226 -23.828  0.00  0.00     0.166 A 
ATOM      4  N   UNL d   1      30.570  16.250 -24.002  0.00  0.00    -0.233 N 
ATOM      5  N   UNL d   1      31.190  15.818 -23.682  0.00  0.00    -0.159 NA
ATOM      6  C   UNL d   1      30.962  17.567 -24.701  0.00  0.00     0.057 A 
ATOM      7  C   UNL d   1      31.826  17.608 -24.618  0.00  0.00    -0.020 A 
ATOM      8  C   UNL d   1      32.441  18.033 -24.784  0.00  0.00     0.027 A 
ATOM      9  C   UNL d   1      30.426  18.050 -25.040  0.00  0.00    -0.021 A 
ATOM     10  C   UNL d   1      31.179  18.050 -24.948  0.00  0.00    -0.008 A 
ATOM     11  C   UNL d   1      30.226  17.450 -24.724  0.00  0.00     0.011 C 
ATOM     12  C   UNL d   1      33.127  17.817 -24.578  0.00  0.00     0.005 C 
ATOM     13  C   UNL d   1      32.737  18.647 -25.096  0.00  0.00     0.005 C 
ENDROOT
BRANCH   4  14
ATOM     14  C   UNL d   1      29.753  16.037 -23.981  0.00  0.00     0.083 A 
ATOM     15  C   UNL d   1      29.400  15.663 -24.658  0.00  0.00     0.019 A 
ATOM     16  C   UNL d   1      28.588  15.453 -24.633  0.00  0.00     0.002 A 
ATOM     17  C   UNL d   1      28.128  15.609 -23.948  0.00  0.00     0.000 A 
ATOM     18  C   UNL d   1      28.486  15.984 -23.272  0.00  0.00     0.002 A 
ATOM     19  C   UNL d   1      29.298  16.193 -23.301  0.00  0.00     0.019 A 
ENDBRANCH   4  14
BRANCH   3  20
ATOM     20  C   UNL d   1      32.659  15.987 -23.598  0.00  0.00     0.231 C 
ATOM     21  O   UNL d   1      32.997  16.259 -22.871  0.00  0.00    -0.643 OA
ATOM     22  O   UNL d   1      33.101  15.468 -24.100  0.00  0.00    -0.643 OA
ENDBRANCH   3  20
TORSDOF 2
ENDMDL
MODEL 2
REMARK VINA RESULT:      -2.5      1.923      3.901
REMARK  2 active torsions:
REMARK  status: ('A' for Active; 'I' for Inactive)
REMARK    1  A    between atoms: C_9  and  C_3 
REMARK    2  A    between atoms: C_12  and  N_4 
ROOT
ATOM      1  C   UNL d   1      29.409  16.976 -23.897  0.00  0.00     0.035 A 
ATOM      2  C   UNL d   1      30.199  16.740 -23.879  0.00  0.00     0.065 A 
ATOM      3  C   UNL d   1      29.379  17.736 -24.202  0.00  0.00     0.166 A 
ATOM      4  N   UNL d   1      30.653  17.359 -24.175  0.00  0.00    -0.233 N 
ATOM      5  N   UNL d   1      30.146  17.973 -24.374  0.00  0.00    -0.159 NA
ATOM      6  C   UNL d   1      29.981  16.097 -23.597  0.00  0.00     0.057 A 
ATOM      7  C   UNL d   1      29.132  16.286 -23.589  0.00  0.00    -0.020 A 
ATOM      8  C   UNL d   1      28.442  16.011 -23.409  0.00  0.00     0.027 A 
ATOM      9  C   UNL d   1      30.395  15.453 -23.376  0.00  0.00    -0.021 A 
ATOM     10  C   UNL d   1      29.664  15.654 -23.386  0.00  0.00    -0.008 A 
ATOM     11  C   UNL d   1      30.722  16.021 -23.639  0.00  0.00     0.011 C 
ATOM     12  C   UNL d   1      27.823  16.418 -23.513  0.00  0.00     0.005 C 
ATOM     13  C   UNL d   1      28.019  15.453 -23.141  0.00  0.00     0.005 C 
ENDROOT
BRANCH   4  14
ATOM     14  C   UNL d   1      31.492  17.361 -24.259  0.00  0.00     0.083 A 
ATOM     15  C   UNL d   1      31.977  17.648 -23.622  0.00  0.00     0.019 A 
ATOM     16  C   UNL d   1      32.812  17.649 -23.710  0.00  0.00     0.002 A 
ATOM     17  C   UNL d   1      33.166  17.369 -24.418  0.00  0.00     0.000 A 
ATOM     18  C   UNL d   1      32.676  17.082 -25.054  0.00  0.00     0.002 A 
ATOM     19  C   UNL d   1      31.842  17.083 -24.962  0.00  0.00     0.019 A 
ENDBRANCH   4  14
BRANCH   3  20
ATOM     20  C   UNL d   1      28.682  18.192 -24.317  0.00  0.00     0.231 C 
ATOM     21  O   UNL d   1      28.387  18.340 -25.097  0.00  0.00    -0.643 OA
ATOM     22  O   UNL d   1      28.273  18.504 -23.646  0.00  0.00    -0.643 OA
ENDBRANCH   3  20
TORSDOF 2
ENDMDL
MODEL 3
REMARK VINA RESULT:      -1.7      1.533      3.405
REMARK  2 active torsions:
REMARK  status: ('A' for Active; 'I' for Inactive)
REMARK    1  A    between atoms: C_9  and  C_3 
REMARK    2  A    between atoms: C_12  and  N_4 
ROOT
ATOM      1  C   UNL d   1      31.958  16.869 -23.763  0.00  0.00     0.035 A 
ATOM      2  C   UNL d   1      31.907  17.691 -23.715  0.00  0.00     0.065 A 
ATOM      3  C   UNL d   1      32.709  16.648 -23.520  0.00  0.00     0.166 A 
ATOM      4  N   UNL d   1      32.630  17.972 -23.441  0.00  0.00    -0.233 N 
ATOM      5  N   UNL d   1      33.124  17.327 -23.321  0.00  0.00    -0.159 NA
ATOM      6  C   UNL d   1      31.215  17.643 -23.959  0.00  0.00     0.057 A 
ATOM      7  C   UNL d   1      31.206  16.777 -24.032  0.00  0.00    -0.020 A 
ATOM      8  C   UNL d   1      30.770  16.181 -24.231  0.00  0.00     0.027 A 
ATOM      9  C   UNL d   1      30.669  18.206 -24.103  0.00  0.00    -0.021 A 
ATOM     10  C   UNL d   1      30.700  17.450 -24.153  0.00  0.00    -0.008 A 
ATOM     11  C   UNL d   1      31.313  18.377 -23.866  0.00  0.00     0.011 C 
ATOM     12  C   UNL d   1      31.032  15.481 -24.197  0.00  0.00     0.005 C 
ATOM     13  C   UNL d   1      30.115  15.914 -24.480  0.00  0.00     0.005 C 
ENDROOT
BRANCH   4  14
ATOM     14  C   UNL d   1      32.828  18.781 -23.307  0.00  0.00     0.083 A 
ATOM     15  C   UNL d   1      33.044  19.274 -23.964  0.00  0.00     0.019 A 
ATOM     16  C   UNL d   1      33.241  20.079 -23.827  0.00  0.00     0.002 A 
ATOM     17  C   UNL d   1      33.224  20.394 -23.049  0.00  0.00     0.000 A 
ATOM     18  C   UNL d   1      33.007  19.896 -22.392  0.00  0.00     0.002 A 
ATOM     19  C   UNL d   1      32.811  19.093 -22.534  0.00  0.00     0.019 A 
ENDBRANCH   4  14
BRANCH   3  20
ATOM     20  C   UNL d   1      33.001  15.860 -23.482  0.00  0.00     0.231 C 
ATOM     21  O   UNL d   1      33.241  15.454 -24.185  0.00  0.00    -0.643 OA
ATOM     22  O   UNL d   1      33.054  15.472 -22.732  0.00  0.00    -0.643 OA
ENDBRANCH   3  20
TORSDOF 2
ENDMDL
MODEL 4
REMARK VINA RESULT:      -1.1      5.886      7.038
REMARK  2 active torsions:
REMARK  status: ('A' for Active; 'I' for Inactive)
REMARK    1  A    between atoms: C_9  and  C_3 
REMARK    2  A    between atoms: C_12  and  N_4 
ROOT
ATOM      1  C   UNL d   1      32.789  21.837 -21.665  0.00  0.00     0.035 A 
ATOM      2  C   UNL d   1      32.807  22.482 -21.152  0.00  0.00     0.065 A 
ATOM      3  C   UNL d   1      32.610  21.169 -21.226  0.00  0.00     0.166 A 
ATOM      4  N   UNL d   1      32.638  22.205 -20.396  0.00  0.00    -0.233 N 
ATOM      5  N   UNL d   1      32.516  21.395 -20.443  0.00  0.00    -0.159 NA
ATOM      6  C   UNL d   1      32.971  22.911 -21.726  0.00  0.00     0.057 A 
ATOM      7  C   UNL d   1      32.967  22.274 -22.317  0.00  0.00    -0.020 A 
ATOM      8  C   UNL d   1      33.066  22.123 -23.060  0.00  0.00     0.027 A 
ATOM      9  C   UNL d   1      33.104  23.695 -21.774  0.00  0.00    -0.021 A 
ATOM     10  C   UNL d   1      33.091  23.113 -22.260  0.00  0.00    -0.008 A 
ATOM     11  C   UNL d   1      32.952  23.391 -21.155  0.00  0.00     0.011 C 
ATOM     12  C   UNL d   1      33.000  21.428 -23.327  0.00  0.00     0.005 C 
ATOM     13  C   UNL d   1      33.220  22.365 -23.754  0.00  0.00     0.005 C 
ENDROOT
BRANCH   4  14
ATOM     14  C   UNL d   1      32.596  22.674 -19.695  0.00  0.00     0.083 A 
ATOM     15  C   UNL d   1      31.893  23.123 -19.533  0.00  0.00     0.019 A 
ATOM     16  C   UNL d   1      31.856  23.588 -18.834  0.00  0.00     0.002 A 
ATOM     17  C   UNL d   1      32.505  23.609 -18.302  0.00  0.00     0.000 A 
ATOM     18  C   UNL d   1      33.207  23.156 -18.469  0.00  0.00     0.002 A 
ATOM     19  C   UNL d   1      33.241  22.694 -19.168  0.00  0.00     0.019 A 
ENDBRANCH   4  14
BRANCH   3  20
ATOM     20  C   UNL d   1      32.536  20.388 -21.529  0.00  0.00     0.231 C 
ATOM     21  O   UNL d   1      33.213  19.885 -21.599  0.00  0.00    -0.643 OA
ATOM     22  O   UNL d   1      31.774  20.104 -21.765  0.00  0.00    -0.643 OA
ENDBRANCH   3  20
TORSDOF 2
ENDMDL
MODEL 5
REMARK VINA RESULT:      -0.8      3.630      4.844
REMARK  2 active torsions:
REMARK  status: ('A' for Active; 'I' for Inactive)
REMARK    1  A    between atoms: C_9  and  C_3 
REMARK    2  A    between atoms: C_12  and  N_4 
ROOT
ATOM      1  C   UNL d   1      32.795  21.022 -22.342  0.00  0.00     0.035 A 
ATOM      2  C   UNL d   1      32.874  20.437 -22.917  0.00  0.00     0.065 A 
ATOM      3  C   UNL d   1      32.582  20.660 -21.639  0.00  0.00     0.166 A 
ATOM      4  N   UNL d   1      32.708  19.714 -22.562  0.00  0.00    -0.233 N 
ATOM      5  N   UNL d   1      32.529  19.852 -21.773  0.00  0.00    -0.159 NA
ATOM      6  C   UNL d   1      33.049  20.961 -23.401  0.00  0.00     0.057 A 
ATOM      7  C   UNL d   1      32.983  21.624 -22.842  0.00  0.00    -0.020 A 
ATOM      8  C   UNL d   1      33.048  22.383 -22.777  0.00  0.00     0.027 A 
ATOM      9  C   UNL d   1      33.236  20.921 -24.175  0.00  0.00    -0.021 A 
ATOM     10  C   UNL d   1      33.168  21.472 -23.658  0.00  0.00    -0.008 A 
ATOM     11  C   UNL d   1      33.082  20.337 -23.808  0.00  0.00     0.011 C 
ATOM     12  C   UNL d   1      32.924  22.728 -22.125  0.00  0.00     0.005 C 
ATOM     13  C   UNL d   1      33.197  23.048 -23.090  0.00  0.00     0.005 C 
ENDROOT
BRANCH   4  14
ATOM     14  C   UNL d   1      32.721  18.960 -22.943  0.00  0.00     0.083 A 
ATOM     15  C   UNL d   1      33.209  18.339 -22.628  0.00  0.00     0.019 A 
ATOM     16  C   UNL d   1      33.219  17.592 -23.010  0.00  0.00     0.002 A 
ATOM     17  C   UNL d   1      32.753  17.458 -23.696  0.00  0.00     0.000 A 
ATOM     18  C   UNL d   1      32.267  18.083 -24.008  0.00  0.00     0.002 A 
ATOM     19  C   UNL d   1      32.259  18.829 -23.624  0.00  0.00     0.019 A 
ENDBRANCH   4  14
BRANCH   3  20
ATOM     20  C   UNL d   1      32.444  21.050 -20.907  0.00  0.00     0.231 C 
ATOM     21  O   UNL d   1      33.070  21.154 -20.347  0.00  0.00    -0.643 OA
ATOM     22  O   UNL d   1      31.669  21.342 -20.731  0.00  0.00    -0.643 OA
ENDBRANCH   3  20
TORSDOF 2
ENDMDL
