MODEL 1
REMARK VINA RESULT:      -3.1      0.000      0.000
REMARK  2 active torsions:
REMARK  status: ('A' for Active; 'I' for Inactive)
REMARK    1  A    between atoms: C_6  and  C_3 
REMARK    2  A    between atoms: C_9  and  C_6 
ROOT
ATOM      1  N   UNL d   1      33.201  22.580 -19.128  0.00  0.00    -0.225 NA
ATOM      2  N   UNL d   1      32.514  23.702 -19.375  0.00  0.00    -0.225 NA
ATOM      3  C   UNL d   1      32.961  23.301 -18.813  0.00  0.00     0.163 A 
ATOM      4  C   UNL d   1      32.908  22.532 -19.875  0.00  0.00     0.101 A 
ATOM      5  C   UNL d   1      32.476  23.237 -20.030  0.00  0.00     0.101 A 
ATOM      6  C   UNL d   1      32.961  21.958 -20.449  0.00  0.00     0.021 A 
ATOM      7  C   UNL d   1      32.117  23.338 -20.752  0.00  0.00     0.021 A 
ATOM      8  C   UNL d   1      32.596  22.052 -21.191  0.00  0.00     0.002 A 
ATOM      9  C   UNL d   1      32.165  22.757 -21.346  0.00  0.00     0.002 A 
ENDROOT
BRANCH   3  10
ATOM     10  C   UNL d   1      33.140  23.577 -18.057  0.00  0.00     0.039 C 
BRANCH  10  11
ATOM     11  C   UNL d   1      32.678  23.365 -17.413  0.00  0.00     0.003 C 
ATOM     12  C   UNL d   1      32.867  23.628 -16.654  0.00  0.00     0.000 C 
ENDBRANCH  10  11
ENDBRANCH   3  10
TORSDOF 2
ENDMDL
MODEL 2
REMARK VINA RESULT:      -2.9      2.380      3.956
REMARK  2 active torsions:
REMARK  status: ('A' for Active; 'I' for Inactive)
REMARK    1  A    between atoms: C_6  and  C_3 
REMARK    2  A    between atoms: C_9  and  C_6 
ROOT
ATOM      1  N   UNL d   1      32.583  20.718 -21.081  0.00  0.00    -0.225 NA
ATOM      2  N   UNL d   1      33.220  21.142 -22.179  0.00  0.00    -0.225 NA
ATOM      3  C   UNL d   1      33.026  20.480 -21.732  0.00  0.00     0.163 A 
ATOM      4  C   UNL d   1      32.501  21.518 -21.122  0.00  0.00     0.101 A 
ATOM      5  C   UNL d   1      32.902  21.784 -21.812  0.00  0.00     0.101 A 
ATOM      6  C   UNL d   1      32.126  22.055 -20.642  0.00  0.00     0.021 A 
ATOM      7  C   UNL d   1      32.909  22.576 -21.992  0.00  0.00     0.021 A 
ATOM      8  C   UNL d   1      32.128  22.869 -20.818  0.00  0.00     0.002 A 
ATOM      9  C   UNL d   1      32.528  23.135 -21.508  0.00  0.00     0.002 A 
ENDROOT
BRANCH   3  10
ATOM     10  C   UNL d   1      33.241  19.703 -21.907  0.00  0.00     0.039 C 
BRANCH  10  11
ATOM     11  C   UNL d   1      32.955  19.331 -22.579  0.00  0.00     0.003 C 
ATOM     12  C   UNL d   1      33.115  18.534 -22.720  0.00  0.00     0.000 C 
ENDBRANCH  10  11
ENDBRANCH   3  10
TORSDOF 2
ENDMDL
MODEL 3
REMARK VINA RESULT:      -2.5      7.235      8.379
REMARK  2 active torsions:
REMARK  status: ('A' for Active; 'I' for Inactive)
REMARK    1  A    between atoms: C_6  and  C_3 
REMARK    2  A    between atoms: C_9  and  C_6 
ROOT
ATOM      1  N   UNL d   1      30.862  16.074 -23.474  0.00  0.00    -0.225 NA
ATOM      2  N   UNL d   1      30.317  16.984 -24.291  0.00  0.00    -0.225 NA
ATOM      3  C   UNL d   1      31.025  16.696 -23.987  0.00  0.00     0.163 A 
ATOM      4  C   UNL d   1      30.064  15.974 -23.459  0.00  0.00     0.101 A 
ATOM      5  C   UNL d   1      29.722  16.546 -23.973  0.00  0.00     0.101 A 
ATOM      6  C   UNL d   1      29.584  15.453 -23.060  0.00  0.00     0.021 A 
ATOM      7  C   UNL d   1      28.915  16.572 -24.065  0.00  0.00     0.021 A 
ATOM      8  C   UNL d   1      28.756  15.472 -23.148  0.00  0.00     0.002 A 
ATOM      9  C   UNL d   1      28.414  16.044 -23.661  0.00  0.00     0.002 A 
ENDROOT
BRANCH   3  10
ATOM     10  C   UNL d   1      31.776  16.985 -24.166  0.00  0.00     0.039 C 
BRANCH  10  11
ATOM     11  C   UNL d   1      32.155  17.510 -23.661  0.00  0.00     0.003 C 
ATOM     12  C   UNL d   1      32.893  17.823 -23.856  0.00  0.00     0.000 C 
ENDBRANCH  10  11
ENDBRANCH   3  10
TORSDOF 2
ENDMDL
MODEL 4
REMARK VINA RESULT:      -2.5      7.169      8.394
REMARK  2 active torsions:
REMARK  status: ('A' for Active; 'I' for Inactive)
REMARK    1  A    between atoms: C_6  and  C_3 
REMARK    2  A    between atoms: C_9  and  C_6 
ROOT
ATOM      1  N   UNL d   1      30.278  17.055 -24.360  0.00  0.00    -0.225 NA
ATOM      2  N   UNL d   1      30.937  16.218 -23.548  0.00  0.00    -0.225 NA
ATOM      3  C   UNL d   1      31.022  16.836 -24.084  0.00  0.00     0.163 A 
ATOM      4  C   UNL d   1      29.737  16.581 -24.001  0.00  0.00     0.101 A 
ATOM      5  C   UNL d   1      30.151  16.055 -23.491  0.00  0.00     0.101 A 
ATOM      6  C   UNL d   1      28.927  16.538 -24.052  0.00  0.00     0.021 A 
ATOM      7  C   UNL d   1      29.736  15.509 -23.055  0.00  0.00     0.021 A 
ATOM      8  C   UNL d   1      28.493  15.982 -23.609  0.00  0.00     0.002 A 
ATOM      9  C   UNL d   1      28.907  15.456 -23.099  0.00  0.00     0.002 A 
ENDROOT
BRANCH   3  10
ATOM     10  C   UNL d   1      31.737  17.180 -24.309  0.00  0.00     0.039 C 
BRANCH  10  11
ATOM     11  C   UNL d   1      32.032  17.833 -23.911  0.00  0.00     0.003 C 
ATOM     12  C   UNL d   1      32.747  18.177 -24.135  0.00  0.00     0.000 C 
ENDBRANCH  10  11
ENDBRANCH   3  10
TORSDOF 2
ENDMDL
MODEL 5
REMARK VINA RESULT:      -2.4      7.257      8.207
REMARK  2 active torsions:
REMARK  status: ('A' for Active; 'I' for Inactive)
REMARK    1  A    between atoms: C_6  and  C_3 
REMARK    2  A    between atoms: C_9  and  C_6 
ROOT
ATOM      1  N   UNL d   1      30.939  16.113 -23.555  0.00  0.00    -0.225 NA
ATOM      2  N   UNL d   1      30.441  17.052 -24.370  0.00  0.00    -0.225 NA
ATOM      3  C   UNL d   1      30.278  16.342 -23.989  0.00  0.00     0.163 A 
ATOM      4  C   UNL d   1      31.506  16.673 -23.665  0.00  0.00     0.101 A 
ATOM      5  C   UNL d   1      31.193  17.263 -24.176  0.00  0.00     0.101 A 
ATOM      6  C   UNL d   1      32.265  16.747 -23.382  0.00  0.00     0.021 A 
ATOM      7  C   UNL d   1      31.652  17.901 -24.383  0.00  0.00     0.021 A 
ATOM      8  C   UNL d   1      32.743  17.397 -23.588  0.00  0.00     0.002 A 
ATOM      9  C   UNL d   1      32.429  17.987 -24.099  0.00  0.00     0.002 A 
ENDROOT
BRANCH   3  10
ATOM     10  C   UNL d   1      29.567  15.926 -24.033  0.00  0.00     0.039 C 
BRANCH  10  11
ATOM     11  C   UNL d   1      28.941  16.112 -23.538  0.00  0.00     0.003 C 
ATOM     12  C   UNL d   1      28.229  15.697 -23.584  0.00  0.00     0.000 C 
ENDBRANCH  10  11
ENDBRANCH   3  10
TORSDOF 2
ENDMDL
MODEL 6
REMARK VINA RESULT:      -2.4      5.549      6.955
REMARK  2 active torsions:
REMARK  status: ('A' for Active; 'I' for Inactive)
REMARK    1  A    between atoms: C_6  and  C_3 
REMARK    2  A    between atoms: C_9  and  C_6 
ROOT
ATOM      1  N   UNL d   1      31.982  18.179 -23.883  0.00  0.00    -0.225 NA
ATOM      2  N   UNL d   1      32.810  17.418 -23.157  0.00  0.00    -0.225 NA
ATOM      3  C   UNL d   1      32.638  18.188 -23.388  0.00  0.00     0.163 A 
ATOM      4  C   UNL d   1      31.747  17.413 -23.961  0.00  0.00     0.101 A 
ATOM      5  C   UNL d   1      32.267  16.936 -23.504  0.00  0.00     0.101 A 
ATOM      6  C   UNL d   1      31.140  17.066 -24.374  0.00  0.00     0.021 A 
ATOM      7  C   UNL d   1      32.158  16.131 -23.482  0.00  0.00     0.021 A 
ATOM      8  C   UNL d   1      31.019  16.242 -24.357  0.00  0.00     0.002 A 
ATOM      9  C   UNL d   1      31.540  15.764 -23.901  0.00  0.00     0.002 A 
ENDROOT
BRANCH   3  10
ATOM     10  C   UNL d   1      33.057  18.862 -23.160  0.00  0.00     0.039 C 
BRANCH  10  11
ATOM     11  C   UNL d   1      32.890  19.238 -22.450  0.00  0.00     0.003 C 
ATOM     12  C   UNL d   1      33.240  19.962 -22.265  0.00  0.00     0.000 C 
ENDBRANCH  10  11
ENDBRANCH   3  10
TORSDOF 2
ENDMDL
MODEL 7
REMARK VINA RESULT:      -2.3      3.102      4.255
REMARK  2 active torsions:
REMARK  status: ('A' for Active; 'I' for Inactive)
REMARK    1  A    between atoms: C_6  and  C_3 
REMARK    2  A    between atoms: C_9  and  C_6 
ROOT
ATOM      1  N   UNL d   1      33.237  19.732 -21.589  0.00  0.00    -0.225 NA
ATOM      2  N   UNL d   1      33.240  20.632 -22.580  0.00  0.00    -0.225 NA
ATOM      3  C   UNL d   1      33.238  20.536 -21.764  0.00  0.00     0.163 A 
ATOM      4  C   UNL d   1      33.238  19.332 -22.286  0.00  0.00     0.101 A 
ATOM      5  C   UNL d   1      33.240  19.898 -22.909  0.00  0.00     0.101 A 
ATOM      6  C   UNL d   1      33.237  18.539 -22.463  0.00  0.00     0.021 A 
ATOM      7  C   UNL d   1      33.241  19.645 -23.681  0.00  0.00     0.021 A 
ATOM      8  C   UNL d   1      33.239  18.270 -23.251  0.00  0.00     0.002 A 
ATOM      9  C   UNL d   1      33.240  18.835 -23.874  0.00  0.00     0.002 A 
ENDROOT
BRANCH   3  10
ATOM     10  C   UNL d   1      33.238  21.147 -21.209  0.00  0.00     0.039 C 
BRANCH  10  11
ATOM     11  C   UNL d   1      32.535  21.496 -20.970  0.00  0.00     0.003 C 
ATOM     12  C   UNL d   1      32.540  22.174 -20.500  0.00  0.00     0.000 C 
ENDBRANCH  10  11
ENDBRANCH   3  10
TORSDOF 2
ENDMDL
