MODEL 1
REMARK VINA RESULT:       8.8      0.000      0.000
REMARK  7 active torsions:
REMARK  status: ('A' for Active; 'I' for Inactive)
REMARK    1  A    between atoms: C_6  and  N_1 
REMARK    2  A    between atoms: C_7  and  C_6 
REMARK    3  A    between atoms: O_10  and  C_7 
REMARK    4  A    between atoms: C_13  and  O_10 
REMARK    5  A    between atoms: C_14  and  C_13 
REMARK    6  A    between atoms: C_16  and  C_14 
REMARK    7  A    between atoms: C_15  and  C_16 
ROOT
ATOM      1  N   UNL d   1      46.433 -17.947  43.693  0.00  0.00    -0.246 N 
ATOM      2  C   UNL d   1      46.443 -18.026  42.864  0.00  0.00     0.378 A 
ATOM      3  O   UNL d   1      46.411 -18.835  42.681  0.00  0.00    -0.258 OA
ATOM      4  C   UNL d   1      46.395 -18.708  44.016  0.00  0.00     0.092 A 
ATOM      5  C   UNL d   1      46.381 -19.255  43.391  0.00  0.00     0.121 A 
ATOM      6  O   UNL d   1      46.479 -17.401  42.329  0.00  0.00    -0.237 OA
ATOM      7  C   UNL d   1      46.371 -18.974  44.800  0.00  0.00     0.020 A 
ATOM      8  C   UNL d   1      46.343 -20.068  43.560  0.00  0.00     0.026 A 
ATOM      9  C   UNL d   1      46.333 -19.783  44.955  0.00  0.00     0.002 A 
ATOM     10  C   UNL d   1      46.319 -20.327  44.339  0.00  0.00     0.002 A 
ENDROOT
BRANCH   1  11
ATOM     11  C   UNL d   1      46.456 -17.261  44.150  0.00  0.00     0.154 C 
BRANCH  11  12
ATOM     12  C   UNL d   1      45.881 -16.688  44.055  0.00  0.00     0.318 C 
ATOM     13  O   UNL d   1      45.159 -16.880  43.703  0.00  0.00    -0.257 OA
BRANCH  12  14
ATOM     14  O   UNL d   1      46.022 -15.917  44.311  0.00  0.00    -0.270 OA
BRANCH  14  15
ATOM     15  C   UNL d   1      45.573 -15.228  44.367  0.00  0.00     0.126 C 
BRANCH  15  16
ATOM     16  C   UNL d   1      45.942 -14.499  44.455  0.00  0.00     0.027 C 
BRANCH  16  17
ATOM     17  C   UNL d   1      45.505 -13.800  44.416  0.00  0.00     0.002 C 
BRANCH  17  18
ATOM     18  C   UNL d   1      45.611 -13.279  43.789  0.00  0.00     0.000 C 
ATOM     19  C   UNL d   1      45.239 -12.547  43.799  0.00  0.00     0.000 C 
ENDBRANCH  17  18
ENDBRANCH  16  17
ENDBRANCH  15  16
ENDBRANCH  14  15
ENDBRANCH  12  14
ENDBRANCH  11  12
ENDBRANCH   1  11
TORSDOF 7
ENDMDL
