MODEL 1
REMARK VINA RESULT:     -10.6      0.000      0.000
REMARK  5 active torsions:
REMARK  status: ('A' for Active; 'I' for Inactive)
REMARK    1  A    between atoms: C_8  and  S_1 
REMARK    2  A    between atoms: N_10  and  S_1 
REMARK    3  A    between atoms: C_6  and  C_17 
REMARK    4  A    between atoms: C_18  and  N_10 
REMARK    5  A    between atoms: O_24  and  C_19 
ROOT
ATOM      1  C   UNL d   1      53.661  32.058  53.677  0.00  0.00     0.021 A 
ATOM      2  C   UNL d   1      53.260  33.422  53.879  0.00  0.00     0.094 A 
ATOM      3  C   UNL d   1      53.072  32.620  53.845  0.00  0.00     0.021 A 
ATOM      4  C   UNL d   1      54.432  32.309  53.545  0.00  0.00     0.002 A 
ATOM      5  C   UNL d   1      54.629  33.102  53.577  0.00  0.00     0.002 A 
ATOM      6  C   UNL d   1      54.040  33.664  53.745  0.00  0.00     0.020 A 
ENDROOT
BRANCH   2   7
ATOM      7  N   UNL d   1      52.680  33.977  54.045  0.00  0.00    -0.158 NA
BRANCH   7   8
ATOM      8  S   UNL d   1      52.058  34.085  53.521  0.00  0.00     0.285 S 
ATOM      9  O   UNL d   1      51.584  33.612  54.008  0.00  0.00    -0.198 OA
ATOM     10  O   UNL d   1      52.526  34.561  53.028  0.00  0.00    -0.198 OA
BRANCH   8  11
ATOM     11  C   UNL d   1      51.419  34.190  52.993  0.00  0.00     0.108 A 
ATOM     12  C   UNL d   1      51.557  34.211  52.194  0.00  0.00     0.045 A 
ATOM     13  C   UNL d   1      50.939  34.313  51.661  0.00  0.00     0.163 A 
ATOM     14  F   UNL d   1      51.079  34.334  50.859  0.00  0.00    -0.202 F 
ATOM     15  C   UNL d   1      50.167  34.395  51.955  0.00  0.00     0.121 A 
ATOM     16  C   UNL d   1      50.026  34.374  52.767  0.00  0.00     0.027 A 
ATOM     17  C   UNL d   1      50.655  34.270  53.305  0.00  0.00     0.015 A 
BRANCH  15  18
ATOM     18  O   UNL d   1      49.550  34.496  51.444  0.00  0.00    -0.326 OA
ATOM     19  C   UNL d   1      48.835  34.773  51.709  0.00  0.00     0.181 C 
ENDBRANCH  15  18
ENDBRANCH   8  11
ENDBRANCH   7   8
ENDBRANCH   2   7
BRANCH   1  20
ATOM     20  C   UNL d   1      53.459  31.259  53.646  0.00  0.00     0.102 A 
ATOM     21  N   UNL d   1      53.553  30.799  54.333  0.00  0.00    -0.162 NA
ATOM     22  N   UNL d   1      53.351  29.989  54.310  0.00  0.00    -0.189 N 
ATOM     23  C   UNL d   1      53.381  29.409  54.882  0.00  0.00     0.224 A 
ATOM     24  C   UNL d   1      53.060  29.647  53.609  0.00  0.00     0.187 A 
ATOM     25  N   UNL d   1      53.117  28.715  54.554  0.00  0.00    -0.124 NA
ATOM     26  N   UNL d   1      52.921  28.870  53.771  0.00  0.00    -0.127 NA
ATOM     27  C   UNL d   1      52.974  30.129  52.931  0.00  0.00     0.042 A 
ATOM     28  C   UNL d   1      53.175  30.933  52.955  0.00  0.00     0.024 A 
ENDBRANCH   1  20
TORSDOF 5
ENDMDL
MODEL 2
REMARK VINA RESULT:      -9.5      2.374      4.979
REMARK  5 active torsions:
REMARK  status: ('A' for Active; 'I' for Inactive)
REMARK    1  A    between atoms: C_8  and  S_1 
REMARK    2  A    between atoms: N_10  and  S_1 
REMARK    3  A    between atoms: C_6  and  C_17 
REMARK    4  A    between atoms: C_18  and  N_10 
REMARK    5  A    between atoms: O_24  and  C_19 
ROOT
ATOM      1  C   UNL d   1      51.590  34.167  52.987  0.00  0.00     0.021 A 
ATOM      2  C   UNL d   1      52.794  33.387  52.927  0.00  0.00     0.094 A 
ATOM      3  C   UNL d   1      52.036  33.554  52.648  0.00  0.00     0.021 A 
ATOM      4  C   UNL d   1      51.910  34.606  53.604  0.00  0.00     0.002 A 
ATOM      5  C   UNL d   1      52.661  34.448  53.887  0.00  0.00     0.002 A 
ATOM      6  C   UNL d   1      53.107  33.835  53.548  0.00  0.00     0.020 A 
ENDROOT
BRANCH   2   7
ATOM      7  N   UNL d   1      53.235  32.783  52.592  0.00  0.00    -0.158 NA
BRANCH   7   8
ATOM      8  S   UNL d   1      53.218  32.033  52.924  0.00  0.00     0.285 S 
ATOM      9  O   UNL d   1      52.576  31.847  52.434  0.00  0.00    -0.198 OA
ATOM     10  O   UNL d   1      53.859  32.212  53.418  0.00  0.00    -0.198 OA
BRANCH   8  11
ATOM     11  C   UNL d   1      53.192  31.267  53.256  0.00  0.00     0.108 A 
ATOM     12  C   UNL d   1      52.791  30.676  52.872  0.00  0.00     0.045 A 
ATOM     13  C   UNL d   1      52.756  29.916  53.185  0.00  0.00     0.163 A 
ATOM     14  F   UNL d   1      52.354  29.323  52.798  0.00  0.00    -0.202 F 
ATOM     15  C   UNL d   1      53.139  29.763  53.905  0.00  0.00     0.121 A 
ATOM     16  C   UNL d   1      53.546  30.363  54.297  0.00  0.00     0.027 A 
ATOM     17  C   UNL d   1      53.580  31.132  53.976  0.00  0.00     0.015 A 
BRANCH  15  18
ATOM     18  O   UNL d   1      53.113  29.022  54.225  0.00  0.00    -0.326 OA
ATOM     19  C   UNL d   1      53.368  28.891  54.985  0.00  0.00     0.181 C 
ENDBRANCH  15  18
ENDBRANCH   8  11
ENDBRANCH   7   8
ENDBRANCH   2   7
BRANCH   1  20
ATOM     20  C   UNL d   1      50.833  34.323  52.699  0.00  0.00     0.102 A 
ATOM     21  N   UNL d   1      50.695  34.245  51.882  0.00  0.00    -0.162 NA
ATOM     22  N   UNL d   1      49.932  34.401  51.583  0.00  0.00    -0.189 N 
ATOM     23  C   UNL d   1      49.634  34.372  50.824  0.00  0.00     0.224 A 
ATOM     24  C   UNL d   1      49.318  34.632  52.095  0.00  0.00     0.187 A 
ATOM     25  N   UNL d   1      48.849  34.580  50.852  0.00  0.00    -0.124 NA
ATOM     26  N   UNL d   1      48.663  34.738  51.636  0.00  0.00    -0.127 NA
ATOM     27  C   UNL d   1      49.479  34.705  52.912  0.00  0.00     0.042 A 
ATOM     28  C   UNL d   1      50.238  34.549  53.208  0.00  0.00     0.024 A 
ENDBRANCH   1  20
TORSDOF 5
ENDMDL
MODEL 3
REMARK VINA RESULT:      -8.5      2.460      5.503
REMARK  5 active torsions:
REMARK  status: ('A' for Active; 'I' for Inactive)
REMARK    1  A    between atoms: C_8  and  S_1 
REMARK    2  A    between atoms: N_10  and  S_1 
REMARK    3  A    between atoms: C_6  and  C_17 
REMARK    4  A    between atoms: C_18  and  N_10 
REMARK    5  A    between atoms: O_24  and  C_19 
ROOT
ATOM      1  C   UNL d   1      50.011  34.546  52.343  0.00  0.00     0.021 A 
ATOM      2  C   UNL d   1      51.002  33.657  52.880  0.00  0.00     0.094 A 
ATOM      3  C   UNL d   1      50.287  34.060  52.958  0.00  0.00     0.021 A 
ATOM      4  C   UNL d   1      50.456  34.622  51.657  0.00  0.00     0.002 A 
ATOM      5  C   UNL d   1      51.167  34.227  51.570  0.00  0.00     0.002 A 
ATOM      6  C   UNL d   1      51.443  33.740  52.185  0.00  0.00     0.020 A 
ENDROOT
BRANCH   2   7
ATOM      7  N   UNL d   1      51.275  33.177  53.486  0.00  0.00    -0.158 NA
BRANCH   7   8
ATOM      8  S   UNL d   1      52.059  33.224  53.723  0.00  0.00     0.285 S 
ATOM      9  O   UNL d   1      52.213  32.530  53.297  0.00  0.00    -0.198 OA
ATOM     10  O   UNL d   1      51.911  33.919  54.151  0.00  0.00    -0.198 OA
BRANCH   8  11
ATOM     11  C   UNL d   1      52.859  33.264  53.958  0.00  0.00     0.108 A 
ATOM     12  C   UNL d   1      53.400  32.759  53.627  0.00  0.00     0.045 A 
ATOM     13  C   UNL d   1      54.192  32.785  53.848  0.00  0.00     0.163 A 
ATOM     14  F   UNL d   1      54.736  32.277  53.515  0.00  0.00    -0.202 F 
ATOM     15  C   UNL d   1      54.430  33.339  54.419  0.00  0.00     0.121 A 
ATOM     16  C   UNL d   1      53.880  33.852  54.755  0.00  0.00     0.027 A 
ATOM     17  C   UNL d   1      53.078  33.823  54.529  0.00  0.00     0.015 A 
BRANCH  15  18
ATOM     18  O   UNL d   1      55.205  33.376  54.645  0.00  0.00    -0.326 OA
ATOM     19  C   UNL d   1      55.429  33.839  55.273  0.00  0.00     0.181 C 
ENDBRANCH  15  18
ENDBRANCH   8  11
ENDBRANCH   7   8
ENDBRANCH   2   7
BRANCH   1  20
ATOM     20  C   UNL d   1      49.294  34.943  52.434  0.00  0.00     0.102 A 
ATOM     21  N   UNL d   1      49.183  35.414  53.111  0.00  0.00    -0.162 NA
ATOM     22  N   UNL d   1      48.460  35.820  53.209  0.00  0.00    -0.189 N 
ATOM     23  C   UNL d   1      48.196  36.313  53.803  0.00  0.00     0.224 A 
ATOM     24  C   UNL d   1      47.858  35.754  52.639  0.00  0.00     0.187 A 
ATOM     25  N   UNL d   1      47.443  36.555  53.614  0.00  0.00    -0.124 NA
ATOM     26  N   UNL d   1      47.244  36.207  52.898  0.00  0.00    -0.127 NA
ATOM     27  C   UNL d   1      47.991  35.275  51.966  0.00  0.00     0.042 A 
ATOM     28  C   UNL d   1      48.710  34.872  51.869  0.00  0.00     0.024 A 
ENDBRANCH   1  20
TORSDOF 5
ENDMDL
MODEL 4
REMARK VINA RESULT:      -8.4      2.526      3.579
REMARK  5 active torsions:
REMARK  status: ('A' for Active; 'I' for Inactive)
REMARK    1  A    between atoms: C_8  and  S_1 
REMARK    2  A    between atoms: N_10  and  S_1 
REMARK    3  A    between atoms: C_6  and  C_17 
REMARK    4  A    between atoms: C_18  and  N_10 
REMARK    5  A    between atoms: O_24  and  C_19 
ROOT
ATOM      1  C   UNL d   1      52.184  34.294  53.050  0.00  0.00     0.021 A 
ATOM      2  C   UNL d   1      50.830  34.100  52.614  0.00  0.00     0.094 A 
ATOM      3  C   UNL d   1      51.393  34.101  53.216  0.00  0.00     0.021 A 
ATOM      4  C   UNL d   1      52.401  34.483  52.280  0.00  0.00     0.002 A 
ATOM      5  C   UNL d   1      51.849  34.484  51.676  0.00  0.00     0.002 A 
ATOM      6  C   UNL d   1      51.058  34.291  51.842  0.00  0.00     0.020 A 
ENDROOT
BRANCH   2   7
ATOM      7  N   UNL d   1      50.049  33.910  52.777  0.00  0.00    -0.158 NA
BRANCH   7   8
ATOM      8  S   UNL d   1      49.459  34.466  52.654  0.00  0.00     0.285 S 
ATOM      9  O   UNL d   1      49.584  34.748  53.423  0.00  0.00    -0.198 OA
ATOM     10  O   UNL d   1      49.328  34.190  51.883  0.00  0.00    -0.198 OA
BRANCH   8  11
ATOM     11  C   UNL d   1      48.860  35.036  52.537  0.00  0.00     0.108 A 
ATOM     12  C   UNL d   1      48.712  35.587  53.115  0.00  0.00     0.045 A 
ATOM     13  C   UNL d   1      48.126  36.155  53.016  0.00  0.00     0.163 A 
ATOM     14  F   UNL d   1      47.977  36.707  53.597  0.00  0.00    -0.202 F 
ATOM     15  C   UNL d   1      47.685  36.157  52.313  0.00  0.00     0.121 A 
ATOM     16  C   UNL d   1      47.836  35.599  51.726  0.00  0.00     0.027 A 
ATOM     17  C   UNL d   1      48.431  35.023  51.829  0.00  0.00     0.015 A 
BRANCH  15  18
ATOM     18  O   UNL d   1      47.106  36.709  52.202  0.00  0.00    -0.326 OA
ATOM     19  C   UNL d   1      46.349  36.482  52.020  0.00  0.00     0.181 C 
ENDBRANCH  15  18
ENDBRANCH   8  11
ENDBRANCH   7   8
ENDBRANCH   2   7
BRANCH   1  20
ATOM     20  C   UNL d   1      52.737  34.292  53.662  0.00  0.00     0.102 A 
ATOM     21  N   UNL d   1      53.155  33.589  53.817  0.00  0.00    -0.162 NA
ATOM     22  N   UNL d   1      53.716  33.579  54.435  0.00  0.00    -0.189 N 
ATOM     23  C   UNL d   1      54.201  32.986  54.712  0.00  0.00     0.224 A 
ATOM     24  C   UNL d   1      53.856  34.263  54.888  0.00  0.00     0.187 A 
ATOM     25  N   UNL d   1      54.640  33.284  55.328  0.00  0.00    -0.124 NA
ATOM     26  N   UNL d   1      54.422  34.069  55.429  0.00  0.00    -0.127 NA
ATOM     27  C   UNL d   1      53.425  34.958  54.714  0.00  0.00     0.042 A 
ATOM     28  C   UNL d   1      52.867  34.966  54.100  0.00  0.00     0.024 A 
ENDBRANCH   1  20
TORSDOF 5
ENDMDL
