MODEL 1
REMARK VINA RESULT:       4.1      0.000      0.000
REMARK  3 active torsions:
REMARK  status: ('A' for Active; 'I' for Inactive)
REMARK    1  A    between atoms: C_2  and  C_1 
REMARK    2  A    between atoms: C_5  and  C_2 
REMARK    3  A    between atoms: C_4  and  C_3 
ROOT
ATOM      1  C   UNL d   1      24.322  13.167  -1.012  0.00  0.00     0.045 A 
ATOM      2  C   UNL d   1      23.741  13.139  -0.427  0.00  0.00     0.068 A 
ATOM      3  C   UNL d   1      24.704  13.874  -1.188  0.00  0.00     0.003 A 
ATOM      4  C   UNL d   1      23.542  13.828  -0.014  0.00  0.00     0.006 A 
ATOM      5  C   UNL d   1      24.509  14.560  -0.781  0.00  0.00     0.000 A 
ATOM      6  C   UNL d   1      23.921  14.537  -0.187  0.00  0.00     0.000 A 
ENDROOT
BRANCH   1   7
ATOM      7  C   UNL d   1      24.524  12.476  -1.428  0.00  0.00     0.196 C 
ATOM      8  O   UNL d   1      24.670  11.780  -1.014  0.00  0.00    -0.287 OA
BRANCH   7   9
ATOM      9  C   UNL d   1      24.578  12.487  -2.252  0.00  0.00     0.039 A 
ATOM     10  C   UNL d   1      24.708  13.204  -2.652  0.00  0.00     0.005 A 
ATOM     11  C   UNL d   1      24.761  13.210  -3.478  0.00  0.00     0.030 A 
ATOM     12  C   UNL d   1      24.686  12.511  -3.901  0.00  0.00     0.140 A 
ATOM     13  C   UNL d   1      24.556  11.802  -3.506  0.00  0.00     0.030 A 
ATOM     14  F   UNL d   1      24.741  12.529  -4.731  0.00  0.00    -0.204 F 
ATOM     15  C   UNL d   1      24.502  11.784  -2.683  0.00  0.00     0.005 A 
ENDBRANCH   7   9
ENDBRANCH   1   7
BRANCH   2  16
ATOM     16  C   UNL d   1      23.366  12.426  -0.259  0.00  0.00     0.211 C 
ATOM     17  O   UNL d   1      22.544  12.362  -0.336  0.00  0.00    -0.644 OA
ATOM     18  O   UNL d   1      23.817  11.784  -0.017  0.00  0.00    -0.644 OA
ENDBRANCH   2  16
TORSDOF 3
ENDMDL
