MODEL 1
REMARK VINA RESULT:      10.2      0.000      0.000
REMARK  4 active torsions:
REMARK  status: ('A' for Active; 'I' for Inactive)
REMARK    1  A    between atoms: C_7  and  C_1 
REMARK    2  A    between atoms: N_5  and  C_3 
REMARK       I    between atoms: C_8  and  N_5 
REMARK    3  A    between atoms: C_9  and  C_8 
REMARK    4  A    between atoms: O_21  and  C_15 
ROOT
ATOM      1  C   UNL d   1      46.295 -18.240  43.839  0.00  0.00     0.137 A 
ATOM      2  S   UNL d   1      46.303 -17.443  43.633  0.00  0.00    -0.026 SA
ATOM      3  C   UNL d   1      46.165 -16.995  44.306  0.00  0.00     0.219 A 
ATOM      4  N   UNL d   1      46.148 -18.287  44.661  0.00  0.00    -0.139 NA
ATOM      5  N   UNL d   1      46.068 -17.519  44.949  0.00  0.00    -0.121 NA
ENDROOT
BRANCH   3   6
ATOM      6  N   UNL d   1      46.128 -16.174  44.346  0.00  0.00    -0.181 NA
ATOM      7  C   UNL d   1      45.483 -15.654  44.316  0.00  0.00     0.281 C 
ATOM      8  O   UNL d   1      44.726 -15.948  44.233  0.00  0.00    -0.265 OA
BRANCH   7   9
ATOM      9  C   UNL d   1      45.617 -14.841  44.371  0.00  0.00     0.060 A 
ATOM     10  C   UNL d   1      45.192 -14.330  43.881  0.00  0.00     0.031 A 
ATOM     11  C   UNL d   1      45.318 -13.525  43.930  0.00  0.00     0.119 A 
ATOM     12  O   UNL d   1      44.988 -12.890  43.525  0.00  0.00    -0.300 OA
ATOM     13  C   UNL d   1      45.867 -13.222  44.465  0.00  0.00     0.119 A 
ATOM     14  C   UNL d   1      45.332 -12.190  43.808  0.00  0.00     0.304 A 
ATOM     15  O   UNL d   1      45.878 -12.400  44.393  0.00  0.00    -0.300 OA
ATOM     16  C   UNL d   1      46.292 -13.733  44.955  0.00  0.00     0.026 A 
ATOM     17  C   UNL d   1      46.166 -14.542  44.908  0.00  0.00     0.007 A 
ENDBRANCH   7   9
ENDBRANCH   3   6
BRANCH   1  18
ATOM     18  C   UNL d   1      46.411 -18.882  43.330  0.00  0.00     0.048 A 
ATOM     19  C   UNL d   1      46.533 -19.648  43.631  0.00  0.00     0.096 A 
ATOM     20  C   UNL d   1      46.647 -20.279  43.131  0.00  0.00     0.024 A 
ATOM     21  C   UNL d   1      46.641 -20.156  42.311  0.00  0.00     0.002 A 
ATOM     22  C   UNL d   1      46.522 -19.410  42.003  0.00  0.00     0.000 A 
ATOM     23  C   UNL d   1      46.406 -18.771  42.519  0.00  0.00     0.004 A 
BRANCH  19  24
ATOM     24  O   UNL d   1      46.538 -19.759  44.443  0.00  0.00    -0.328 OA
ATOM     25  C   UNL d   1      46.025 -20.309  44.784  0.00  0.00     0.181 C 
ENDBRANCH  19  24
ENDBRANCH   1  18
TORSDOF 4
ENDMDL
MODEL 2
REMARK VINA RESULT:      11.2      1.098      5.528
REMARK  4 active torsions:
REMARK  status: ('A' for Active; 'I' for Inactive)
REMARK    1  A    between atoms: C_7  and  C_1 
REMARK    2  A    between atoms: N_5  and  C_3 
REMARK       I    between atoms: C_8  and  N_5 
REMARK    3  A    between atoms: C_9  and  C_8 
REMARK    4  A    between atoms: O_21  and  C_15 
ROOT
ATOM      1  C   UNL d   1      45.441 -14.472  44.654  0.00  0.00     0.137 A 
ATOM      2  S   UNL d   1      45.870 -15.149  44.467  0.00  0.00    -0.026 SA
ATOM      3  C   UNL d   1      45.414 -15.807  44.645  0.00  0.00     0.219 A 
ATOM      4  N   UNL d   1      44.700 -14.717  44.955  0.00  0.00    -0.139 NA
ATOM      5  N   UNL d   1      44.684 -15.541  44.950  0.00  0.00    -0.121 NA
ENDROOT
BRANCH   3   6
ATOM      6  N   UNL d   1      45.634 -16.594  44.543  0.00  0.00    -0.181 NA
ATOM      7  C   UNL d   1      46.087 -16.963  43.956  0.00  0.00     0.281 C 
ATOM      8  O   UNL d   1      46.398 -16.522  43.344  0.00  0.00    -0.265 OA
BRANCH   7   9
ATOM      9  C   UNL d   1      46.218 -17.778  43.998  0.00  0.00     0.060 A 
ATOM     10  C   UNL d   1      46.248 -18.217  43.300  0.00  0.00     0.031 A 
ATOM     11  C   UNL d   1      46.377 -19.023  43.333  0.00  0.00     0.119 A 
ATOM     12  O   UNL d   1      46.434 -19.596  42.748  0.00  0.00    -0.300 OA
ATOM     13  C   UNL d   1      46.477 -19.397  44.061  0.00  0.00     0.119 A 
ATOM     14  C   UNL d   1      46.571 -20.330  43.111  0.00  0.00     0.304 A 
ATOM     15  O   UNL d   1      46.597 -20.203  43.927  0.00  0.00    -0.300 OA
ATOM     16  C   UNL d   1      46.448 -18.958  44.760  0.00  0.00     0.026 A 
ATOM     17  C   UNL d   1      46.318 -18.148  44.728  0.00  0.00     0.007 A 
ENDBRANCH   7   9
ENDBRANCH   3   6
BRANCH   1  18
ATOM     18  C   UNL d   1      45.691 -13.689  44.563  0.00  0.00     0.048 A 
ATOM     19  C   UNL d   1      45.272 -13.162  44.073  0.00  0.00     0.096 A 
ATOM     20  C   UNL d   1      45.519 -12.392  43.983  0.00  0.00     0.024 A 
ATOM     21  C   UNL d   1      46.195 -12.130  44.385  0.00  0.00     0.002 A 
ATOM     22  C   UNL d   1      46.615 -12.637  44.868  0.00  0.00     0.000 A 
ATOM     23  C   UNL d   1      46.358 -13.421  44.955  0.00  0.00     0.004 A 
BRANCH  19  24
ATOM     24  O   UNL d   1      44.605 -13.430  43.681  0.00  0.00    -0.328 OA
ATOM     25  C   UNL d   1      44.263 -12.967  43.089  0.00  0.00     0.181 C 
ENDBRANCH  19  24
ENDBRANCH   1  18
TORSDOF 4
ENDMDL
