MODEL 1
REMARK VINA RESULT:      17.4      0.000      0.000
REMARK  1 active torsions:
REMARK  status: ('A' for Active; 'I' for Inactive)
REMARK    1  A    between atoms: C_9  and  C_3 
ROOT
ATOM      1  C   UNL d   1     -51.001  25.168  33.317  0.00  0.00     0.035 A 
ATOM      2  N   UNL d   1     -52.144  26.130  33.324  0.00  0.00    -0.239 NA
ATOM      3  C   UNL d   1     -51.787  25.365  33.322  0.00  0.00     0.083 A 
ATOM      4  N   UNL d   1     -50.316  26.523  33.313  0.00  0.00    -0.207 NA
ATOM      5  C   UNL d   1     -50.338  25.686  33.313  0.00  0.00     0.086 A 
ATOM      6  C   UNL d   1     -50.954  27.046  33.317  0.00  0.00     0.298 A 
ATOM      7  C   UNL d   1     -50.896  24.376  33.316  0.00  0.00     0.003 A 
ATOM      8  C   UNL d   1     -51.775  26.859  33.322  0.00  0.00     0.161 A 
ATOM      9  C   UNL d   1     -49.576  25.376  33.308  0.00  0.00     0.019 A 
ATOM     10  O   UNL d   1     -50.755  27.864  33.316  0.00  0.00    -0.263 OA
ATOM     11  C   UNL d   1     -50.121  24.056  33.311  0.00  0.00     0.000 A 
ATOM     12  C   UNL d   1     -49.462  24.567  33.307  0.00  0.00     0.002 A 
ATOM     13  C   UNL d   1     -50.038  23.204  33.311  0.00  0.00     0.000 C 
ENDROOT
BRANCH   3  14
ATOM     14  C   UNL d   1     -52.305  24.737  33.325  0.00  0.00     0.018 A 
ATOM     15  C   UNL d   1     -52.033  23.967  33.346  0.00  0.00     0.002 A 
ATOM     16  C   UNL d   1     -52.578  23.319  33.349  0.00  0.00     0.000 A 
ATOM     17  C   UNL d   1     -53.386  23.484  33.330  0.00  0.00     0.000 A 
ATOM     18  C   UNL d   1     -53.652  24.259  33.309  0.00  0.00     0.000 A 
ATOM     19  C   UNL d   1     -53.104  24.892  33.307  0.00  0.00     0.002 A 
ENDBRANCH   3  14
TORSDOF 1
ENDMDL
MODEL 2
REMARK VINA RESULT:      19.1      1.600      2.936
REMARK  1 active torsions:
REMARK  status: ('A' for Active; 'I' for Inactive)
REMARK    1  A    between atoms: C_9  and  C_3 
ROOT
ATOM      1  C   UNL d   1     -51.862  24.596  33.338  0.00  0.00     0.035 A 
ATOM      2  N   UNL d   1     -53.167  25.322  33.339  0.00  0.00    -0.239 NA
ATOM      3  C   UNL d   1     -52.325  25.261  33.342  0.00  0.00     0.083 A 
ATOM      4  N   UNL d   1     -52.885  23.474  33.321  0.00  0.00    -0.207 NA
ATOM      5  C   UNL d   1     -52.110  23.792  33.329  0.00  0.00     0.086 A 
ATOM      6  C   UNL d   1     -53.600  23.885  33.322  0.00  0.00     0.298 A 
ATOM      7  C   UNL d   1     -51.084  24.779  33.344  0.00  0.00     0.003 A 
ATOM      8  C   UNL d   1     -53.718  24.719  33.330  0.00  0.00     0.161 A 
ATOM      9  C   UNL d   1     -51.549  23.190  33.326  0.00  0.00     0.019 A 
ATOM     10  O   UNL d   1     -54.294  23.408  33.313  0.00  0.00    -0.263 OA
ATOM     11  C   UNL d   1     -50.510  24.169  33.341  0.00  0.00     0.000 A 
ATOM     12  C   UNL d   1     -50.753  23.372  33.332  0.00  0.00     0.002 A 
ATOM     13  C   UNL d   1     -49.684  24.394  33.348  0.00  0.00     0.000 C 
ENDROOT
BRANCH   3  14
ATOM     14  C   UNL d   1     -51.922  25.968  33.352  0.00  0.00     0.018 A 
ATOM     15  C   UNL d   1     -52.322  26.680  33.377  0.00  0.00     0.002 A 
ATOM     16  C   UNL d   1     -51.896  27.412  33.386  0.00  0.00     0.000 A 
ATOM     17  C   UNL d   1     -51.071  27.387  33.370  0.00  0.00     0.000 A 
ATOM     18  C   UNL d   1     -50.677  26.669  33.345  0.00  0.00     0.000 A 
ATOM     19  C   UNL d   1     -51.108  25.953  33.336  0.00  0.00     0.002 A 
ENDBRANCH   3  14
TORSDOF 1
ENDMDL
