MODEL 1
REMARK VINA RESULT:      -3.2      0.000      0.000
REMARK  5 active torsions:
REMARK  status: ('A' for Active; 'I' for Inactive)
REMARK    1  A    between atoms: C_2  and  C_3 
REMARK    2  A    between atoms: N_4  and  C_2 
REMARK    3  A    between atoms: C_10  and  N_4 
REMARK    4  A    between atoms: O_16  and  C_11 
REMARK    5  A    between atoms: C_19  and  O_16 
ROOT
ATOM      1  C   UNL d   1      33.101  19.846 -21.966  0.00  0.00     0.153 C 
ATOM      2  S   UNL d   1      33.195  19.245 -21.403  0.00  0.00    -0.056 SA
ENDROOT
BRANCH   1   3
ATOM      3  C   UNL d   1      32.873  20.599 -21.719  0.00  0.00     0.109 A 
ATOM      4  N   UNL d   1      33.070  21.265 -22.175  0.00  0.00    -0.243 NA
ATOM      5  C   UNL d   1      32.842  22.018 -21.929  0.00  0.00     0.081 A 
ATOM      6  C   UNL d   1      32.417  22.113 -21.227  0.00  0.00     0.018 A 
ATOM      7  C   UNL d   1      33.040  22.676 -22.384  0.00  0.00     0.019 A 
ATOM      8  C   UNL d   1      32.215  21.455 -20.764  0.00  0.00     0.003 A 
ATOM      9  C   UNL d   1      32.189  22.865 -20.980  0.00  0.00     0.002 A 
ATOM     10  C   UNL d   1      32.443  20.694 -21.010  0.00  0.00     0.021 A 
ATOM     11  C   UNL d   1      32.387  23.524 -21.435  0.00  0.00     0.000 A 
ATOM     12  C   UNL d   1      32.812  23.430 -22.137  0.00  0.00     0.002 A 
ENDBRANCH   1   3
BRANCH   1  13
ATOM     13  N   UNL d   1      33.233  19.695 -22.767  0.00  0.00    -0.233 NA
BRANCH  13  14
ATOM     14  C   UNL d   1      33.011  18.966 -23.092  0.00  0.00     0.083 A 
ATOM     15  C   UNL d   1      32.565  18.949 -23.788  0.00  0.00     0.021 A 
ATOM     16  C   UNL d   1      32.348  18.220 -24.106  0.00  0.00     0.026 A 
ATOM     17  C   UNL d   1      32.572  17.518 -23.736  0.00  0.00     0.100 A 
ATOM     18  C   UNL d   1      33.020  17.545 -23.038  0.00  0.00     0.026 A 
ATOM     19  C   UNL d   1      33.239  18.269 -22.716  0.00  0.00     0.021 A 
BRANCH  17  20
ATOM     20  O   UNL d   1      32.350  16.786 -24.061  0.00  0.00    -0.305 OA
BRANCH  20  21
ATOM     21  C   UNL d   1      31.620  16.454 -23.865  0.00  0.00     0.123 C 
ATOM     22  C   UNL d   1      31.394  15.737 -24.200  0.00  0.00     0.029 C 
ENDBRANCH  20  21
ENDBRANCH  17  20
ENDBRANCH  13  14
ENDBRANCH   1  13
TORSDOF 5
ENDMDL
MODEL 2
REMARK VINA RESULT:      -3.1      1.644      5.039
REMARK  5 active torsions:
REMARK  status: ('A' for Active; 'I' for Inactive)
REMARK    1  A    between atoms: C_2  and  C_3 
REMARK    2  A    between atoms: N_4  and  C_2 
REMARK    3  A    between atoms: C_10  and  N_4 
REMARK    4  A    between atoms: O_16  and  C_11 
REMARK    5  A    between atoms: C_19  and  O_16 
ROOT
ATOM      1  C   UNL d   1      33.013  19.021 -23.182  0.00  0.00     0.153 C 
ATOM      2  S   UNL d   1      33.147  19.577 -23.781  0.00  0.00    -0.056 SA
ENDROOT
BRANCH   1   3
ATOM      3  C   UNL d   1      32.650  18.305 -23.369  0.00  0.00     0.109 A 
ATOM      4  N   UNL d   1      31.927  18.297 -23.778  0.00  0.00    -0.243 NA
ATOM      5  C   UNL d   1      31.564  17.580 -23.965  0.00  0.00     0.081 A 
ATOM      6  C   UNL d   1      31.918  16.867 -23.745  0.00  0.00     0.018 A 
ATOM      7  C   UNL d   1      30.847  17.577 -24.371  0.00  0.00     0.019 A 
ATOM      8  C   UNL d   1      32.640  16.864 -23.336  0.00  0.00     0.003 A 
ATOM      9  C   UNL d   1      31.556  16.151 -23.931  0.00  0.00     0.002 A 
ATOM     10  C   UNL d   1      33.008  17.584 -23.146  0.00  0.00     0.021 A 
ATOM     11  C   UNL d   1      30.838  16.147 -24.337  0.00  0.00     0.000 A 
ATOM     12  C   UNL d   1      30.484  16.860 -24.557  0.00  0.00     0.002 A 
ENDBRANCH   1   3
BRANCH   1  13
ATOM     13  N   UNL d   1      33.239  19.180 -22.404  0.00  0.00    -0.233 NA
BRANCH  13  14
ATOM     14  C   UNL d   1      33.148  19.944 -22.095  0.00  0.00     0.083 A 
ATOM     15  C   UNL d   1      32.970  20.041 -21.294  0.00  0.00     0.021 A 
ATOM     16  C   UNL d   1      32.882  20.804 -20.994  0.00  0.00     0.026 A 
ATOM     17  C   UNL d   1      32.969  21.460 -21.485  0.00  0.00     0.100 A 
ATOM     18  C   UNL d   1      33.148  21.353 -22.288  0.00  0.00     0.026 A 
ATOM     19  C   UNL d   1      33.238  20.595 -22.593  0.00  0.00     0.021 A 
BRANCH  17  20
ATOM     20  O   UNL d   1      32.879  22.227 -21.176  0.00  0.00    -0.305 OA
BRANCH  20  21
ATOM     21  C   UNL d   1      32.123  22.550 -21.094  0.00  0.00     0.123 C 
ATOM     22  C   UNL d   1      32.025  23.367 -21.098  0.00  0.00     0.029 C 
ENDBRANCH  20  21
ENDBRANCH  17  20
ENDBRANCH  13  14
ENDBRANCH   1  13
TORSDOF 5
ENDMDL
MODEL 3
REMARK VINA RESULT:      -1.7      1.725      5.212
REMARK  5 active torsions:
REMARK  status: ('A' for Active; 'I' for Inactive)
REMARK    1  A    between atoms: C_2  and  C_3 
REMARK    2  A    between atoms: N_4  and  C_2 
REMARK    3  A    between atoms: C_10  and  N_4 
REMARK    4  A    between atoms: O_16  and  C_11 
REMARK    5  A    between atoms: C_19  and  O_16 
ROOT
ATOM      1  C   UNL d   1      32.703  18.037 -24.101  0.00  0.00     0.153 C 
ATOM      2  S   UNL d   1      32.739  18.611 -24.696  0.00  0.00    -0.056 SA
ENDROOT
BRANCH   1   3
ATOM      3  C   UNL d   1      32.190  17.397 -24.187  0.00  0.00     0.109 A 
ATOM      4  N   UNL d   1      31.370  17.505 -24.105  0.00  0.00    -0.243 NA
ATOM      5  C   UNL d   1      30.857  16.865 -24.191  0.00  0.00     0.081 A 
ATOM      6  C   UNL d   1      31.157  16.114 -24.359  0.00  0.00     0.018 A 
ATOM      7  C   UNL d   1      30.044  16.976 -24.108  0.00  0.00     0.019 A 
ATOM      8  C   UNL d   1      31.973  15.995 -24.444  0.00  0.00     0.003 A 
ATOM      9  C   UNL d   1      30.644  15.474 -24.445  0.00  0.00     0.002 A 
ATOM     10  C   UNL d   1      32.493  16.638 -24.358  0.00  0.00     0.021 A 
ATOM     11  C   UNL d   1      29.831  15.585 -24.363  0.00  0.00     0.000 A 
ATOM     12  C   UNL d   1      29.531  16.336 -24.194  0.00  0.00     0.002 A 
ENDBRANCH   1   3
BRANCH   1  13
ATOM     13  N   UNL d   1      33.175  18.100 -23.427  0.00  0.00    -0.233 NA
BRANCH  13  14
ATOM     14  C   UNL d   1      33.191  18.810 -23.000  0.00  0.00     0.083 A 
ATOM     15  C   UNL d   1      33.215  19.529 -23.405  0.00  0.00     0.021 A 
ATOM     16  C   UNL d   1      33.231  20.232 -22.975  0.00  0.00     0.026 A 
ATOM     17  C   UNL d   1      33.224  20.218 -22.150  0.00  0.00     0.100 A 
ATOM     18  C   UNL d   1      33.201  19.491 -21.751  0.00  0.00     0.026 A 
ATOM     19  C   UNL d   1      33.185  18.787 -22.176  0.00  0.00     0.021 A 
BRANCH  17  20
ATOM     20  O   UNL d   1      33.241  20.929 -21.721  0.00  0.00    -0.305 OA
BRANCH  20  21
ATOM     21  C   UNL d   1      32.549  21.214 -21.370  0.00  0.00     0.123 C 
ATOM     22  C   UNL d   1      32.535  21.971 -21.049  0.00  0.00     0.029 C 
ENDBRANCH  20  21
ENDBRANCH  17  20
ENDBRANCH  13  14
ENDBRANCH   1  13
TORSDOF 5
ENDMDL
MODEL 4
REMARK VINA RESULT:      -1.0      2.689      5.413
REMARK  5 active torsions:
REMARK  status: ('A' for Active; 'I' for Inactive)
REMARK    1  A    between atoms: C_2  and  C_3 
REMARK    2  A    between atoms: N_4  and  C_2 
REMARK    3  A    between atoms: C_10  and  N_4 
REMARK    4  A    between atoms: O_16  and  C_11 
REMARK    5  A    between atoms: C_19  and  O_16 
ROOT
ATOM      1  C   UNL d   1      33.056  22.397 -21.885  0.00  0.00     0.153 C 
ATOM      2  S   UNL d   1      32.824  23.189 -21.946  0.00  0.00    -0.056 SA
ENDROOT
BRANCH   1   3
ATOM      3  C   UNL d   1      33.102  21.935 -22.567  0.00  0.00     0.109 A 
ATOM      4  N   UNL d   1      33.059  21.107 -22.513  0.00  0.00    -0.243 NA
ATOM      5  C   UNL d   1      33.105  20.645 -23.195  0.00  0.00     0.081 A 
ATOM      6  C   UNL d   1      33.194  21.005 -23.933  0.00  0.00     0.018 A 
ATOM      7  C   UNL d   1      33.063  19.824 -23.138  0.00  0.00     0.019 A 
ATOM      8  C   UNL d   1      33.238  21.830 -23.998  0.00  0.00     0.003 A 
ATOM      9  C   UNL d   1      33.240  20.544 -24.614  0.00  0.00     0.002 A 
ATOM     10  C   UNL d   1      33.192  22.299 -23.313  0.00  0.00     0.021 A 
ATOM     11  C   UNL d   1      33.197  19.722 -24.558  0.00  0.00     0.000 A 
ATOM     12  C   UNL d   1      33.109  19.362 -23.820  0.00  0.00     0.002 A 
ENDBRANCH   1   3
BRANCH   1  13
ATOM     13  N   UNL d   1      33.241  22.069 -21.150  0.00  0.00    -0.233 NA
BRANCH  13  14
ATOM     14  C   UNL d   1      33.048  22.477 -20.455  0.00  0.00     0.083 A 
ATOM     15  C   UNL d   1      33.140  22.103 -19.724  0.00  0.00     0.021 A 
ATOM     16  C   UNL d   1      32.946  22.514 -19.037  0.00  0.00     0.026 A 
ATOM     17  C   UNL d   1      32.664  23.288 -19.077  0.00  0.00     0.100 A 
ATOM     18  C   UNL d   1      32.574  23.655 -19.816  0.00  0.00     0.026 A 
ATOM     19  C   UNL d   1      32.766  23.250 -20.505  0.00  0.00     0.021 A 
BRANCH  17  20
ATOM     20  O   UNL d   1      32.470  23.699 -18.381  0.00  0.00    -0.305 OA
BRANCH  20  21
ATOM     21  C   UNL d   1      32.396  23.287 -17.669  0.00  0.00     0.123 C 
ATOM     22  C   UNL d   1      32.256  23.699 -16.971  0.00  0.00     0.029 C 
ENDBRANCH  20  21
ENDBRANCH  17  20
ENDBRANCH  13  14
ENDBRANCH   1  13
TORSDOF 5
ENDMDL
