MODEL 1
REMARK VINA RESULT:       9.2      0.000      0.000
REMARK  5 active torsions:
REMARK  status: ('A' for Active; 'I' for Inactive)
REMARK    1  A    between atoms: N_10  and  C_2 
REMARK    2  A    between atoms: C_14  and  C_3 
REMARK    3  A    between atoms: C_5  and  S_13 
REMARK       I    between atoms: C_12  and  N_10 
REMARK    4  A    between atoms: C_16  and  C_12 
REMARK    5  A    between atoms: S_13  and  C_16 
ROOT
ATOM      1  N   UNL d   1      46.112 -15.048  44.660  0.00  0.00    -0.051 NA
ATOM      2  C   UNL d   1      45.779 -15.784  44.812  0.00  0.00     0.760 A 
ATOM      3  C   UNL d   1      45.501 -14.511  44.570  0.00  0.00     0.147 A 
ATOM      4  N   UNL d   1      44.970 -15.702  44.817  0.00  0.00    -0.019 NA
ATOM      5  S   UNL d   1      44.797 -14.913  44.667  0.00  0.00     0.052 SA
ENDROOT
BRANCH   2   6
ATOM      6  N   UNL d   1      46.198 -16.498  44.941  0.00  0.00    -0.018 NA
ATOM      7  C   UNL d   1      46.139 -17.115  44.406  0.00  0.00     0.302 C 
ATOM      8  O   UNL d   1      45.666 -17.030  43.740  0.00  0.00    -0.264 OA
BRANCH   7   9
ATOM      9  C   UNL d   1      46.551 -17.818  44.532  0.00  0.00     0.100 C 
BRANCH   9  10
ATOM     10  S   UNL d   1      46.139 -18.536  44.556  0.00  0.00    -0.054 SA
BRANCH  10  11
ATOM     11  C   UNL d   1      46.304 -19.128  44.004  0.00  0.00     0.164 A 
ATOM     12  S   UNL d   1      46.360 -19.026  43.194  0.00  0.00    -0.039 SA
ATOM     13  C   UNL d   1      46.533 -19.765  42.857  0.00  0.00     0.134 A 
ATOM     14  C   UNL d   1      46.639 -19.920  42.049  0.00  0.00     0.030 C 
ATOM     15  N   UNL d   1      46.583 -20.319  43.468  0.00  0.00    -0.140 NA
ATOM     16  N   UNL d   1      46.441 -19.927  44.180  0.00  0.00    -0.134 NA
ENDBRANCH  10  11
ENDBRANCH   9  10
ENDBRANCH   7   9
ENDBRANCH   2   6
BRANCH   3  17
ATOM     17  C   UNL d   1      45.546 -13.702  44.411  0.00  0.00     0.026 A 
ATOM     18  C   UNL d   1      45.211 -13.400  43.721  0.00  0.00     0.002 A 
ATOM     19  C   UNL d   1      45.256 -12.588  43.563  0.00  0.00     0.000 A 
ATOM     20  C   UNL d   1      45.631 -12.081  44.085  0.00  0.00     0.000 A 
ATOM     21  C   UNL d   1      45.965 -12.383  44.774  0.00  0.00     0.000 A 
ATOM     22  C   UNL d   1      45.923 -13.199  44.940  0.00  0.00     0.002 A 
ENDBRANCH   3  17
TORSDOF 5
ENDMDL
