MODEL 1
REMARK VINA RESULT:       8.6      0.000      0.000
REMARK  6 active torsions:
REMARK  status: ('A' for Active; 'I' for Inactive)
REMARK       I    between atoms: N_2  and  C_1 
REMARK    1  A    between atoms: C_14  and  C_1 
REMARK    2  A    between atoms: C_6  and  N_2 
REMARK    3  A    between atoms: C_4  and  O_13 
REMARK    4  A    between atoms: O_13  and  C_18 
REMARK    5  A    between atoms: C_19  and  C_14 
REMARK    6  A    between atoms: C_18  and  C_19 
ROOT
ATOM      1  C   UNL d   1      45.879 -16.478  43.997  0.00  0.00     0.078 C 
ENDROOT
BRANCH   1   2
ATOM      2  C   UNL d   1      46.189 -17.218  44.180  0.00  0.00     0.328 C 
ATOM      3  N   UNL d   1      46.280 -17.795  43.584  0.00  0.00    -0.365 NA
ATOM      4  O   UNL d   1      46.410 -17.394  44.954  0.00  0.00    -0.251 OA
BRANCH   3   5
ATOM      5  C   UNL d   1      46.369 -18.361  42.999  0.00  0.00     0.135 A 
ATOM      6  C   UNL d   1      46.554 -18.123  42.218  0.00  0.00     0.033 A 
ATOM      7  C   UNL d   1      46.642 -18.703  41.634  0.00  0.00     0.009 A 
ATOM      8  C   UNL d   1      46.552 -19.503  41.816  0.00  0.00     0.035 A 
ATOM      9  C   UNL d   1      46.370 -19.737  42.586  0.00  0.00     0.009 A 
ATOM     10 BR   UNL d   1      46.644 -20.066  41.220  0.00  0.00    -0.049 Br
ATOM     11  C   UNL d   1      46.279 -19.161  43.181  0.00  0.00     0.033 A 
ENDBRANCH   3   5
ENDBRANCH   1   2
BRANCH   1  12
ATOM     12  C   UNL d   1      45.956 -15.855  44.519  0.00  0.00     0.033 C 
BRANCH  12  13
ATOM     13  C   UNL d   1      45.485 -15.189  44.455  0.00  0.00     0.123 C 
BRANCH  13  14
ATOM     14  O   UNL d   1      45.780 -14.447  44.636  0.00  0.00    -0.305 OA
BRANCH  14  15
ATOM     15  C   UNL d   1      45.491 -13.780  44.251  0.00  0.00     0.100 A 
ATOM     16  C   UNL d   1      45.826 -13.030  44.398  0.00  0.00     0.023 A 
ATOM     17  C   UNL d   1      46.447 -12.961  44.930  0.00  0.00     0.002 C 
ATOM     18  C   UNL d   1      45.534 -12.363  44.011  0.00  0.00     0.002 A 
ATOM     19  C   UNL d   1      44.910 -12.433  43.476  0.00  0.00     0.000 A 
ATOM     20  C   UNL d   1      44.568 -13.170  43.321  0.00  0.00     0.002 A 
ATOM     21  C   UNL d   1      44.863 -13.849  43.713  0.00  0.00     0.025 A 
ENDBRANCH  14  15
ENDBRANCH  13  14
ENDBRANCH  12  13
ENDBRANCH   1  12
TORSDOF 6
ENDMDL
