MODEL 1
REMARK VINA RESULT:      -8.1      0.000      0.000
REMARK  2 active torsions:
REMARK  status: ('A' for Active; 'I' for Inactive)
REMARK    1  A    between atoms: N_2  and  N_1 
REMARK    2  A    between atoms: N_8  and  C_10 
ROOT
ATOM      1  N   UNL d   1     -48.612  13.251  22.493  0.00  0.00    -0.171 N 
ATOM      2  C   UNL d   1     -47.908  12.863  22.638  0.00  0.00     0.283 A 
ATOM      3  C   UNL d   1     -47.313  13.445  22.729  0.00  0.00     0.085 A 
ATOM      4  C   UNL d   1     -48.476  14.065  22.490  0.00  0.00     0.282 A 
ATOM      5  C   UNL d   1     -47.669  14.196  22.637  0.00  0.00     0.064 A 
ATOM      6  C   UNL d   1     -46.507  13.391  22.882  0.00  0.00     0.131 A 
ATOM      7  O   UNL d   1     -47.828  12.041  22.681  0.00  0.00    -0.265 OA
ATOM      8  O   UNL d   1     -49.065  14.656  22.359  0.00  0.00    -0.265 OA
ATOM      9  C   UNL d   1     -47.211  14.880  22.699  0.00  0.00     0.005 A 
ATOM     10  C   UNL d   1     -46.051  14.068  22.944  0.00  0.00     0.024 A 
ATOM     11  C   UNL d   1     -46.399  14.803  22.853  0.00  0.00     0.002 A 
ENDROOT
BRANCH   1  12
ATOM     12  N   UNL d   1     -49.375  12.974  22.359  0.00  0.00    -0.189 N 
ATOM     13  C   UNL d   1     -50.009  12.806  22.845  0.00  0.00     0.169 A 
ATOM     14  S   UNL d   1     -50.626  12.544  22.372  0.00  0.00    -0.051 SA
ATOM     15  S   UNL d   1     -50.029  12.888  23.697  0.00  0.00    -0.050 SA
ATOM     16  C   UNL d   1     -50.375  12.549  21.589  0.00  0.00     0.100 A 
ATOM     17  C   UNL d   1     -49.608  12.812  21.573  0.00  0.00     0.287 A 
ATOM     18  O   UNL d   1     -49.150  12.900  20.899  0.00  0.00    -0.265 OA
ENDBRANCH   1  12
BRANCH   6  19
ATOM     19  N   UNL d   1     -46.148  12.632  22.975  0.00  0.00    -0.114 N 
ATOM     20  O   UNL d   1     -45.761  12.281  22.340  0.00  0.00    -0.532 OA
ATOM     21  O   UNL d   1     -46.187  12.247  23.698  0.00  0.00    -0.532 OA
ENDBRANCH   6  19
TORSDOF 2
ENDMDL
MODEL 2
REMARK VINA RESULT:      -8.0      1.542      3.443
REMARK  2 active torsions:
REMARK  status: ('A' for Active; 'I' for Inactive)
REMARK    1  A    between atoms: N_2  and  N_1 
REMARK    2  A    between atoms: N_8  and  C_10 
ROOT
ATOM      1  N   UNL d   1     -48.387  13.268  22.591  0.00  0.00    -0.171 N 
ATOM      2  C   UNL d   1     -48.860  13.876  22.864  0.00  0.00     0.283 A 
ATOM      3  C   UNL d   1     -49.547  13.894  22.388  0.00  0.00     0.085 A 
ATOM      4  C   UNL d   1     -48.761  12.901  21.953  0.00  0.00     0.282 A 
ATOM      5  C   UNL d   1     -49.485  13.285  21.819  0.00  0.00     0.064 A 
ATOM      6  C   UNL d   1     -50.212  14.378  22.397  0.00  0.00     0.131 A 
ATOM      7  O   UNL d   1     -48.666  14.369  23.499  0.00  0.00    -0.265 OA
ATOM      8  O   UNL d   1     -48.450  12.248  21.519  0.00  0.00    -0.265 OA
ATOM      9  C   UNL d   1     -50.090  13.170  21.269  0.00  0.00     0.005 A 
ATOM     10  C   UNL d   1     -50.813  14.266  21.852  0.00  0.00     0.024 A 
ATOM     11  C   UNL d   1     -50.753  13.669  21.296  0.00  0.00     0.002 A 
ENDROOT
BRANCH   1  12
ATOM     12  N   UNL d   1     -47.653  12.989  22.838  0.00  0.00    -0.189 N 
ATOM     13  C   UNL d   1     -47.414  12.367  23.309  0.00  0.00     0.169 A 
ATOM     14  S   UNL d   1     -46.593  12.381  23.345  0.00  0.00    -0.051 SA
ATOM     15  S   UNL d   1     -47.924  11.801  23.698  0.00  0.00    -0.050 SA
ATOM     16  C   UNL d   1     -46.322  13.013  22.894  0.00  0.00     0.100 A 
ATOM     17  C   UNL d   1     -46.968  13.391  22.579  0.00  0.00     0.287 A 
ATOM     18  O   UNL d   1     -46.940  14.052  22.095  0.00  0.00    -0.265 OA
ENDBRANCH   1  12
BRANCH   6  19
ATOM     19  N   UNL d   1     -50.275  14.994  22.972  0.00  0.00    -0.114 N 
ATOM     20  O   UNL d   1     -49.985  15.744  22.801  0.00  0.00    -0.532 OA
ATOM     21  O   UNL d   1     -50.624  14.842  23.698  0.00  0.00    -0.532 OA
ENDBRANCH   6  19
TORSDOF 2
ENDMDL
MODEL 3
REMARK VINA RESULT:      -6.1      8.567      9.332
REMARK  2 active torsions:
REMARK  status: ('A' for Active; 'I' for Inactive)
REMARK    1  A    between atoms: N_2  and  N_1 
REMARK    2  A    between atoms: N_8  and  C_10 
ROOT
ATOM      1  N   UNL d   1     -39.811  14.967  18.847  0.00  0.00    -0.171 N 
ATOM      2  C   UNL d   1     -39.525  14.702  19.564  0.00  0.00     0.283 A 
ATOM      3  C   UNL d   1     -40.000  15.040  20.165  0.00  0.00     0.085 A 
ATOM      4  C   UNL d   1     -40.456  15.465  18.979  0.00  0.00     0.282 A 
ATOM      5  C   UNL d   1     -40.581  15.516  19.799  0.00  0.00     0.064 A 
ATOM      6  C   UNL d   1     -39.979  14.977  20.985  0.00  0.00     0.131 A 
ATOM      7  O   UNL d   1     -38.880  14.191  19.650  0.00  0.00    -0.265 OA
ATOM      8  O   UNL d   1     -40.904  15.851  18.378  0.00  0.00    -0.265 OA
ATOM      9  C   UNL d   1     -41.132  15.922  20.260  0.00  0.00     0.005 A 
ATOM     10  C   UNL d   1     -40.525  15.379  21.444  0.00  0.00     0.024 A 
ATOM     11  C   UNL d   1     -41.094  15.845  21.086  0.00  0.00     0.002 A 
ENDROOT
BRANCH   1  12
ATOM     12  N   UNL d   1     -39.572  14.823  18.072  0.00  0.00    -0.189 N 
ATOM     13  C   UNL d   1     -39.039  15.183  17.569  0.00  0.00     0.169 A 
ATOM     14  S   UNL d   1     -39.050  14.773  16.857  0.00  0.00    -0.051 SA
ATOM     15  S   UNL d   1     -38.555  15.866  17.748  0.00  0.00    -0.050 SA
ATOM     16  C   UNL d   1     -39.590  14.157  16.919  0.00  0.00     0.100 A 
ATOM     17  C   UNL d   1     -39.915  14.181  17.662  0.00  0.00     0.287 A 
ATOM     18  O   UNL d   1     -40.480  13.662  17.950  0.00  0.00    -0.265 OA
ENDBRANCH   1  12
BRANCH   6  19
ATOM     19  N   UNL d   1     -39.392  14.495  21.354  0.00  0.00    -0.114 N 
ATOM     20  O   UNL d   1     -38.659  14.818  21.545  0.00  0.00    -0.532 OA
ATOM     21  O   UNL d   1     -39.553  13.709  21.521  0.00  0.00    -0.532 OA
ENDBRANCH   6  19
TORSDOF 2
ENDMDL
MODEL 4
REMARK VINA RESULT:      -6.1      8.239      9.625
REMARK  2 active torsions:
REMARK  status: ('A' for Active; 'I' for Inactive)
REMARK    1  A    between atoms: N_2  and  N_1 
REMARK    2  A    between atoms: N_8  and  C_10 
ROOT
ATOM      1  N   UNL d   1     -39.773  14.733  19.427  0.00  0.00    -0.171 N 
ATOM      2  C   UNL d   1     -40.119  15.021  18.746  0.00  0.00     0.283 A 
ATOM      3  C   UNL d   1     -39.821  14.576  18.104  0.00  0.00     0.085 A 
ATOM      4  C   UNL d   1     -39.263  14.115  19.231  0.00  0.00     0.282 A 
ATOM      5  C   UNL d   1     -39.285  14.010  18.407  0.00  0.00     0.064 A 
ATOM      6  C   UNL d   1     -39.963  14.610  17.294  0.00  0.00     0.131 A 
ATOM      7  O   UNL d   1     -40.664  15.643  18.726  0.00  0.00    -0.265 OA
ATOM      8  O   UNL d   1     -38.801  13.672  19.781  0.00  0.00    -0.265 OA
ATOM      9  C   UNL d   1     -38.902  13.488  17.895  0.00  0.00     0.005 A 
ATOM     10  C   UNL d   1     -39.584  14.094  16.785  0.00  0.00     0.024 A 
ATOM     11  C   UNL d   1     -39.061  13.540  17.081  0.00  0.00     0.002 A 
ENDROOT
BRANCH   1  12
ATOM     12  N   UNL d   1     -39.851  14.949  20.217  0.00  0.00    -0.189 N 
ATOM     13  C   UNL d   1     -39.438  15.452  20.710  0.00  0.00     0.169 A 
ATOM     14  S   UNL d   1     -39.795  15.428  21.450  0.00  0.00    -0.051 SA
ATOM     15  S   UNL d   1     -38.755  15.922  20.496  0.00  0.00    -0.050 SA
ATOM     16  C   UNL d   1     -40.431  14.909  21.416  0.00  0.00     0.100 A 
ATOM     17  C   UNL d   1     -40.472  14.610  20.663  0.00  0.00     0.287 A 
ATOM     18  O   UNL d   1     -41.029  14.071  20.396  0.00  0.00    -0.265 OA
ENDBRANCH   1  12
BRANCH   6  19
ATOM     19  N   UNL d   1     -40.504  15.183  16.988  0.00  0.00    -0.114 N 
ATOM     20  O   UNL d   1     -40.228  15.920  16.749  0.00  0.00    -0.532 OA
ATOM     21  O   UNL d   1     -41.301  15.002  16.930  0.00  0.00    -0.532 OA
ENDBRANCH   6  19
TORSDOF 2
ENDMDL
