MODEL 1
REMARK VINA RESULT:      36.7      0.000      0.000
REMARK  3 active torsions:
REMARK  status: ('A' for Active; 'I' for Inactive)
REMARK    1  A    between atoms: C_7  and  C_1 
REMARK    2  A    between atoms: C_6  and  C_3 
REMARK    3  A    between atoms: O_15  and  C_7 
ROOT
ATOM      1  C   UNL d   1     -55.205-100.010 -44.278  0.00  0.00     0.167 A 
ATOM      2  C   UNL d   1     -55.253-100.219 -43.478  0.00  0.00     0.047 A 
ATOM      3  C   UNL d   1     -54.951-100.982 -43.397  0.00  0.00     0.105 A 
ATOM      4  N   UNL d   1     -54.716-101.248 -44.147  0.00  0.00    -0.148 NA
ATOM      5  N   UNL d   1     -54.876-100.643 -44.683  0.00  0.00    -0.143 NA
ENDROOT
BRANCH   3   6
ATOM      6  C   UNL d   1     -54.893-101.410 -42.689  0.00  0.00     0.030 A 
ATOM      7  C   UNL d   1     -54.931-102.235 -42.704  0.00  0.00     0.060 A 
ATOM      8  C   UNL d   1     -54.874-102.664 -42.005  0.00  0.00     0.023 A 
ATOM      9 CL   UNL d   1     -55.028-102.626 -43.425  0.00  0.00    -0.082 Cl
ATOM     10  C   UNL d   1     -54.776-102.264 -41.279  0.00  0.00     0.059 A 
ATOM     11  C   UNL d   1     -54.738-101.436 -41.274  0.00  0.00     0.011 A 
ATOM     12 CL   UNL d   1     -54.719-102.693 -40.581  0.00  0.00    -0.082 Cl
ATOM     13  C   UNL d   1     -54.797-101.012 -41.978  0.00  0.00     0.003 A 
ENDBRANCH   3   6
BRANCH   1  14
ATOM     14  C   UNL d   1     -55.446 -99.293 -44.604  0.00  0.00     0.316 C 
ATOM     15  O   UNL d   1     -54.931 -98.875 -45.094  0.00  0.00    -0.257 OA
BRANCH  14  16
ATOM     16  O   UNL d   1     -56.199 -98.994 -44.442  0.00  0.00    -0.294 OA
ATOM     17  C   UNL d   1     -56.714 -98.805 -45.055  0.00  0.00     0.185 C 
ENDBRANCH  14  16
ENDBRANCH   1  14
TORSDOF 3
ENDMDL
MODEL 2
REMARK VINA RESULT:      38.8      2.532      3.152
REMARK  3 active torsions:
REMARK  status: ('A' for Active; 'I' for Inactive)
REMARK    1  A    between atoms: C_7  and  C_1 
REMARK    2  A    between atoms: C_6  and  C_3 
REMARK    3  A    between atoms: O_15  and  C_7 
ROOT
ATOM      1  C   UNL d   1     -57.842 -99.242 -44.350  0.00  0.00     0.167 A 
ATOM      2  C   UNL d   1     -57.568-100.012 -44.481  0.00  0.00     0.047 A 
ATOM      3  C   UNL d   1     -56.744 -99.995 -44.452  0.00  0.00     0.105 A 
ATOM      4  N   UNL d   1     -56.507 -99.215 -44.302  0.00  0.00    -0.148 NA
ATOM      5  N   UNL d   1     -57.190 -98.757 -44.241  0.00  0.00    -0.143 NA
ENDROOT
BRANCH   3   6
ATOM      6  C   UNL d   1     -56.239-100.645 -44.554  0.00  0.00     0.030 A 
ATOM      7  C   UNL d   1     -55.428-100.560 -44.428  0.00  0.00     0.060 A 
ATOM      8  C   UNL d   1     -54.924-101.201 -44.528  0.00  0.00     0.023 A 
ATOM      9 CL   UNL d   1     -55.125 -99.825 -44.202  0.00  0.00    -0.082 Cl
ATOM     10  C   UNL d   1     -55.234-101.941 -44.757  0.00  0.00     0.059 A 
ATOM     11  C   UNL d   1     -56.050-102.018 -44.881  0.00  0.00     0.011 A 
ATOM     12 CL   UNL d   1     -54.730-102.582 -44.857  0.00  0.00    -0.082 Cl
ATOM     13  C   UNL d   1     -56.550-101.371 -44.779  0.00  0.00     0.003 A 
ENDBRANCH   3   6
BRANCH   1  14
ATOM     14  C   UNL d   1     -58.632 -99.008 -44.333  0.00  0.00     0.316 C 
ATOM     15  O   UNL d   1     -59.022 -98.943 -43.609  0.00  0.00    -0.257 OA
BRANCH  14  16
ATOM     16  O   UNL d   1     -59.033 -98.840 -45.035  0.00  0.00    -0.294 OA
ATOM     17  C   UNL d   1     -59.854 -98.839 -45.058  0.00  0.00     0.185 C 
ENDBRANCH  14  16
ENDBRANCH   1  14
TORSDOF 3
ENDMDL
