MODEL 1
REMARK VINA RESULT:      40.4      0.000      0.000
REMARK  1 active torsions:
REMARK  status: ('A' for Active; 'I' for Inactive)
REMARK    1  A    between atoms: C_7  and  C_2 
ROOT
ATOM      1  C   UNL d   1     -51.402  24.418  33.493  0.00  0.00     0.257 A 
ATOM      2  C   UNL d   1     -50.679  24.810  33.489  0.00  0.00     0.142 A 
ATOM      3  C   UNL d   1     -52.108  24.848  33.451  0.00  0.00     0.238 A 
ATOM      4  O   UNL d   1     -50.664  25.623  33.443  0.00  0.00    -0.304 OA
ATOM      5  C   UNL d   1     -52.078  25.687  33.404  0.00  0.00     0.065 A 
ATOM      6  C   UNL d   1     -51.355  26.079  33.399  0.00  0.00     0.103 A 
ATOM      7  O   UNL d   1     -52.842  24.439  33.456  0.00  0.00    -0.283 OA
ATOM      8  O   UNL d   1     -51.432  23.580  33.540  0.00  0.00    -0.281 OA
ATOM      9  C   UNL d   1     -52.789  26.120  33.362  0.00  0.00     0.005 A 
ATOM     10  C   UNL d   1     -51.340  26.892  33.353  0.00  0.00     0.025 A 
ATOM     11  C   UNL d   1     -52.769  26.941  33.315  0.00  0.00     0.000 A 
ATOM     12  C   UNL d   1     -52.052  27.325  33.311  0.00  0.00     0.002 A 
ENDROOT
BRANCH   2  13
ATOM     13  C   UNL d   1     -49.957  24.394  33.530  0.00  0.00     0.026 A 
ATOM     14  C   UNL d   1     -49.970  23.600  33.810  0.00  0.00     0.002 A 
ATOM     15  C   UNL d   1     -49.255  23.193  33.850  0.00  0.00     0.000 A 
ATOM     16  C   UNL d   1     -48.538  23.532  33.627  0.00  0.00     0.000 A 
ATOM     17  C   UNL d   1     -48.540  24.314  33.354  0.00  0.00     0.000 A 
ATOM     18  C   UNL d   1     -49.243  24.740  33.306  0.00  0.00     0.002 A 
ENDBRANCH   2  13
TORSDOF 1
ENDMDL
