MODEL 1
REMARK VINA RESULT:      79.2      0.000      0.000
REMARK  6 active torsions:
REMARK  status: ('A' for Active; 'I' for Inactive)
REMARK    1  A    between atoms: N_5  and  C_1 
REMARK    2  A    between atoms: N_7  and  C_2 
REMARK    3  A    between atoms: C_8  and  N_3 
REMARK    4  A    between atoms: C_18  and  C_8 
REMARK    5  A    between atoms: C_14  and  N_9 
REMARK    6  A    between atoms: C_19  and  C_14 
ROOT
ATOM      1  C   UNL d   1     -47.532  30.211  35.955  0.00  0.00     0.242 A 
ATOM      2  C   UNL d   1     -47.750  30.176  35.160  0.00  0.00     0.175 A 
ATOM      3  N   UNL d   1     -47.599  30.925  34.822  0.00  0.00    -0.274 N 
ATOM      4  N   UNL d   1     -47.245  30.979  36.115  0.00  0.00    -0.203 NA
ATOM      5  C   UNL d   1     -47.292  31.408  35.409  0.00  0.00     0.151 A 
ATOM      6  C   UNL d   1     -47.067  32.196  35.311  0.00  0.00     0.041 C 
ENDROOT
BRANCH   2   7
ATOM      7  N   UNL d   1     -48.047  29.451  34.911  0.00  0.00    -0.285 N 
ATOM      8  C   UNL d   1     -48.856  29.355  34.771  0.00  0.00     0.101 A 
ATOM      9  C   UNL d   1     -49.144  28.619  34.519  0.00  0.00     0.100 A 
ATOM     10  N   UNL d   1     -48.632  27.991  34.409  0.00  0.00    -0.300 N 
ATOM     11  C   UNL d   1     -47.822  28.088  34.549  0.00  0.00     0.100 A 
ATOM     12  C   UNL d   1     -47.533  28.811  34.798  0.00  0.00     0.101 A 
BRANCH  10  13
ATOM     13  C   UNL d   1     -48.923  27.254  34.157  0.00  0.00     0.080 C 
BRANCH  13  14
ATOM     14  C   UNL d   1     -49.689  27.192  33.875  0.00  0.00     0.018 A 
ATOM     15  C   UNL d   1     -50.064  26.455  33.854  0.00  0.00     0.002 A 
ATOM     16  C   UNL d   1     -50.834  26.386  33.572  0.00  0.00     0.000 A 
ATOM     17  C   UNL d   1     -51.236  27.063  33.306  0.00  0.00     0.000 A 
ATOM     18  C   UNL d   1     -50.860  27.800  33.326  0.00  0.00     0.000 A 
ATOM     19  C   UNL d   1     -50.082  27.860  33.614  0.00  0.00     0.002 A 
ENDBRANCH  13  14
ENDBRANCH  10  13
ENDBRANCH   2   7
BRANCH   1  20
ATOM     20  N   UNL d   1     -47.584  29.596  36.510  0.00  0.00    -0.092 N 
ATOM     21  O   UNL d   1     -48.282  29.463  36.919  0.00  0.00    -0.530 OA
ATOM     22  O   UNL d   1     -46.923  29.117  36.648  0.00  0.00    -0.530 OA
ENDBRANCH   1  20
BRANCH   3  23
ATOM     23  C   UNL d   1     -47.739  31.129  34.034  0.00  0.00     0.083 C 
BRANCH  23  24
ATOM     24  C   UNL d   1     -47.854  31.915  33.816  0.00  0.00     0.018 A 
ATOM     25  C   UNL d   1     -48.606  32.254  33.894  0.00  0.00     0.002 A 
ATOM     26  C   UNL d   1     -48.727  33.045  33.676  0.00  0.00     0.000 A 
ATOM     27  C   UNL d   1     -48.100  33.486  33.384  0.00  0.00     0.000 A 
ATOM     28  C   UNL d   1     -47.354  33.152  33.306  0.00  0.00     0.000 A 
ATOM     29  C   UNL d   1     -47.233  32.361  33.524  0.00  0.00     0.002 A 
ENDBRANCH  23  24
ENDBRANCH   3  23
TORSDOF 6
ENDMDL
MODEL 2
REMARK VINA RESULT:      80.3      0.755      1.104
REMARK  6 active torsions:
REMARK  status: ('A' for Active; 'I' for Inactive)
REMARK    1  A    between atoms: N_5  and  C_1 
REMARK    2  A    between atoms: N_7  and  C_2 
REMARK    3  A    between atoms: C_8  and  N_3 
REMARK    4  A    between atoms: C_18  and  C_8 
REMARK    5  A    between atoms: C_14  and  N_9 
REMARK    6  A    between atoms: C_19  and  C_14 
ROOT
ATOM      1  C   UNL d   1     -48.005  29.246  35.969  0.00  0.00     0.242 A 
ATOM      2  C   UNL d   1     -48.044  29.400  35.159  0.00  0.00     0.175 A 
ATOM      3  N   UNL d   1     -47.705  30.152  35.027  0.00  0.00    -0.274 N 
ATOM      4  N   UNL d   1     -47.643  29.898  36.343  0.00  0.00    -0.203 NA
ATOM      5  C   UNL d   1     -47.463  30.449  35.753  0.00  0.00     0.151 A 
ATOM      6  C   UNL d   1     -47.098  31.180  35.873  0.00  0.00     0.041 C 
ENDROOT
BRANCH   2   7
ATOM      7  N   UNL d   1     -48.389  28.808  34.706  0.00  0.00    -0.285 N 
ATOM      8  C   UNL d   1     -49.188  28.852  34.495  0.00  0.00     0.101 A 
ATOM      9  C   UNL d   1     -49.525  28.249  34.038  0.00  0.00     0.100 A 
ATOM     10  N   UNL d   1     -49.073  27.612  33.795  0.00  0.00    -0.300 N 
ATOM     11  C   UNL d   1     -48.274  27.568  34.006  0.00  0.00     0.100 A 
ATOM     12  C   UNL d   1     -47.936  28.161  34.457  0.00  0.00     0.101 A 
BRANCH  10  13
ATOM     13  C   UNL d   1     -49.414  27.008  33.337  0.00  0.00     0.080 C 
BRANCH  13  14
ATOM     14  C   UNL d   1     -50.225  26.903  33.336  0.00  0.00     0.018 A 
ATOM     15  C   UNL d   1     -50.545  26.141  33.364  0.00  0.00     0.002 A 
ATOM     16  C   UNL d   1     -51.360  26.029  33.364  0.00  0.00     0.000 A 
ATOM     17  C   UNL d   1     -51.865  26.689  33.335  0.00  0.00     0.000 A 
ATOM     18  C   UNL d   1     -51.545  27.452  33.308  0.00  0.00     0.000 A 
ATOM     19  C   UNL d   1     -50.720  27.554  33.308  0.00  0.00     0.002 A 
ENDBRANCH  13  14
ENDBRANCH  10  13
ENDBRANCH   2   7
BRANCH   1  20
ATOM     20  N   UNL d   1     -48.276  28.563  36.356  0.00  0.00    -0.092 N 
ATOM     21  O   UNL d   1     -47.868  27.856  36.285  0.00  0.00    -0.530 OA
ATOM     22  O   UNL d   1     -48.964  28.603  36.814  0.00  0.00    -0.530 OA
ENDBRANCH   1  20
BRANCH   3  23
ATOM     23  C   UNL d   1     -47.632  30.520  34.292  0.00  0.00     0.083 C 
BRANCH  23  24
ATOM     24  C   UNL d   1     -47.783  31.326  34.206  0.00  0.00     0.018 A 
ATOM     25  C   UNL d   1     -47.161  31.867  34.285  0.00  0.00     0.002 A 
ATOM     26  C   UNL d   1     -47.308  32.679  34.199  0.00  0.00     0.000 A 
ATOM     27  C   UNL d   1     -48.069  32.940  34.037  0.00  0.00     0.000 A 
ATOM     28  C   UNL d   1     -48.686  32.404  33.958  0.00  0.00     0.000 A 
ATOM     29  C   UNL d   1     -48.539  31.593  34.044  0.00  0.00     0.002 A 
ENDBRANCH  23  24
ENDBRANCH   3  23
TORSDOF 6
ENDMDL
