MODEL 1
REMARK VINA RESULT:       7.7      0.000      0.000
REMARK  3 active torsions:
REMARK  status: ('A' for Active; 'I' for Inactive)
REMARK    1  A    between atoms: C_10  and  C_3 
REMARK    2  A    between atoms: O_13  and  C_10 
REMARK    3  A    between atoms: C_12  and  O_13 
ROOT
ATOM      1  C   UNL d   1      46.298 -18.720  43.156  0.00  0.00     0.002 A 
ATOM      2  C   UNL d   1      46.288 -17.919  43.353  0.00  0.00     0.025 A 
ATOM      3  C   UNL d   1      46.285 -19.296  43.762  0.00  0.00     0.000 A 
ATOM      4  C   UNL d   1      46.262 -19.061  44.555  0.00  0.00     0.002 A 
ATOM      5  C   UNL d   1      46.265 -17.685  44.140  0.00  0.00     0.100 A 
ATOM      6  C   UNL d   1      46.252 -18.260  44.745  0.00  0.00     0.025 A 
ATOM      7  C   UNL d   1      46.321 -18.957  42.374  0.00  0.00     0.000 A 
ATOM      8  C   UNL d   1      46.295 -20.095  43.572  0.00  0.00     0.000 A 
ATOM      9  C   UNL d   1      46.331 -19.754  42.174  0.00  0.00     0.000 A 
ATOM     10  C   UNL d   1      46.318 -20.330  42.780  0.00  0.00     0.000 A 
ENDROOT
BRANCH   5  11
ATOM     11  O   UNL d   1      46.255 -16.881  44.339  0.00  0.00    -0.304 OA
BRANCH  11  12
ATOM     12  C   UNL d   1      45.532 -16.518  44.531  0.00  0.00     0.142 C 
BRANCH  12  13
ATOM     13  C   UNL d   1      45.493 -15.701  44.635  0.00  0.00     0.115 A 
ATOM     14  N   UNL d   1      46.084 -15.154  44.450  0.00  0.00    -0.217 NA
ATOM     15  C   UNL d   1      45.807 -14.401  44.646  0.00  0.00     0.215 A 
ATOM     16  S   UNL d   1      45.040 -14.486  44.955  0.00  0.00    -0.045 SA
ATOM     17  N   UNL d   1      46.220 -13.695  44.551  0.00  0.00    -0.120 N 
ATOM     18  C   UNL d   1      44.844 -15.286  44.949  0.00  0.00     0.060 A 
ENDBRANCH  12  13
ENDBRANCH  11  12
ENDBRANCH   5  11
TORSDOF 3
ENDMDL
MODEL 2
REMARK VINA RESULT:      10.0      2.018      4.626
REMARK  3 active torsions:
REMARK  status: ('A' for Active; 'I' for Inactive)
REMARK    1  A    between atoms: C_10  and  C_3 
REMARK    2  A    between atoms: O_13  and  C_10 
REMARK    3  A    between atoms: C_12  and  O_13 
ROOT
ATOM      1  C   UNL d   1      45.929 -14.655  44.684  0.00  0.00     0.002 A 
ATOM      2  C   UNL d   1      46.179 -15.441  44.666  0.00  0.00     0.025 A 
ATOM      3  C   UNL d   1      45.124 -14.480  44.822  0.00  0.00     0.000 A 
ATOM      4  C   UNL d   1      44.582 -15.093  44.940  0.00  0.00     0.002 A 
ATOM      5  C   UNL d   1      45.642 -16.051  44.784  0.00  0.00     0.100 A 
ATOM      6  C   UNL d   1      44.836 -15.875  44.921  0.00  0.00     0.025 A 
ATOM      7  C   UNL d   1      46.462 -14.046  44.568  0.00  0.00     0.000 A 
ATOM      8  C   UNL d   1      44.869 -13.698  44.840  0.00  0.00     0.000 A 
ATOM      9  C   UNL d   1      46.216 -13.261  44.584  0.00  0.00     0.000 A 
ATOM     10  C   UNL d   1      45.411 -13.085  44.722  0.00  0.00     0.000 A 
ENDROOT
BRANCH   5  11
ATOM     11  O   UNL d   1      45.892 -16.840  44.766  0.00  0.00    -0.304 OA
BRANCH  11  12
ATOM     12  C   UNL d   1      46.033 -17.206  44.034  0.00  0.00     0.142 C 
BRANCH  12  13
ATOM     13  C   UNL d   1      46.237 -18.005  44.002  0.00  0.00     0.115 A 
ATOM     14  N   UNL d   1      46.306 -18.520  44.645  0.00  0.00    -0.217 NA
ATOM     15  C   UNL d   1      46.520 -19.263  44.356  0.00  0.00     0.215 A 
ATOM     16  S   UNL d   1      46.584 -19.205  43.530  0.00  0.00    -0.045 SA
ATOM     17  N   UNL d   1      46.647 -19.938  44.810  0.00  0.00    -0.120 N 
ATOM     18  C   UNL d   1      46.410 -18.430  43.308  0.00  0.00     0.060 A 
ENDBRANCH  12  13
ENDBRANCH  11  12
ENDBRANCH   5  11
TORSDOF 3
ENDMDL
