MODEL 1
REMARK VINA RESULT:      -3.1      0.000      0.000
REMARK  5 active torsions:
REMARK  status: ('A' for Active; 'I' for Inactive)
REMARK    1  A    between atoms: C_12  and  N_4 
REMARK    2  A    between atoms: C_10  and  N_6 
REMARK    3  A    between atoms: C_11  and  C_10 
REMARK       I    between atoms: N_14  and  C_11 
REMARK    4  A    between atoms: C_16  and  N_14 
REMARK    5  A    between atoms: C_17  and  C_16 
ROOT
ATOM      1  C   UNL d   1      31.096  16.582 -24.020  0.00  0.00     0.172 A 
ATOM      2  C   UNL d   1      31.836  16.355 -24.306  0.00  0.00     0.113 A 
ATOM      3  N   UNL d   1      31.018  17.264 -23.571  0.00  0.00    -0.206 NA
ATOM      4  N   UNL d   1      30.547  16.014 -24.276  0.00  0.00    -0.212 N 
ATOM      5  C   UNL d   1      32.498  16.811 -24.143  0.00  0.00     0.271 A 
ATOM      6  N   UNL d   1      32.424  17.500 -23.690  0.00  0.00    -0.251 N 
ATOM      7  N   UNL d   1      30.953  15.453 -24.711  0.00  0.00    -0.162 NA
ATOM      8  C   UNL d   1      31.684  17.727 -23.405  0.00  0.00     0.187 A 
ATOM      9  C   UNL d   1      31.731  15.652 -24.733  0.00  0.00     0.129 A 
ATOM     10  O   UNL d   1      33.238  16.585 -24.429  0.00  0.00    -0.266 OA
ENDROOT
BRANCH   6  11
ATOM     11  C   UNL d   1      33.093  17.970 -23.520  0.00  0.00     0.147 C 
BRANCH  11  12
ATOM     12  C   UNL d   1      33.025  18.798 -23.497  0.00  0.00     0.297 C 
ATOM     13  N   UNL d   1      33.131  19.188 -22.778  0.00  0.00    -0.205 NA
ATOM     14  O   UNL d   1      32.857  19.210 -24.182  0.00  0.00    -0.264 OA
BRANCH  13  15
ATOM     15  C   UNL d   1      33.063  20.016 -22.755  0.00  0.00     0.102 C 
BRANCH  15  16
ATOM     16  C   UNL d   1      33.063  20.391 -22.028  0.00  0.00     0.019 A 
ATOM     17  C   UNL d   1      33.241  19.981 -21.345  0.00  0.00     0.002 A 
ATOM     18  C   UNL d   1      33.239  20.367 -20.609  0.00  0.00     0.000 A 
ATOM     19  C   UNL d   1      33.055  21.172 -20.581  0.00  0.00     0.000 A 
ATOM     20  C   UNL d   1      32.876  21.589 -21.260  0.00  0.00     0.000 A 
ATOM     21  C   UNL d   1      32.878  21.201 -21.996  0.00  0.00     0.002 A 
ENDBRANCH  15  16
ENDBRANCH  13  15
ENDBRANCH  11  12
ENDBRANCH   6  11
BRANCH   4  22
ATOM     22  C   UNL d   1      29.745  15.984 -24.141  0.00  0.00     0.085 A 
ATOM     23  C   UNL d   1      29.221  16.394 -24.644  0.00  0.00     0.019 A 
ATOM     24  C   UNL d   1      28.416  16.359 -24.503  0.00  0.00     0.002 A 
ATOM     25  C   UNL d   1      28.116  15.913 -23.855  0.00  0.00     0.000 A 
ATOM     26  C   UNL d   1      28.637  15.517 -23.373  0.00  0.00     0.002 A 
ATOM     27  C   UNL d   1      29.448  15.546 -23.506  0.00  0.00     0.019 A 
ENDBRANCH   4  22
TORSDOF 5
ENDMDL
MODEL 2
REMARK VINA RESULT:      -2.9      1.309      5.622
REMARK  5 active torsions:
REMARK  status: ('A' for Active; 'I' for Inactive)
REMARK    1  A    between atoms: C_12  and  N_4 
REMARK    2  A    between atoms: C_10  and  N_6 
REMARK    3  A    between atoms: C_11  and  C_10 
REMARK       I    between atoms: N_14  and  C_11 
REMARK    4  A    between atoms: C_16  and  N_14 
REMARK    5  A    between atoms: C_17  and  C_16 
ROOT
ATOM      1  C   UNL d   1      32.974  20.661 -22.274  0.00  0.00     0.172 A 
ATOM      2  C   UNL d   1      33.084  19.968 -21.842  0.00  0.00     0.113 A 
ATOM      3  N   UNL d   1      32.911  20.633 -23.092  0.00  0.00    -0.206 NA
ATOM      4  N   UNL d   1      32.950  21.290 -21.733  0.00  0.00    -0.212 N 
ATOM      5  C   UNL d   1      33.131  19.245 -22.227  0.00  0.00     0.271 A 
ATOM      6  N   UNL d   1      33.068  19.211 -23.052  0.00  0.00    -0.251 N 
ATOM      7  N   UNL d   1      33.044  20.977 -20.983  0.00  0.00    -0.162 NA
ATOM      8  C   UNL d   1      32.959  19.905 -23.484  0.00  0.00     0.187 A 
ATOM      9  C   UNL d   1      33.125  20.180 -21.041  0.00  0.00     0.129 A 
ATOM     10  O   UNL d   1      33.241  18.551 -21.794  0.00  0.00    -0.266 OA
ENDROOT
BRANCH   6  11
ATOM     11  C   UNL d   1      33.115  18.479 -23.451  0.00  0.00     0.147 C 
BRANCH  11  12
ATOM     12  C   UNL d   1      32.607  18.320 -24.089  0.00  0.00     0.297 C 
ATOM     13  N   UNL d   1      32.012  17.757 -23.995  0.00  0.00    -0.205 NA
ATOM     14  O   UNL d   1      32.703  18.720 -24.795  0.00  0.00    -0.264 OA
BRANCH  13  15
ATOM     15  C   UNL d   1      31.504  17.597 -24.633  0.00  0.00     0.102 C 
BRANCH  15  16
ATOM     16  C   UNL d   1      30.854  17.116 -24.508  0.00  0.00     0.019 A 
ATOM     17  C   UNL d   1      30.936  16.382 -24.158  0.00  0.00     0.002 A 
ATOM     18  C   UNL d   1      30.272  15.898 -24.034  0.00  0.00     0.000 A 
ATOM     19  C   UNL d   1      29.529  16.172 -24.269  0.00  0.00     0.000 A 
ATOM     20  C   UNL d   1      29.439  16.904 -24.618  0.00  0.00     0.000 A 
ATOM     21  C   UNL d   1      30.104  17.388 -24.743  0.00  0.00     0.002 A 
ENDBRANCH  15  16
ENDBRANCH  13  15
ENDBRANCH  11  12
ENDBRANCH   6  11
BRANCH   4  22
ATOM     22  C   UNL d   1      32.852  22.085 -21.879  0.00  0.00     0.085 A 
ATOM     23  C   UNL d   1      33.236  22.441 -22.527  0.00  0.00     0.019 A 
ATOM     24  C   UNL d   1      33.133  23.240 -22.668  0.00  0.00     0.002 A 
ATOM     25  C   UNL d   1      32.643  23.702 -22.162  0.00  0.00     0.000 A 
ATOM     26  C   UNL d   1      32.275  23.343 -21.533  0.00  0.00     0.002 A 
ATOM     27  C   UNL d   1      32.372  22.540 -21.383  0.00  0.00     0.019 A 
ENDBRANCH   4  22
TORSDOF 5
ENDMDL
MODEL 3
REMARK VINA RESULT:      -2.7      2.796      6.908
REMARK  5 active torsions:
REMARK  status: ('A' for Active; 'I' for Inactive)
REMARK    1  A    between atoms: C_12  and  N_4 
REMARK    2  A    between atoms: C_10  and  N_6 
REMARK    3  A    between atoms: C_11  and  C_10 
REMARK       I    between atoms: N_14  and  C_11 
REMARK    4  A    between atoms: C_16  and  N_14 
REMARK    5  A    between atoms: C_17  and  C_16 
ROOT
ATOM      1  C   UNL d   1      32.567  22.600 -19.997  0.00  0.00     0.172 A 
ATOM      2  C   UNL d   1      32.278  22.764 -20.752  0.00  0.00     0.113 A 
ATOM      3  N   UNL d   1      33.046  21.946 -19.871  0.00  0.00    -0.206 NA
ATOM      4  N   UNL d   1      32.280  23.190 -19.488  0.00  0.00    -0.212 N 
ATOM      5  C   UNL d   1      32.469  22.274 -21.381  0.00  0.00     0.271 A 
ATOM      6  N   UNL d   1      32.952  21.613 -21.259  0.00  0.00    -0.251 N 
ATOM      7  N   UNL d   1      31.823  23.702 -19.933  0.00  0.00    -0.162 NA
ATOM      8  C   UNL d   1      33.241  21.449 -20.504  0.00  0.00     0.187 A 
ATOM      9  C   UNL d   1      31.818  23.452 -20.697  0.00  0.00     0.129 A 
ATOM     10  O   UNL d   1      32.180  22.438 -22.137  0.00  0.00    -0.266 OA
ENDROOT
BRANCH   6  11
ATOM     11  C   UNL d   1      33.151  21.109 -21.895  0.00  0.00     0.147 C 
BRANCH  11  12
ATOM     12  C   UNL d   1      33.098  20.285 -21.804  0.00  0.00     0.297 C 
ATOM     13  N   UNL d   1      33.023  19.812 -22.477  0.00  0.00    -0.205 NA
ATOM     14  O   UNL d   1      33.122  19.956 -21.057  0.00  0.00    -0.264 OA
BRANCH  13  15
ATOM     15  C   UNL d   1      32.971  18.988 -22.386  0.00  0.00     0.102 C 
BRANCH  15  16
ATOM     16  C   UNL d   1      32.830  18.528 -23.048  0.00  0.00     0.019 A 
ATOM     17  C   UNL d   1      32.852  18.853 -23.797  0.00  0.00     0.002 A 
ATOM     18  C   UNL d   1      32.708  18.380 -24.466  0.00  0.00     0.000 A 
ATOM     19  C   UNL d   1      32.543  17.578 -24.359  0.00  0.00     0.000 A 
ATOM     20  C   UNL d   1      32.519  17.246 -23.613  0.00  0.00     0.000 A 
ATOM     21  C   UNL d   1      32.663  17.721 -22.945  0.00  0.00     0.002 A 
ENDBRANCH  15  16
ENDBRANCH  13  15
ENDBRANCH  11  12
ENDBRANCH   6  11
BRANCH   4  22
ATOM     22  C   UNL d   1      32.404  23.278 -18.688  0.00  0.00     0.085 A 
ATOM     23  C   UNL d   1      31.814  23.053 -18.146  0.00  0.00     0.019 A 
ATOM     24  C   UNL d   1      31.946  23.145 -17.344  0.00  0.00     0.002 A 
ATOM     25  C   UNL d   1      32.673  23.465 -17.066  0.00  0.00     0.000 A 
ATOM     26  C   UNL d   1      33.241  23.681 -17.605  0.00  0.00     0.002 A 
ATOM     27  C   UNL d   1      33.118  23.593 -18.414  0.00  0.00     0.019 A 
ENDBRANCH   4  22
TORSDOF 5
ENDMDL
