MODEL 1
REMARK VINA RESULT:      -8.5      0.000      0.000
REMARK  3 active torsions:
REMARK  status: ('A' for Active; 'I' for Inactive)
REMARK    1  A    between atoms: C_2  and  C_1 
REMARK    2  A    between atoms: C_13  and  N_4 
REMARK    3  A    between atoms: C_12  and  C_15 
ROOT
ATOM      1  C   UNL d   1      52.415  32.825  53.190  0.00  0.00     0.106 A 
ATOM      2  C   UNL d   1      52.259  34.098  52.806  0.00  0.00     0.206 A 
ATOM      3  N   UNL d   1      51.509  33.761  52.868  0.00  0.00    -0.281 N 
ATOM      4  N   UNL d   1      52.825  33.525  53.004  0.00  0.00    -0.217 NA
ATOM      5  C   UNL d   1      51.603  32.976  53.105  0.00  0.00     0.102 A 
ATOM      6  S   UNL d   1      52.424  34.875  52.585  0.00  0.00    -0.038 SA
ENDROOT
BRANCH   1   7
ATOM      7  C   UNL d   1      52.753  32.114  53.417  0.00  0.00     0.083 A 
ATOM      8  C   UNL d   1      53.337  32.104  54.008  0.00  0.00     0.302 A 
ATOM      9  O   UNL d   1      53.679  31.380  54.237  0.00  0.00    -0.273 OA
ATOM     10  O   UNL d   1      53.578  32.805  54.368  0.00  0.00    -0.259 OA
ATOM     11  C   UNL d   1      53.442  30.675  53.880  0.00  0.00     0.103 A 
ATOM     12  C   UNL d   1      52.859  30.684  53.290  0.00  0.00     0.023 A 
ATOM     13  C   UNL d   1      53.784  29.964  54.110  0.00  0.00     0.025 A 
ATOM     14  C   UNL d   1      52.511  31.407  53.055  0.00  0.00     0.009 A 
ATOM     15  C   UNL d   1      52.621  29.983  52.934  0.00  0.00     0.002 A 
ATOM     16  C   UNL d   1      52.963  29.271  53.163  0.00  0.00     0.000 A 
ATOM     17  C   UNL d   1      53.546  29.261  53.754  0.00  0.00     0.002 A 
ENDBRANCH   1   7
BRANCH   3  18
ATOM     18  C   UNL d   1      50.800  34.140  52.720  0.00  0.00     0.066 A 
ATOM     19  C   UNL d   1      50.479  34.140  51.953  0.00  0.00     0.018 A 
ATOM     20  C   UNL d   1      49.766  34.520  51.801  0.00  0.00     0.008 A 
ATOM     21  C   UNL d   1      49.363  34.907  52.416  0.00  0.00     0.065 A 
ATOM     22  C   UNL d   1      49.681  34.907  53.174  0.00  0.00     0.008 A 
ATOM     23  C   UNL d   1      50.398  34.525  53.328  0.00  0.00     0.018 A 
BRANCH  21  24
ATOM     24  C   UNL d   1      48.650  35.289  52.267  0.00  0.00     0.211 C 
ATOM     25  O   UNL d   1      48.268  35.178  51.540  0.00  0.00    -0.644 OA
ATOM     26  O   UNL d   1      48.314  35.780  52.836  0.00  0.00    -0.644 OA
ENDBRANCH  21  24
ENDBRANCH   3  18
TORSDOF 3
ENDMDL
MODEL 2
REMARK VINA RESULT:      -8.2      1.001      5.316
REMARK  3 active torsions:
REMARK  status: ('A' for Active; 'I' for Inactive)
REMARK    1  A    between atoms: C_2  and  C_1 
REMARK    2  A    between atoms: C_13  and  N_4 
REMARK    3  A    between atoms: C_12  and  C_15 
ROOT
ATOM      1  C   UNL d   1      51.043  34.164  52.816  0.00  0.00     0.106 A 
ATOM      2  C   UNL d   1      52.336  34.027  53.134  0.00  0.00     0.206 A 
ATOM      3  N   UNL d   1      52.004  33.272  53.098  0.00  0.00    -0.281 N 
ATOM      4  N   UNL d   1      51.748  34.584  52.961  0.00  0.00    -0.217 NA
ATOM      5  C   UNL d   1      51.207  33.356  52.902  0.00  0.00     0.102 A 
ATOM      6  S   UNL d   1      53.122  34.201  53.312  0.00  0.00    -0.038 SA
ENDROOT
BRANCH   1   7
ATOM      7  C   UNL d   1      50.318  34.493  52.623  0.00  0.00     0.083 A 
ATOM      8  C   UNL d   1      50.029  34.431  51.847  0.00  0.00     0.302 A 
ATOM      9  O   UNL d   1      49.292  34.766  51.654  0.00  0.00    -0.273 OA
ATOM     10  O   UNL d   1      50.468  34.041  51.268  0.00  0.00    -0.259 OA
ATOM     11  C   UNL d   1      48.848  35.158  52.228  0.00  0.00     0.103 A 
ATOM     12  C   UNL d   1      49.136  35.220  53.004  0.00  0.00     0.023 A 
ATOM     13  C   UNL d   1      48.121  35.487  52.031  0.00  0.00     0.025 A 
ATOM     14  C   UNL d   1      49.875  34.886  53.205  0.00  0.00     0.009 A 
ATOM     15  C   UNL d   1      48.695  35.610  53.578  0.00  0.00     0.002 A 
ATOM     16  C   UNL d   1      47.967  35.939  53.381  0.00  0.00     0.000 A 
ATOM     17  C   UNL d   1      47.679  35.878  52.605  0.00  0.00     0.002 A 
ENDBRANCH   1   7
BRANCH   3  18
ATOM     18  C   UNL d   1      52.398  32.569  53.233  0.00  0.00     0.066 A 
ATOM     19  C   UNL d   1      52.263  31.913  52.740  0.00  0.00     0.018 A 
ATOM     20  C   UNL d   1      52.658  31.204  52.873  0.00  0.00     0.008 A 
ATOM     21  C   UNL d   1      53.195  31.141  53.504  0.00  0.00     0.065 A 
ATOM     22  C   UNL d   1      53.329  31.790  53.991  0.00  0.00     0.008 A 
ATOM     23  C   UNL d   1      52.932  32.503  53.857  0.00  0.00     0.018 A 
BRANCH  21  24
ATOM     24  C   UNL d   1      53.592  30.433  53.640  0.00  0.00     0.211 C 
ATOM     25  O   UNL d   1      54.336  30.307  53.299  0.00  0.00    -0.644 OA
ATOM     26  O   UNL d   1      53.252  29.850  54.111  0.00  0.00    -0.644 OA
ENDBRANCH  21  24
ENDBRANCH   3  18
TORSDOF 3
ENDMDL
MODEL 3
REMARK VINA RESULT:      -8.2      2.007      5.423
REMARK  3 active torsions:
REMARK  status: ('A' for Active; 'I' for Inactive)
REMARK    1  A    between atoms: C_2  and  C_1 
REMARK    2  A    between atoms: C_13  and  N_4 
REMARK    3  A    between atoms: C_12  and  C_15 
ROOT
ATOM      1  C   UNL d   1      50.727  33.964  52.967  0.00  0.00     0.106 A 
ATOM      2  C   UNL d   1      51.509  32.920  53.268  0.00  0.00     0.206 A 
ATOM      3  N   UNL d   1      51.922  33.608  53.461  0.00  0.00    -0.281 N 
ATOM      4  N   UNL d   1      50.769  33.132  52.962  0.00  0.00    -0.217 NA
ATOM      5  C   UNL d   1      51.441  34.252  53.276  0.00  0.00     0.102 A 
ATOM      6  S   UNL d   1      51.784  32.149  53.363  0.00  0.00    -0.038 SA
ENDROOT
BRANCH   1   7
ATOM      7  C   UNL d   1      50.093  34.416  52.712  0.00  0.00     0.083 A 
ATOM      8  C   UNL d   1      49.914  34.457  51.902  0.00  0.00     0.302 A 
ATOM      9  O   UNL d   1      49.269  34.917  51.645  0.00  0.00    -0.273 OA
ATOM     10  O   UNL d   1      50.371  34.046  51.352  0.00  0.00    -0.259 OA
ATOM     11  C   UNL d   1      48.808  35.331  52.191  0.00  0.00     0.103 A 
ATOM     12  C   UNL d   1      48.986  35.290  53.000  0.00  0.00     0.023 A 
ATOM     13  C   UNL d   1      48.172  35.783  51.931  0.00  0.00     0.025 A 
ATOM     14  C   UNL d   1      49.633  34.830  53.265  0.00  0.00     0.009 A 
ATOM     15  C   UNL d   1      48.528  35.701  53.544  0.00  0.00     0.002 A 
ATOM     16  C   UNL d   1      47.892  36.153  53.285  0.00  0.00     0.000 A 
ATOM     17  C   UNL d   1      47.714  36.195  52.476  0.00  0.00     0.002 A 
ENDBRANCH   1   7
BRANCH   3  18
ATOM     18  C   UNL d   1      52.674  33.641  53.780  0.00  0.00     0.066 A 
ATOM     19  C   UNL d   1      52.798  33.996  54.522  0.00  0.00     0.018 A 
ATOM     20  C   UNL d   1      53.553  34.032  54.845  0.00  0.00     0.008 A 
ATOM     21  C   UNL d   1      54.198  33.711  54.429  0.00  0.00     0.065 A 
ATOM     22  C   UNL d   1      54.075  33.361  53.696  0.00  0.00     0.008 A 
ATOM     23  C   UNL d   1      53.315  33.325  53.370  0.00  0.00     0.018 A 
BRANCH  21  24
ATOM     24  C   UNL d   1      54.954  33.745  54.750  0.00  0.00     0.211 C 
ATOM     25  O   UNL d   1      55.587  33.392  54.349  0.00  0.00    -0.644 OA
ATOM     26  O   UNL d   1      55.085  34.128  55.467  0.00  0.00    -0.644 OA
ENDBRANCH  21  24
ENDBRANCH   3  18
TORSDOF 3
ENDMDL
MODEL 4
REMARK VINA RESULT:      -8.1      1.667      2.425
REMARK  3 active torsions:
REMARK  status: ('A' for Active; 'I' for Inactive)
REMARK    1  A    between atoms: C_2  and  C_1 
REMARK    2  A    between atoms: C_13  and  N_4 
REMARK    3  A    between atoms: C_12  and  C_15 
ROOT
ATOM      1  C   UNL d   1      51.539  33.861  52.936  0.00  0.00     0.106 A 
ATOM      2  C   UNL d   1      50.775  34.252  51.908  0.00  0.00     0.206 A 
ATOM      3  N   UNL d   1      50.380  34.451  52.605  0.00  0.00    -0.281 N 
ATOM      4  N   UNL d   1      51.492  33.887  52.105  0.00  0.00    -0.217 NA
ATOM      5  C   UNL d   1      50.850  34.211  53.239  0.00  0.00     0.102 A 
ATOM      6  S   UNL d   1      50.503  34.391  51.142  0.00  0.00    -0.038 SA
ENDROOT
BRANCH   1   7
ATOM      7  C   UNL d   1      52.156  33.547  53.374  0.00  0.00     0.083 A 
ATOM      8  C   UNL d   1      52.265  32.725  53.403  0.00  0.00     0.302 A 
ATOM      9  O   UNL d   1      52.893  32.408  53.849  0.00  0.00    -0.273 OA
ATOM     10  O   UNL d   1      51.757  32.221  52.992  0.00  0.00    -0.259 OA
ATOM     11  C   UNL d   1      53.405  32.906  54.262  0.00  0.00     0.103 A 
ATOM     12  C   UNL d   1      53.295  33.728  54.234  0.00  0.00     0.023 A 
ATOM     13  C   UNL d   1      54.022  32.588  54.701  0.00  0.00     0.025 A 
ATOM     14  C   UNL d   1      52.667  34.053  53.788  0.00  0.00     0.009 A 
ATOM     15  C   UNL d   1      53.804  34.226  54.645  0.00  0.00     0.002 A 
ATOM     16  C   UNL d   1      54.422  33.908  55.084  0.00  0.00     0.000 A 
ATOM     17  C   UNL d   1      54.532  33.085  55.112  0.00  0.00     0.002 A 
ENDBRANCH   1   7
BRANCH   3  18
ATOM     18  C   UNL d   1      49.653  34.821  52.654  0.00  0.00     0.066 A 
ATOM     19  C   UNL d   1      49.461  35.275  53.324  0.00  0.00     0.018 A 
ATOM     20  C   UNL d   1      48.729  35.649  53.377  0.00  0.00     0.008 A 
ATOM     21  C   UNL d   1      48.180  35.573  52.759  0.00  0.00     0.065 A 
ATOM     22  C   UNL d   1      48.371  35.124  52.097  0.00  0.00     0.008 A 
ATOM     23  C   UNL d   1      49.105  34.748  52.043  0.00  0.00     0.018 A 
BRANCH  21  24
ATOM     24  C   UNL d   1      47.448  35.945  52.809  0.00  0.00     0.211 C 
ATOM     25  O   UNL d   1      47.095  36.252  52.125  0.00  0.00    -0.644 OA
ATOM     26  O   UNL d   1      47.065  36.014  53.534  0.00  0.00    -0.644 OA
ENDBRANCH  21  24
ENDBRANCH   3  18
TORSDOF 3
ENDMDL
MODEL 5
REMARK VINA RESULT:      -8.1      2.465      3.030
REMARK  3 active torsions:
REMARK  status: ('A' for Active; 'I' for Inactive)
REMARK    1  A    between atoms: C_2  and  C_1 
REMARK    2  A    between atoms: C_13  and  N_4 
REMARK    3  A    between atoms: C_12  and  C_15 
ROOT
ATOM      1  C   UNL d   1      53.698  31.731  53.674  0.00  0.00     0.106 A 
ATOM      2  C   UNL d   1      54.399  32.855  53.486  0.00  0.00     0.206 A 
ATOM      3  N   UNL d   1      53.686  33.061  53.847  0.00  0.00    -0.281 N 
ATOM      4  N   UNL d   1      54.413  32.034  53.376  0.00  0.00    -0.217 NA
ATOM      5  C   UNL d   1      53.253  32.368  53.964  0.00  0.00     0.102 A 
ATOM      6  S   UNL d   1      54.999  33.378  53.270  0.00  0.00    -0.038 SA
ENDROOT
BRANCH   1   7
ATOM      7  C   UNL d   1      53.474  30.942  53.680  0.00  0.00     0.083 A 
ATOM      8  C   UNL d   1      53.062  30.625  53.033  0.00  0.00     0.302 A 
ATOM      9  O   UNL d   1      52.836  29.823  53.041  0.00  0.00    -0.273 OA
ATOM     10  O   UNL d   1      52.874  31.098  52.384  0.00  0.00    -0.259 OA
ATOM     11  C   UNL d   1      53.020  29.344  53.688  0.00  0.00     0.103 A 
ATOM     12  C   UNL d   1      53.432  29.661  54.334  0.00  0.00     0.023 A 
ATOM     13  C   UNL d   1      52.794  28.554  53.690  0.00  0.00     0.025 A 
ATOM     14  C   UNL d   1      53.662  30.465  54.333  0.00  0.00     0.009 A 
ATOM     15  C   UNL d   1      53.616  29.186  54.979  0.00  0.00     0.002 A 
ATOM     16  C   UNL d   1      53.391  28.395  54.982  0.00  0.00     0.000 A 
ATOM     17  C   UNL d   1      52.978  28.078  54.335  0.00  0.00     0.002 A 
ENDBRANCH   1   7
BRANCH   3  18
ATOM     18  C   UNL d   1      53.453  33.817  54.052  0.00  0.00     0.066 A 
ATOM     19  C   UNL d   1      53.651  34.126  54.798  0.00  0.00     0.018 A 
ATOM     20  C   UNL d   1      53.418  34.887  55.008  0.00  0.00     0.008 A 
ATOM     21  C   UNL d   1      52.984  35.350  54.472  0.00  0.00     0.065 A 
ATOM     22  C   UNL d   1      52.789  35.043  53.734  0.00  0.00     0.008 A 
ATOM     23  C   UNL d   1      53.022  34.279  53.523  0.00  0.00     0.018 A 
BRANCH  21  24
ATOM     24  C   UNL d   1      52.750  36.111  54.678  0.00  0.00     0.211 C 
ATOM     25  O   UNL d   1      53.318  36.709  54.757  0.00  0.00    -0.644 OA
ATOM     26  O   UNL d   1      51.955  36.281  54.808  0.00  0.00    -0.644 OA
ENDBRANCH  21  24
ENDBRANCH   3  18
TORSDOF 3
ENDMDL
