MODEL 1
REMARK VINA RESULT:      -5.8      0.000      0.000
REMARK  4 active torsions:
REMARK  status: ('A' for Active; 'I' for Inactive)
REMARK    1  A    between atoms: C_10  and  C_3 
REMARK    2  A    between atoms: S_8  and  C_4 
REMARK       I    between atoms: N_6  and  C_7 
REMARK    3  A    between atoms: C_7  and  C_9 
REMARK    4  A    between atoms: C_9  and  S_8 
ROOT
ATOM      1  O   UNL d   1     -41.577-123.293 -50.847  0.00  0.00    -0.263 OA
ATOM      2  N   UNL d   1     -41.372-122.065 -50.366  0.00  0.00    -0.120 NA
ATOM      3  C   UNL d   1     -41.634-122.817 -50.174  0.00  0.00     0.205 A 
ATOM      4  C   UNL d   1     -41.276-122.830 -51.457  0.00  0.00     0.236 A 
ATOM      5  N   UNL d   1     -41.149-122.072 -51.164  0.00  0.00    -0.114 NA
ENDROOT
BRANCH   4   6
ATOM      6  S   UNL d   1     -41.127-123.084 -52.236  0.00  0.00    -0.036 SA
BRANCH   6   7
ATOM      7  C   UNL d   1     -41.512-122.717 -52.869  0.00  0.00     0.100 C 
BRANCH   7   8
ATOM      8  C   UNL d   1     -41.480-123.040 -53.628  0.00  0.00     0.272 C 
ATOM      9  N   UNL d   1     -41.800-122.632 -54.266  0.00  0.00    -0.272 N 
ATOM     10  C   UNL d   1     -42.157-121.894 -54.155  0.00  0.00     0.083 A 
ATOM     11  C   UNL d   1     -41.761-122.969 -55.026  0.00  0.00     0.083 A 
ATOM     12  C   UNL d   1     -42.475-121.493 -54.805  0.00  0.00     0.019 A 
ATOM     13  C   UNL d   1     -42.438-121.824 -55.553  0.00  0.00     0.003 A 
ATOM     14  C   UNL d   1     -42.085-122.554 -55.668  0.00  0.00     0.019 A 
ATOM     15  O   UNL d   1     -41.123-123.778 -53.738  0.00  0.00    -0.266 OA
ENDBRANCH   7   8
ENDBRANCH   6   7
ENDBRANCH   4   6
BRANCH   3  16
ATOM     16  C   UNL d   1     -41.913-123.087 -49.453  0.00  0.00     0.043 A 
ATOM     17  C   UNL d   1     -41.381-123.394 -48.902  0.00  0.00     0.004 A 
ATOM     18  C   UNL d   1     -41.655-123.668 -48.174  0.00  0.00     0.000 A 
ATOM     19  C   UNL d   1     -42.467-123.630 -48.007  0.00  0.00     0.000 A 
ATOM     20  C   UNL d   1     -42.999-123.323 -48.558  0.00  0.00     0.000 A 
ATOM     21  C   UNL d   1     -42.710-123.054 -49.279  0.00  0.00     0.004 A 
ENDBRANCH   3  16
TORSDOF 4
ENDMDL
MODEL 2
REMARK VINA RESULT:      -5.2      1.170      1.622
REMARK  4 active torsions:
REMARK  status: ('A' for Active; 'I' for Inactive)
REMARK    1  A    between atoms: C_10  and  C_3 
REMARK    2  A    between atoms: S_8  and  C_4 
REMARK       I    between atoms: N_6  and  C_7 
REMARK    3  A    between atoms: C_7  and  C_9 
REMARK    4  A    between atoms: C_9  and  S_8 
ROOT
ATOM      1  O   UNL d   1     -41.563-122.575 -49.884  0.00  0.00    -0.263 OA
ATOM      2  N   UNL d   1     -42.874-122.796 -49.777  0.00  0.00    -0.120 NA
ATOM      3  C   UNL d   1     -42.156-122.869 -49.390  0.00  0.00     0.205 A 
ATOM      4  C   UNL d   1     -41.918-122.319 -50.580  0.00  0.00     0.236 A 
ATOM      5  N   UNL d   1     -42.727-122.454 -50.518  0.00  0.00    -0.114 NA
ENDROOT
BRANCH   4   6
ATOM      6  S   UNL d   1     -41.528-121.982 -51.234  0.00  0.00    -0.036 SA
BRANCH   6   7
ATOM      7  C   UNL d   1     -41.378-122.441 -51.904  0.00  0.00     0.100 C 
BRANCH   7   8
ATOM      8  C   UNL d   1     -41.290-122.091 -52.646  0.00  0.00     0.272 C 
ATOM      9  N   UNL d   1     -41.316-122.549 -53.328  0.00  0.00    -0.272 N 
ATOM     10  C   UNL d   1     -41.431-123.367 -53.279  0.00  0.00     0.083 A 
ATOM     11  C   UNL d   1     -41.225-122.182 -54.070  0.00  0.00     0.083 A 
ATOM     12  C   UNL d   1     -41.456-123.818 -53.972  0.00  0.00     0.019 A 
ATOM     13  C   UNL d   1     -41.367-123.458 -54.702  0.00  0.00     0.003 A 
ATOM     14  C   UNL d   1     -41.252-122.649 -54.757  0.00  0.00     0.019 A 
ATOM     15  O   UNL d   1     -41.175-121.273 -52.695  0.00  0.00    -0.266 OA
ENDBRANCH   7   8
ENDBRANCH   6   7
ENDBRANCH   4   6
BRANCH   3  16
ATOM     16  C   UNL d   1     -42.012-123.175 -48.644  0.00  0.00     0.043 A 
ATOM     17  C   UNL d   1     -42.612-123.169 -48.079  0.00  0.00     0.004 A 
ATOM     18  C   UNL d   1     -42.474-123.475 -47.326  0.00  0.00     0.000 A 
ATOM     19  C   UNL d   1     -41.726-123.787 -47.149  0.00  0.00     0.000 A 
ATOM     20  C   UNL d   1     -41.124-123.794 -47.713  0.00  0.00     0.000 A 
ATOM     21  C   UNL d   1     -41.279-123.485 -48.460  0.00  0.00     0.004 A 
ENDBRANCH   3  16
TORSDOF 4
ENDMDL
