MODEL 1
REMARK VINA RESULT:     132.8      0.000      0.000
REMARK  4 active torsions:
REMARK  status: ('A' for Active; 'I' for Inactive)
REMARK    1  A    between atoms: N_10  and  C_3 
REMARK    2  A    between atoms: C_11  and  C_4 
REMARK    3  A    between atoms: C_17  and  N_10 
REMARK       I    between atoms: C_12  and  N_13 
REMARK    4  A    between atoms: N_13  and  C_18 
ROOT
ATOM      1  C   UNL d   1      61.582  46.123  50.311  0.00  0.00     0.168 A 
ATOM      2  N   UNL d   1      61.689  45.289  50.302  0.00  0.00    -0.184 N 
ATOM      3  C   UNL d   1      62.236  44.978  49.813  0.00  0.00     0.218 A 
ATOM      4  C   UNL d   1      61.036  46.451  50.797  0.00  0.00     0.057 A 
ATOM      5  N   UNL d   1      60.684  45.162  51.276  0.00  0.00    -0.160 NA
ATOM      6  N   UNL d   1      62.030  46.589  49.832  0.00  0.00    -0.227 NA
ATOM      7  C   UNL d   1      62.693  45.442  49.325  0.00  0.00     0.071 A 
ATOM      8  C   UNL d   1      60.581  45.971  51.285  0.00  0.00     0.124 A 
ATOM      9  C   UNL d   1      62.588  46.263  49.334  0.00  0.00     0.087 A 
ATOM     10  C   UNL d   1      63.061  46.755  48.828  0.00  0.00     0.021 C 
ENDROOT
BRANCH   3  11
ATOM     11  N   UNL d   1      62.347  44.137  49.800  0.00  0.00    -0.383 NA
BRANCH  11  12
ATOM     12  C   UNL d   1      62.506  43.318  49.884  0.00  0.00     0.134 A 
ATOM     13  C   UNL d   1      62.619  42.833  49.217  0.00  0.00     0.034 A 
ATOM     14  C   UNL d   1      62.781  41.996  49.314  0.00  0.00     0.022 A 
ATOM     15  C   UNL d   1      62.826  41.661  50.084  0.00  0.00     0.085 A 
ATOM     16  C   UNL d   1      62.712  42.149  50.766  0.00  0.00     0.022 A 
ATOM     17  C   UNL d   1      62.550  42.983  50.673  0.00  0.00     0.034 A 
BRANCH  15  18
ATOM     18  N   UNL d   1      62.985  40.837  50.179  0.00  0.00    -0.208 NA
ATOM     19  C   UNL d   1      62.811  40.295  49.555  0.00  0.00     0.279 C 
ATOM     20  O   UNL d   1      62.967  39.479  49.646  0.00  0.00    -0.265 OA
ATOM     21  C   UNL d   1      62.475  40.580  48.833  0.00  0.00     0.068 C 
ENDBRANCH  15  18
ENDBRANCH  11  12
ENDBRANCH   3  11
BRANCH   4  22
ATOM     22  C   UNL d   1      60.932  47.259  50.806  0.00  0.00     0.005 A 
ATOM     23  C   UNL d   1      60.656  47.636  50.150  0.00  0.00     0.001 A 
ATOM     24  C   UNL d   1      60.552  48.443  50.160  0.00  0.00     0.011 A 
ATOM     25  C   UNL d   1      60.727  48.862  50.824  0.00  0.00     0.058 A 
ATOM     26  C   UNL d   1      61.005  48.473  51.480  0.00  0.00     0.011 A 
ATOM     27 CL   UNL d   1      60.619  49.708  50.834  0.00  0.00    -0.082 Cl
ATOM     28  C   UNL d   1      61.107  47.678  51.471  0.00  0.00     0.001 A 
ENDBRANCH   4  22
TORSDOF 4
ENDMDL
MODEL 2
REMARK VINA RESULT:     135.5      0.664      1.660
REMARK  4 active torsions:
REMARK  status: ('A' for Active; 'I' for Inactive)
REMARK    1  A    between atoms: N_10  and  C_3 
REMARK    2  A    between atoms: C_11  and  C_4 
REMARK    3  A    between atoms: C_17  and  N_10 
REMARK       I    between atoms: C_12  and  N_13 
REMARK    4  A    between atoms: N_13  and  C_18 
ROOT
ATOM      1  C   UNL d   1      61.382  46.212  50.604  0.00  0.00     0.168 A 
ATOM      2  N   UNL d   1      61.772  45.494  50.405  0.00  0.00    -0.184 N 
ATOM      3  C   UNL d   1      61.521  44.816  50.740  0.00  0.00     0.218 A 
ATOM      4  C   UNL d   1      61.623  46.902  50.275  0.00  0.00     0.057 A 
ATOM      5  N   UNL d   1      62.629  46.210  49.553  0.00  0.00    -0.160 NA
ATOM      6  N   UNL d   1      60.768  46.203  51.123  0.00  0.00    -0.227 NA
ATOM      7  C   UNL d   1      60.900  44.798  51.266  0.00  0.00     0.071 A 
ATOM      8  C   UNL d   1      62.251  46.906  49.745  0.00  0.00     0.124 A 
ATOM      9  C   UNL d   1      60.516  45.505  51.461  0.00  0.00     0.087 A 
ATOM     10  C   UNL d   1      59.868  45.496  52.010  0.00  0.00     0.021 C 
ENDROOT
BRANCH   3  11
ATOM     11  N   UNL d   1      61.912  44.089  50.543  0.00  0.00    -0.383 NA
BRANCH  11  12
ATOM     12  C   UNL d   1      62.216  43.321  50.401  0.00  0.00     0.134 A 
ATOM     13  C   UNL d   1      62.026  42.685  50.905  0.00  0.00     0.034 A 
ATOM     14  C   UNL d   1      62.343  41.903  50.750  0.00  0.00     0.022 A 
ATOM     15  C   UNL d   1      62.846  41.775  50.089  0.00  0.00     0.085 A 
ATOM     16  C   UNL d   1      63.042  42.416  49.574  0.00  0.00     0.022 A 
ATOM     17  C   UNL d   1      62.729  43.197  49.725  0.00  0.00     0.034 A 
BRANCH  15  18
ATOM     18  N   UNL d   1      63.158  41.003  49.938  0.00  0.00    -0.208 NA
ATOM     19  C   UNL d   1      62.772  40.488  49.391  0.00  0.00     0.279 C 
ATOM     20  O   UNL d   1      63.078  39.725  49.240  0.00  0.00    -0.265 OA
ATOM     21  C   UNL d   1      62.071  40.745  48.994  0.00  0.00     0.068 C 
ENDBRANCH  15  18
ENDBRANCH  11  12
ENDBRANCH   3  11
BRANCH   4  22
ATOM     22  C   UNL d   1      61.245  47.598  50.467  0.00  0.00     0.005 A 
ATOM     23  C   UNL d   1      61.279  47.878  51.221  0.00  0.00     0.001 A 
ATOM     24  C   UNL d   1      60.902  48.573  51.413  0.00  0.00     0.011 A 
ATOM     25  C   UNL d   1      60.495  48.978  50.848  0.00  0.00     0.058 A 
ATOM     26  C   UNL d   1      60.467  48.686  50.091  0.00  0.00     0.011 A 
ATOM     27 CL   UNL d   1      60.099  49.706  51.049  0.00  0.00    -0.082 Cl
ATOM     28  C   UNL d   1      60.838  48.002  49.903  0.00  0.00     0.001 A 
ENDBRANCH   4  22
TORSDOF 4
ENDMDL
