MODEL 1
REMARK VINA RESULT:      11.1      0.000      0.000
REMARK  1 active torsions:
REMARK  status: ('A' for Active; 'I' for Inactive)
REMARK    1  A    between atoms: C_2  and  C_3 
ROOT
ATOM      1  C   UNL d   1      57.744  49.686  50.321  0.00  0.00     0.002 A 
ATOM      2  C   UNL d   1      57.475  49.708  49.541  0.00  0.00     0.000 A 
ATOM      3  C   UNL d   1      57.200  49.658  50.941  0.00  0.00     0.000 A 
ATOM      4  C   UNL d   1      56.665  49.701  49.381  0.00  0.00     0.000 A 
ATOM      5  C   UNL d   1      56.390  49.651  50.782  0.00  0.00     0.000 A 
ATOM      6  C   UNL d   1      56.122  49.673  50.002  0.00  0.00     0.000 A 
ENDROOT
BRANCH   1   7
ATOM      7  C   UNL d   1      58.555  49.692  50.484  0.00  0.00     0.021 A 
ATOM      8  C   UNL d   1      59.161  49.704  49.928  0.00  0.00     0.099 A 
ATOM      9  N   UNL d   1      59.878  49.707  50.332  0.00  0.00    -0.242 NA
ATOM     10  C   UNL d   1      59.714  49.697  51.142  0.00  0.00     0.099 A 
ATOM     11  C   UNL d   1      58.896  49.688  51.237  0.00  0.00     0.022 A 
ENDBRANCH   1   7
TORSDOF 1
ENDMDL
MODEL 2
REMARK VINA RESULT:      11.8      1.099      2.927
REMARK  1 active torsions:
REMARK  status: ('A' for Active; 'I' for Inactive)
REMARK    1  A    between atoms: C_2  and  C_3 
ROOT
ATOM      1  C   UNL d   1      58.992  49.701  50.737  0.00  0.00     0.002 A 
ATOM      2  C   UNL d   1      59.239  49.694  51.525  0.00  0.00     0.000 A 
ATOM      3  C   UNL d   1      59.554  49.707  50.132  0.00  0.00     0.000 A 
ATOM      4  C   UNL d   1      60.045  49.694  51.707  0.00  0.00     0.000 A 
ATOM      5  C   UNL d   1      60.359  49.707  50.314  0.00  0.00     0.000 A 
ATOM      6  C   UNL d   1      60.605  49.701  51.101  0.00  0.00     0.000 A 
ENDROOT
BRANCH   1   7
ATOM      7  C   UNL d   1      58.187  49.701  50.551  0.00  0.00     0.021 A 
ATOM      8  C   UNL d   1      57.565  49.694  51.090  0.00  0.00     0.099 A 
ATOM      9  N   UNL d   1      56.860  49.696  50.666  0.00  0.00    -0.242 NA
ATOM     10  C   UNL d   1      57.046  49.705  49.861  0.00  0.00     0.099 A 
ATOM     11  C   UNL d   1      57.867  49.708  49.789  0.00  0.00     0.022 A 
ENDBRANCH   1   7
TORSDOF 1
ENDMDL
MODEL 3
REMARK VINA RESULT:      12.1      1.116      2.592
REMARK  1 active torsions:
REMARK  status: ('A' for Active; 'I' for Inactive)
REMARK    1  A    between atoms: C_2  and  C_3 
ROOT
ATOM      1  C   UNL d   1      58.404  49.698  50.390  0.00  0.00     0.002 A 
ATOM      2  C   UNL d   1      58.939  49.707  49.761  0.00  0.00     0.000 A 
ATOM      3  C   UNL d   1      58.683  49.688  51.166  0.00  0.00     0.000 A 
ATOM      4  C   UNL d   1      59.751  49.707  49.909  0.00  0.00     0.000 A 
ATOM      5  C   UNL d   1      59.496  49.687  51.314  0.00  0.00     0.000 A 
ATOM      6  C   UNL d   1      60.030  49.697  50.685  0.00  0.00     0.000 A 
ENDROOT
BRANCH   1   7
ATOM      7  C   UNL d   1      57.589  49.698  50.245  0.00  0.00     0.021 A 
ATOM      8  C   UNL d   1      57.228  49.702  49.506  0.00  0.00     0.099 A 
ATOM      9  N   UNL d   1      56.413  49.701  49.620  0.00  0.00    -0.242 NA
ATOM     10  C   UNL d   1      56.269  49.696  50.434  0.00  0.00     0.099 A 
ATOM     11  C   UNL d   1      56.997  49.695  50.822  0.00  0.00     0.022 A 
ENDBRANCH   1   7
TORSDOF 1
ENDMDL
