MODEL 1
REMARK VINA RESULT:      53.8      0.000      0.000
REMARK  5 active torsions:
REMARK  status: ('A' for Active; 'I' for Inactive)
REMARK    1  A    between atoms: N_7  and  C_1 
REMARK    2  A    between atoms: C_4  and  C_3 
REMARK       I    between atoms: C_8  and  N_7 
REMARK    3  A    between atoms: C_15  and  C_8 
REMARK    4  A    between atoms: O_20  and  C_15 
REMARK    5  A    between atoms: C_22  and  O_20 
ROOT
ATOM      1  C   UNL d   1      14.648  16.633  -4.608  0.00  0.00     0.204 A 
ATOM      2  S   UNL d   1      14.251  17.350  -4.669  0.00  0.00    -0.031 SA
ATOM      3  C   UNL d   1      14.709  17.860  -5.145  0.00  0.00     0.119 A 
ATOM      4  N   UNL d   1      15.352  16.687  -5.042  0.00  0.00    -0.123 NA
ATOM      5  N   UNL d   1      15.373  17.447  -5.365  0.00  0.00    -0.143 NA
ENDROOT
BRANCH   1   6
ATOM      6  N   UNL d   1      14.438  15.944  -4.204  0.00  0.00    -0.248 N 
ATOM      7  C   UNL d   1      13.872  15.411  -4.587  0.00  0.00     0.291 C 
ATOM      8  O   UNL d   1      13.556  15.613  -5.355  0.00  0.00    -0.264 OA
ATOM      9  C   UNL d   1      14.752  15.772  -3.474  0.00  0.00     0.104 C 
BRANCH   7  10
ATOM     10  C   UNL d   1      13.643  14.714  -4.206  0.00  0.00     0.184 C 
BRANCH  10  11
ATOM     11  O   UNL d   1      13.173  14.162  -4.627  0.00  0.00    -0.300 OA
BRANCH  11  12
ATOM     12  C   UNL d   1      13.161  13.384  -4.331  0.00  0.00     0.100 A 
ATOM     13  C   UNL d   1      13.287  13.193  -3.539  0.00  0.00     0.025 A 
ATOM     14  C   UNL d   1      13.270  12.423  -3.276  0.00  0.00     0.002 A 
ATOM     15  C   UNL d   1      13.121  11.782  -3.796  0.00  0.00     0.000 A 
ATOM     16  C   UNL d   1      12.989  11.968  -4.619  0.00  0.00     0.002 A 
ATOM     17  C   UNL d   1      13.009  12.776  -4.887  0.00  0.00     0.025 A 
ENDBRANCH  11  12
ENDBRANCH  10  11
ENDBRANCH   7  10
ENDBRANCH   1   6
BRANCH   3  18
ATOM     18  C   UNL d   1      14.583  18.639  -5.389  0.00  0.00     0.081 A 
ATOM     19  C   UNL d   1      14.834  19.400  -5.298  0.00  0.00    -0.017 A 
ATOM     20  C   UNL d   1      14.478  19.966  -5.708  0.00  0.00    -0.008 A 
ATOM     21  C   UNL d   1      14.763  20.739  -5.590  0.00  0.00    -0.001 A 
ATOM     22  C   UNL d   1      13.892  19.645  -6.166  0.00  0.00    -0.022 A 
ATOM     23  C   UNL d   1      14.364  20.073  -5.826  0.00  0.00    -0.008 A 
ATOM     24  C   UNL d   1      14.637  19.437  -5.477  0.00  0.00    -0.017 A 
ATOM     25  C   UNL d   1      13.651  19.708  -6.388  0.00  0.00    -0.022 A 
ATOM     26  C   UNL d   1      13.555  18.892  -6.333  0.00  0.00     0.045 A 
ATOM     27  C   UNL d   1      13.979  18.365  -5.871  0.00  0.00     0.023 A 
ENDBRANCH   3  18
TORSDOF 5
ENDMDL
MODEL 2
REMARK VINA RESULT:      55.0      2.816      6.662
REMARK  5 active torsions:
REMARK  status: ('A' for Active; 'I' for Inactive)
REMARK    1  A    between atoms: N_7  and  C_1 
REMARK    2  A    between atoms: C_4  and  C_3 
REMARK       I    between atoms: C_8  and  N_7 
REMARK    3  A    between atoms: C_15  and  C_8 
REMARK    4  A    between atoms: O_20  and  C_15 
REMARK    5  A    between atoms: C_22  and  O_20 
ROOT
ATOM      1  C   UNL d   1      15.122  15.441  -1.140  0.00  0.00     0.204 A 
ATOM      2  S   UNL d   1      14.856  14.686  -1.327  0.00  0.00    -0.031 SA
ATOM      3  C   UNL d   1      14.798  14.249  -0.618  0.00  0.00     0.119 A 
ATOM      4  N   UNL d   1      15.232  15.483  -0.320  0.00  0.00    -0.123 NA
ATOM      5  N   UNL d   1      15.029  14.743  -0.015  0.00  0.00    -0.143 NA
ENDROOT
BRANCH   1   6
ATOM      6  N   UNL d   1      15.273  16.087  -1.633  0.00  0.00    -0.248 N 
ATOM      7  C   UNL d   1      14.872  16.107  -2.401  0.00  0.00     0.291 C 
ATOM      8  O   UNL d   1      14.346  15.470  -2.618  0.00  0.00    -0.264 OA
ATOM      9  C   UNL d   1      15.778  16.681  -1.405  0.00  0.00     0.104 C 
BRANCH   7  10
ATOM     10  C   UNL d   1      15.003  16.741  -2.915  0.00  0.00     0.184 C 
BRANCH  10  11
ATOM     11  O   UNL d   1      15.158  16.578  -3.722  0.00  0.00    -0.300 OA
BRANCH  11  12
ATOM     12  C   UNL d   1      15.159  17.230  -4.240  0.00  0.00     0.100 A 
ATOM     13  C   UNL d   1      14.491  17.491  -4.648  0.00  0.00     0.025 A 
ATOM     14  C   UNL d   1      14.519  18.132  -5.148  0.00  0.00     0.002 A 
ATOM     15  C   UNL d   1      15.228  18.563  -5.276  0.00  0.00     0.000 A 
ATOM     16  C   UNL d   1      15.925  18.301  -4.858  0.00  0.00     0.002 A 
ATOM     17  C   UNL d   1      15.889  17.629  -4.336  0.00  0.00     0.025 A 
ENDBRANCH  11  12
ENDBRANCH  10  11
ENDBRANCH   7  10
ENDBRANCH   1   6
BRANCH   3  18
ATOM     18  C   UNL d   1      14.564  13.471  -0.474  0.00  0.00     0.081 A 
ATOM     19  C   UNL d   1      13.934  13.004  -0.285  0.00  0.00    -0.017 A 
ATOM     20  C   UNL d   1      14.046  12.231  -0.215  0.00  0.00    -0.008 A 
ATOM     21  C   UNL d   1      13.375  11.779  -0.019  0.00  0.00    -0.001 A 
ATOM     22  C   UNL d   1      14.824  12.052  -0.357  0.00  0.00    -0.022 A 
ATOM     23  C   UNL d   1      14.118  12.048  -0.208  0.00  0.00    -0.008 A 
ATOM     24  C   UNL d   1      14.127  12.817  -0.303  0.00  0.00    -0.017 A 
ATOM     25  C   UNL d   1      15.051  11.809  -0.376  0.00  0.00    -0.022 A 
ATOM     26  C   UNL d   1      15.541  12.446  -0.556  0.00  0.00     0.045 A 
ATOM     27  C   UNL d   1      15.338  13.238  -0.609  0.00  0.00     0.023 A 
ENDBRANCH   3  18
TORSDOF 5
ENDMDL
