MODEL 1
REMARK VINA RESULT:      -3.5      0.000      0.000
REMARK  2 active torsions:
REMARK  status: ('A' for Active; 'I' for Inactive)
REMARK    1  A    between atoms: N_3  and  C_1 
REMARK    2  A    between atoms: C_13  and  N_6 
ROOT
ATOM      1  C   UNL d   1      58.304  -0.288  30.524  0.00  0.00     0.143 A 
ATOM      2  C   UNL d   1      57.580  -0.559  30.838  0.00  0.00     0.297 A 
ATOM      3  C   UNL d   1      58.654   0.197  31.069  0.00  0.00     0.102 A 
ATOM      4  N   UNL d   1      58.158   0.240  31.734  0.00  0.00    -0.238 N 
ATOM      5  N   UNL d   1      57.498  -0.226  31.588  0.00  0.00    -0.209 N 
ATOM      6  O   UNL d   1      57.044  -1.061  30.476  0.00  0.00    -0.264 OA
ATOM      7  C   UNL d   1      58.316   0.682  32.420  0.00  0.00     0.120 C 
ATOM      8  C   UNL d   1      59.383   0.585  30.982  0.00  0.00     0.022 C 
ENDROOT
BRANCH   1   9
ATOM      9  N   UNL d   1      58.600  -0.492  29.775  0.00  0.00    -0.254 N 
ATOM     10  C   UNL d   1      58.506  -0.039  29.087  0.00  0.00     0.153 A 
ATOM     11  S   UNL d   1      58.885  -0.444  28.472  0.00  0.00    -0.053 SA
ATOM     12  S   UNL d   1      58.110   0.676  29.034  0.00  0.00    -0.052 SA
ATOM     13  C   UNL d   1      59.205  -1.135  28.788  0.00  0.00     0.099 A 
ATOM     14  C   UNL d   1      59.027  -1.160  29.587  0.00  0.00     0.273 A 
ATOM     15  O   UNL d   1      59.248  -1.766  30.111  0.00  0.00    -0.266 OA
ENDBRANCH   1   9
BRANCH   5  16
ATOM     16  C   UNL d   1      56.855  -0.354  32.087  0.00  0.00     0.085 A 
ATOM     17  C   UNL d   1      56.680  -1.115  32.357  0.00  0.00     0.019 A 
ATOM     18  C   UNL d   1      56.036  -1.231  32.855  0.00  0.00     0.002 A 
ATOM     19  C   UNL d   1      55.568  -0.606  33.085  0.00  0.00     0.000 A 
ATOM     20  C   UNL d   1      55.735   0.148  32.822  0.00  0.00     0.002 A 
ATOM     21  C   UNL d   1      56.382   0.280  32.320  0.00  0.00     0.019 A 
ENDBRANCH   5  16
TORSDOF 2
ENDMDL
MODEL 2
REMARK VINA RESULT:      -2.0      1.257      1.891
REMARK  2 active torsions:
REMARK  status: ('A' for Active; 'I' for Inactive)
REMARK    1  A    between atoms: N_3  and  C_1 
REMARK    2  A    between atoms: C_13  and  N_6 
ROOT
ATOM      1  C   UNL d   1      59.014  -0.322  29.657  0.00  0.00     0.143 A 
ATOM      2  C   UNL d   1      58.774  -0.409  30.451  0.00  0.00     0.297 A 
ATOM      3  C   UNL d   1      58.441   0.088  29.259  0.00  0.00     0.102 A 
ATOM      4  N   UNL d   1      57.831   0.265  29.794  0.00  0.00    -0.238 N 
ATOM      5  N   UNL d   1      58.039  -0.042  30.526  0.00  0.00    -0.209 N 
ATOM      6  O   UNL d   1      59.184  -0.786  31.051  0.00  0.00    -0.264 OA
ATOM      7  C   UNL d   1      57.136   0.682  29.606  0.00  0.00     0.120 C 
ATOM      8  C   UNL d   1      58.457   0.296  28.455  0.00  0.00     0.022 C 
ENDROOT
BRANCH   1   9
ATOM      9  N   UNL d   1      59.727  -0.613  29.344  0.00  0.00    -0.254 N 
ATOM     10  C   UNL d   1      59.821  -1.355  28.986  0.00  0.00     0.153 A 
ATOM     11  S   UNL d   1      60.613  -1.419  28.755  0.00  0.00    -0.053 SA
ATOM     12  S   UNL d   1      59.232  -1.915  28.883  0.00  0.00    -0.052 SA
ATOM     13  C   UNL d   1      60.993  -0.720  28.973  0.00  0.00     0.099 A 
ATOM     14  C   UNL d   1      60.446  -0.229  29.334  0.00  0.00     0.273 A 
ATOM     15  O   UNL d   1      60.603   0.528  29.636  0.00  0.00    -0.266 OA
ENDBRANCH   1   9
BRANCH   5  16
ATOM     16  C   UNL d   1      57.607  -0.003  31.227  0.00  0.00     0.085 A 
ATOM     17  C   UNL d   1      57.038  -0.576  31.400  0.00  0.00     0.019 A 
ATOM     18  C   UNL d   1      56.614  -0.527  32.103  0.00  0.00     0.002 A 
ATOM     19  C   UNL d   1      56.746   0.079  32.630  0.00  0.00     0.000 A 
ATOM     20  C   UNL d   1      57.307   0.649  32.465  0.00  0.00     0.002 A 
ATOM     21  C   UNL d   1      57.742   0.612  31.760  0.00  0.00     0.019 A 
ENDBRANCH   5  16
TORSDOF 2
ENDMDL
MODEL 3
REMARK VINA RESULT:      -1.3      1.482      2.232
REMARK  2 active torsions:
REMARK  status: ('A' for Active; 'I' for Inactive)
REMARK    1  A    between atoms: N_3  and  C_1 
REMARK    2  A    between atoms: C_13  and  N_6 
ROOT
ATOM      1  C   UNL d   1      58.843  -1.432  29.511  0.00  0.00     0.143 A 
ATOM      2  C   UNL d   1      58.408  -1.325  30.214  0.00  0.00     0.297 A 
ATOM      3  C   UNL d   1      58.954  -0.709  29.165  0.00  0.00     0.102 A 
ATOM      4  N   UNL d   1      58.591  -0.135  29.644  0.00  0.00    -0.238 N 
ATOM      5  N   UNL d   1      58.257  -0.517  30.288  0.00  0.00    -0.209 N 
ATOM      6  O   UNL d   1      58.171  -1.906  30.740  0.00  0.00    -0.264 OA
ATOM      7  C   UNL d   1      58.578   0.681  29.485  0.00  0.00     0.120 C 
ATOM      8  C   UNL d   1      59.359  -0.563  28.455  0.00  0.00     0.022 C 
ENDROOT
BRANCH   1   9
ATOM      9  N   UNL d   1      59.110  -2.166  29.228  0.00  0.00    -0.254 N 
ATOM     10  C   UNL d   1      59.877  -2.464  29.327  0.00  0.00     0.153 A 
ATOM     11  S   UNL d   1      59.903  -3.206  28.962  0.00  0.00    -0.053 SA
ATOM     12  S   UNL d   1      60.491  -2.086  29.717  0.00  0.00    -0.052 SA
ATOM     13  C   UNL d   1      59.157  -3.354  28.644  0.00  0.00     0.099 A 
ATOM     14  C   UNL d   1      58.674  -2.714  28.810  0.00  0.00     0.273 A 
ATOM     15  O   UNL d   1      57.877  -2.641  28.587  0.00  0.00    -0.266 OA
ENDBRANCH   1   9
BRANCH   5  16
ATOM     16  C   UNL d   1      57.839  -0.177  30.911  0.00  0.00     0.085 A 
ATOM     17  C   UNL d   1      58.234   0.257  31.493  0.00  0.00     0.019 A 
ATOM     18  C   UNL d   1      57.806   0.592  32.110  0.00  0.00     0.002 A 
ATOM     19  C   UNL d   1      56.999   0.503  32.156  0.00  0.00     0.000 A 
ATOM     20  C   UNL d   1      56.601   0.076  31.585  0.00  0.00     0.002 A 
ATOM     21  C   UNL d   1      57.020  -0.268  30.956  0.00  0.00     0.019 A 
ENDBRANCH   5  16
TORSDOF 2
ENDMDL
MODEL 4
REMARK VINA RESULT:      -0.6      2.184      4.027
REMARK  2 active torsions:
REMARK  status: ('A' for Active; 'I' for Inactive)
REMARK    1  A    between atoms: N_3  and  C_1 
REMARK    2  A    between atoms: C_13  and  N_6 
ROOT
ATOM      1  C   UNL d   1      59.159  -0.884  29.372  0.00  0.00     0.143 A 
ATOM      2  C   UNL d   1      58.936  -1.686  29.322  0.00  0.00     0.297 A 
ATOM      3  C   UNL d   1      59.908  -0.807  29.074  0.00  0.00     0.102 A 
ATOM      4  N   UNL d   1      60.168  -1.558  28.832  0.00  0.00    -0.238 N 
ATOM      5  N   UNL d   1      59.567  -2.096  28.986  0.00  0.00    -0.209 N 
ATOM      6  O   UNL d   1      58.224  -2.014  29.560  0.00  0.00    -0.264 OA
ATOM      7  C   UNL d   1      60.910  -1.721  28.493  0.00  0.00     0.120 C 
ATOM      8  C   UNL d   1      60.343  -0.102  29.018  0.00  0.00     0.022 C 
ENDROOT
BRANCH   1   9
ATOM      9  N   UNL d   1      58.681  -0.278  29.679  0.00  0.00    -0.254 N 
ATOM     10  C   UNL d   1      58.712   0.003  30.459  0.00  0.00     0.153 A 
ATOM     11  S   UNL d   1      58.145   0.603  30.527  0.00  0.00    -0.053 SA
ATOM     12  S   UNL d   1      59.214  -0.269  31.047  0.00  0.00    -0.052 SA
ATOM     13  C   UNL d   1      57.776   0.682  29.794  0.00  0.00     0.099 A 
ATOM     14  C   UNL d   1      58.108   0.140  29.278  0.00  0.00     0.273 A 
ATOM     15  O   UNL d   1      57.893   0.039  28.482  0.00  0.00    -0.266 OA
ENDBRANCH   1   9
BRANCH   5  16
ATOM     16  C   UNL d   1      59.571  -2.907  28.840  0.00  0.00     0.085 A 
ATOM     17  C   UNL d   1      60.265  -3.345  28.930  0.00  0.00     0.019 A 
ATOM     18  C   UNL d   1      60.257  -4.154  28.781  0.00  0.00     0.002 A 
ATOM     19  C   UNL d   1      59.574  -4.529  28.547  0.00  0.00     0.000 A 
ATOM     20  C   UNL d   1      58.884  -4.102  28.455  0.00  0.00     0.002 A 
ATOM     21  C   UNL d   1      58.878  -3.286  28.602  0.00  0.00     0.019 A 
ENDBRANCH   5  16
TORSDOF 2
ENDMDL
