MODEL 1
REMARK VINA RESULT:      51.0      0.000      0.000
REMARK  2 active torsions:
REMARK  status: ('A' for Active; 'I' for Inactive)
REMARK    1  A    between atoms: S_2  and  N_1 
REMARK    2  A    between atoms: C_8  and  S_2 
ROOT
ATOM      1  S   UNL d   1      56.956  49.444  51.556  0.00  0.00     0.273 S 
ATOM      2  O   UNL d   1      57.740  49.207  51.613  0.00  0.00    -0.200 OA
ATOM      3  O   UNL d   1      56.168  49.681  51.489  0.00  0.00    -0.200 OA
ENDROOT
BRANCH   1   4
ATOM      4  N   UNL d   1      57.014  49.376  50.735  0.00  0.00    -0.207 N 
ATOM      5  C   UNL d   1      57.780  49.487  50.434  0.00  0.00     0.148 A 
ATOM      6  N   UNL d   1      58.026  49.457  49.640  0.00  0.00    -0.198 NA
ATOM      7  C   UNL d   1      57.588  49.313  48.975  0.00  0.00     0.066 A 
ATOM      8  C   UNL d   1      57.115  49.325  50.005  0.00  0.00     0.169 A 
ATOM      9  C   UNL d   1      56.785  49.160  48.912  0.00  0.00     0.066 A 
ATOM     10  N   UNL d   1      56.220  49.114  49.514  0.00  0.00    -0.198 NA
ATOM     11  C   UNL d   1      56.325  49.210  50.323  0.00  0.00     0.148 A 
ENDBRANCH   1   4
BRANCH   1  12
ATOM     12  C   UNL d   1      56.906  49.509  52.376  0.00  0.00     0.104 A 
ATOM     13  C   UNL d   1      57.588  49.639  52.822  0.00  0.00     0.013 A 
ATOM     14  C   UNL d   1      57.538  49.704  53.643  0.00  0.00     0.001 A 
ATOM     15  C   UNL d   1      56.806  49.639  54.018  0.00  0.00     0.000 A 
ATOM     16  C   UNL d   1      56.123  49.509  53.572  0.00  0.00     0.001 A 
ATOM     17  C   UNL d   1      56.765  49.706  54.840  0.00  0.00     0.000 C 
ATOM     18  C   UNL d   1      56.173  49.444  52.751  0.00  0.00     0.013 A 
ENDBRANCH   1  12
TORSDOF 2
ENDMDL
