MODEL 1
REMARK VINA RESULT:      17.9      0.000      0.000
REMARK  7 active torsions:
REMARK  status: ('A' for Active; 'I' for Inactive)
REMARK    1  A    between atoms: C_8  and  N_1 
REMARK       I    between atoms: C_3  and  N_5 
REMARK       I    between atoms: N_9  and  C_3 
REMARK    2  A    between atoms: N_5  and  C_6 
REMARK    3  A    between atoms: C_18  and  N_9 
REMARK    4  A    between atoms: C_19  and  N_9 
REMARK    5  A    between atoms: O_17  and  C_14 
REMARK    6  A    between atoms: C_21  and  C_18 
REMARK    7  A    between atoms: C_22  and  C_19 
ROOT
ATOM      1  N   UNL d   1      46.157 -17.725  43.723  0.00  0.00    -0.272 N 
ATOM      2  C   UNL d   1      45.974 -17.816  44.525  0.00  0.00     0.266 A 
ATOM      3  C   UNL d   1      45.906 -17.053  44.846  0.00  0.00     0.082 A 
ATOM      4  C   UNL d   1      46.046 -16.504  44.246  0.00  0.00     0.108 A 
ATOM      5  C   UNL d   1      46.201 -16.927  43.553  0.00  0.00     0.102 A 
ATOM      6  O   UNL d   1      45.878 -18.523  44.927  0.00  0.00    -0.267 OA
ENDROOT
BRANCH   4   7
ATOM      7  N   UNL d   1      46.032 -15.681  44.330  0.00  0.00    -0.190 NA
ATOM      8  C   UNL d   1      45.315 -15.284  44.316  0.00  0.00     0.354 C 
ATOM      9  N   UNL d   1      45.295 -14.462  44.399  0.00  0.00    -0.256 N 
ATOM     10  O   UNL d   1      44.610 -15.699  44.221  0.00  0.00    -0.244 OA
BRANCH   9  11
ATOM     11  C   UNL d   1      44.575 -14.052  44.387  0.00  0.00     0.085 C 
BRANCH  11  12
ATOM     12  C   UNL d   1      44.467 -13.403  43.899  0.00  0.00     0.019 C 
ATOM     13  C   UNL d   1      43.804 -13.340  43.413  0.00  0.00     0.002 C 
ENDBRANCH  11  12
ENDBRANCH   9  11
BRANCH   9  14
ATOM     14  C   UNL d   1      46.002 -14.044  44.495  0.00  0.00     0.085 C 
BRANCH  14  15
ATOM     15  C   UNL d   1      46.009 -13.360  44.954  0.00  0.00     0.019 C 
ATOM     16  C   UNL d   1      46.634 -12.815  44.873  0.00  0.00     0.002 C 
ENDBRANCH  14  15
ENDBRANCH   9  14
ENDBRANCH   4   7
BRANCH   1  17
ATOM     17  C   UNL d   1      46.275 -18.341  43.188  0.00  0.00     0.067 A 
ATOM     18  C   UNL d   1      46.527 -18.175  42.418  0.00  0.00     0.020 A 
ATOM     19  C   UNL d   1      46.645 -18.792  41.882  0.00  0.00     0.026 A 
ATOM     20  C   UNL d   1      46.513 -19.571  42.114  0.00  0.00     0.094 A 
ATOM     21  C   UNL d   1      46.263 -19.742  42.879  0.00  0.00     0.026 A 
ATOM     22  C   UNL d   1      46.144 -19.119  43.420  0.00  0.00     0.020 A 
BRANCH  20  23
ATOM     23  O   UNL d   1      46.633 -20.182  41.572  0.00  0.00    -0.328 OA
ATOM     24  C   UNL d   1      46.074 -20.316  40.983  0.00  0.00     0.181 C 
ENDBRANCH  20  23
ENDBRANCH   1  17
TORSDOF 7
ENDMDL
