MODEL 1
REMARK VINA RESULT:      62.8      0.000      0.000
REMARK  5 active torsions:
REMARK  status: ('A' for Active; 'I' for Inactive)
REMARK    1  A    between atoms: S_2  and  C_1 
REMARK    2  A    between atoms: N_8  and  S_2 
REMARK    3  A    between atoms: C_11  and  C_16 
REMARK    4  A    between atoms: O_22  and  C_11 
REMARK    5  A    between atoms: C_23  and  O_22 
ROOT
ATOM      1  S   UNL d   1     -49.843  27.192  34.211  0.00  0.00     0.277 S 
ATOM      2  O   UNL d   1     -49.648  27.335  33.419  0.00  0.00    -0.199 OA
ATOM      3  O   UNL d   1     -50.028  27.060  35.001  0.00  0.00    -0.199 OA
ENDROOT
BRANCH   1   4
ATOM      4  C   UNL d   1     -50.351  26.585  33.984  0.00  0.00     0.178 A 
ATOM      5  C   UNL d   1     -50.034  25.857  33.758  0.00  0.00     0.282 A 
ATOM      6  N   UNL d   1     -50.542  25.254  33.532  0.00  0.00    -0.224 N 
ATOM      7  O   UNL d   1     -49.234  25.742  33.758  0.00  0.00    -0.266 OA
ATOM      8  C   UNL d   1     -50.220  24.528  33.307  0.00  0.00     0.107 C 
ATOM      9  C   UNL d   1     -51.354  25.370  33.532  0.00  0.00     0.342 A 
ATOM     10  N   UNL d   1     -51.663  26.091  33.756  0.00  0.00    -0.255 N 
ATOM     11  O   UNL d   1     -51.866  24.765  33.306  0.00  0.00    -0.245 OA
ATOM     12  C   UNL d   1     -51.164  26.702  33.984  0.00  0.00     0.102 A 
ATOM     13  C   UNL d   1     -52.472  26.207  33.755  0.00  0.00     0.104 C 
ENDBRANCH   1   4
BRANCH   1  14
ATOM     14  N   UNL d   1     -49.336  27.799  34.449  0.00  0.00    -0.229 N 
ATOM     15  C   UNL d   1     -48.970  27.769  35.213  0.00  0.00     0.092 A 
ATOM     16  C   UNL d   1     -48.460  28.392  35.438  0.00  0.00     0.025 A 
ATOM     17  C   UNL d   1     -48.311  29.034  34.921  0.00  0.00     0.067 A 
ATOM     18  C   UNL d   1     -48.670  29.063  34.171  0.00  0.00     0.025 A 
ATOM     19  C   UNL d   1     -49.187  28.441  33.932  0.00  0.00     0.092 A 
BRANCH  17  20
ATOM     20  C   UNL d   1     -47.812  29.633  35.153  0.00  0.00     0.300 C 
ATOM     21  O   UNL d   1     -47.218  29.479  35.660  0.00  0.00    -0.259 OA
BRANCH  20  22
ATOM     22  O   UNL d   1     -47.930  30.378  34.863  0.00  0.00    -0.271 OA
BRANCH  22  23
ATOM     23  C   UNL d   1     -47.488  30.983  35.106  0.00  0.00     0.126 C 
ATOM     24  C   UNL d   1     -47.643  31.727  34.846  0.00  0.00     0.029 C 
ENDBRANCH  22  23
ENDBRANCH  20  22
ENDBRANCH  17  20
ENDBRANCH   1  14
TORSDOF 5
ENDMDL
