MODEL 1
REMARK VINA RESULT:      50.0      0.000      0.000
REMARK  4 active torsions:
REMARK  status: ('A' for Active; 'I' for Inactive)
REMARK    1  A    between atoms: N_2  and  S_1 
REMARK    2  A    between atoms: C_3  and  S_1 
REMARK    3  A    between atoms: O_19  and  C_14 
REMARK    4  A    between atoms: O_20  and  C_17 
ROOT
ATOM      1  S   UNL d   1     -56.966 -99.225 -44.347  0.00  0.00     0.275 S 
ATOM      2  O   UNL d   1     -56.933 -99.610 -43.538  0.00  0.00    -0.199 OA
ATOM      3  O   UNL d   1     -57.002 -98.838 -45.160  0.00  0.00    -0.199 OA
ENDROOT
BRANCH   1   4
ATOM      4  N   UNL d   1     -56.092 -99.381 -44.441  0.00  0.00    -0.212 N 
ATOM      5  C   UNL d   1     -55.798-100.131 -44.374  0.00  0.00     0.094 A 
ATOM      6  C   UNL d   1     -54.999-100.274 -44.460  0.00  0.00     0.100 A 
ATOM      7  C   UNL d   1     -56.311-100.744 -44.219  0.00  0.00     0.020 A 
ATOM      8  C   UNL d   1     -54.712-101.034 -44.391  0.00  0.00     0.021 A 
ATOM      9  N   UNL d   1     -54.779 -98.904 -44.684  0.00  0.00    -0.223 NA
ATOM     10  C   UNL d   1     -55.221-101.655 -44.235  0.00  0.00     0.002 A 
ATOM     11  C   UNL d   1     -56.020-101.513 -44.149  0.00  0.00     0.002 A 
ATOM     12  C   UNL d   1     -54.935-102.420 -44.165  0.00  0.00     0.000 C 
ATOM     13  C   UNL d   1     -56.536-102.127 -43.993  0.00  0.00     0.000 C 
ATOM     14  C   UNL d   1     -55.578 -98.762 -44.597  0.00  0.00     0.193 A 
ENDBRANCH   1   4
BRANCH   1  15
ATOM     15  C   UNL d   1     -57.843 -99.070 -44.249  0.00  0.00     0.128 A 
ATOM     16  C   UNL d   1     -58.219 -99.057 -43.428  0.00  0.00     0.039 A 
ATOM     17  C   UNL d   1     -59.096 -98.902 -43.339  0.00  0.00     0.095 A 
ATOM     18  C   UNL d   1     -59.599 -98.759 -44.061  0.00  0.00     0.026 A 
ATOM     19  C   UNL d   1     -59.231 -98.771 -44.878  0.00  0.00     0.027 A 
ATOM     20  C   UNL d   1     -58.356 -98.927 -44.963  0.00  0.00     0.106 A 
BRANCH  17  21
ATOM     21  O   UNL d   1     -59.472 -98.888 -42.533  0.00  0.00    -0.328 OA
ATOM     22  C   UNL d   1     -59.563 -99.663 -42.072  0.00  0.00     0.181 C 
ENDBRANCH  17  21
BRANCH  20  23
ATOM     23  O   UNL d   1     -57.979 -98.940 -45.782  0.00  0.00    -0.327 OA
ATOM     24  C   UNL d   1     -58.487 -98.758 -46.503  0.00  0.00     0.181 C 
ENDBRANCH  20  23
ENDBRANCH   1  15
TORSDOF 4
ENDMDL
