MODEL 1
REMARK VINA RESULT:      -1.5      0.000      0.000
REMARK  6 active torsions:
REMARK  status: ('A' for Active; 'I' for Inactive)
REMARK    1  A    between atoms: C_9  and  C_2 
REMARK    2  A    between atoms: N_12  and  C_6 
REMARK    3  A    between atoms: N_11  and  C_20 
REMARK    4  A    between atoms: C_19  and  N_12 
REMARK    5  A    between atoms: O_21  and  C_16 
REMARK    6  A    between atoms: C_20  and  C_19 
ROOT
ATOM      1  C   UNL d   1      59.965  -0.693  29.421  0.00  0.00     0.060 A 
ATOM      2  C   UNL d   1      60.022  -1.313  28.903  0.00  0.00     0.011 A 
ATOM      3  C   UNL d   1      60.747  -1.232  28.472  0.00  0.00     0.037 A 
ATOM      4  C   UNL d   1      60.652  -0.205  29.329  0.00  0.00     0.116 A 
ATOM      5  S   UNL d   1      61.133  -0.549  28.737  0.00  0.00    -0.067 SA
ATOM      6  C   UNL d   1      59.398  -0.481  29.970  0.00  0.00     0.166 A 
ATOM      7  N   UNL d   1      60.755   0.479  29.788  0.00  0.00    -0.217 NA
ATOM      8  N   UNL d   1      59.501   0.186  30.416  0.00  0.00    -0.205 NA
ATOM      9  C   UNL d   1      60.193   0.682  30.327  0.00  0.00     0.201 A 
ENDROOT
BRANCH   6  10
ATOM     10  N   UNL d   1      58.715  -0.939  30.081  0.00  0.00    -0.224 NA
BRANCH  10  11
ATOM     11  C   UNL d   1      58.268  -0.846  30.766  0.00  0.00     0.120 C 
BRANCH  11  12
ATOM     12  C   UNL d   1      57.498  -0.522  30.727  0.00  0.00     0.101 C 
BRANCH  12  13
ATOM     13  N   UNL d   1      57.015  -0.522  31.406  0.00  0.00    -0.298 N 
ATOM     14  C   UNL d   1      56.993  -1.170  31.864  0.00  0.00     0.107 A 
ATOM     15  C   UNL d   1      56.506  -1.158  32.540  0.00  0.00     0.142 A 
ATOM     16  O   UNL d   1      56.079  -0.504  32.712  0.00  0.00    -0.300 OA
ATOM     17  C   UNL d   1      56.103   0.138  32.256  0.00  0.00     0.142 A 
ATOM     18  C   UNL d   1      56.571   0.153  31.588  0.00  0.00     0.107 A 
ENDBRANCH  12  13
ENDBRANCH  11  12
ENDBRANCH  10  11
ENDBRANCH   6  10
BRANCH   2  19
ATOM     19  C   UNL d   1      59.464  -1.885  28.841  0.00  0.00     0.001 A 
ATOM     20  C   UNL d   1      58.725  -1.727  28.520  0.00  0.00     0.002 A 
ATOM     21  C   UNL d   1      58.151  -2.311  28.455  0.00  0.00     0.024 A 
ATOM     22  C   UNL d   1      58.303  -3.080  28.713  0.00  0.00     0.094 A 
ATOM     23  C   UNL d   1      59.068  -3.231  29.041  0.00  0.00     0.024 A 
ATOM     24  C   UNL d   1      59.637  -2.648  29.105  0.00  0.00     0.002 A 
BRANCH  22  25
ATOM     25  O   UNL d   1      57.861  -3.617  28.685  0.00  0.00    -0.328 OA
ATOM     26  C   UNL d   1      58.120  -4.396  28.486  0.00  0.00     0.181 C 
ENDBRANCH  22  25
ENDBRANCH   2  19
TORSDOF 6
ENDMDL
