MODEL 1
REMARK VINA RESULT:      -6.9      0.000      0.000
REMARK  3 active torsions:
REMARK  status: ('A' for Active; 'I' for Inactive)
REMARK       I    between atoms: C_4  and  N_1 
REMARK    1  A    between atoms: C_2  and  S_8 
REMARK    2  A    between atoms: C_10  and  C_4 
REMARK    3  A    between atoms: S_8  and  C_10 
ROOT
ATOM      1  N   UNL d   1     -48.047  12.645  23.273  0.00  0.00    -0.274 N 
ATOM      2  C   UNL d   1     -47.328  12.246  23.355  0.00  0.00     0.067 A 
ATOM      3  C   UNL d   1     -48.147  13.446  23.057  0.00  0.00     0.259 C 
ATOM      4  C   UNL d   1     -48.661  12.110  23.445  0.00  0.00     0.083 A 
ATOM      5  C   UNL d   1     -47.489  11.468  23.575  0.00  0.00     0.018 A 
ATOM      6  O   UNL d   1     -47.483  13.927  22.899  0.00  0.00    -0.267 OA
ATOM      7  C   UNL d   1     -48.308  11.390  23.629  0.00  0.00     0.021 A 
ATOM      8  C   UNL d   1     -46.547  12.492  23.256  0.00  0.00     0.018 A 
ATOM      9  C   UNL d   1     -46.880  10.935  23.698  0.00  0.00     0.002 A 
ATOM     10  C   UNL d   1     -45.932  11.971  23.375  0.00  0.00     0.002 A 
ATOM     11  C   UNL d   1     -46.087  11.184  23.598  0.00  0.00     0.000 A 
ENDROOT
BRANCH   3  12
ATOM     12  C   UNL d   1     -48.913  13.773  22.997  0.00  0.00     0.127 C 
BRANCH  12  13
ATOM     13  S   UNL d   1     -49.018  14.588  23.043  0.00  0.00    -0.069 SA
BRANCH  13  14
ATOM     14  C   UNL d   1     -49.785  14.905  23.034  0.00  0.00     0.140 A 
ATOM     15  N   UNL d   1     -50.470  14.718  22.601  0.00  0.00    -0.230 NA
ATOM     16  C   UNL d   1     -51.064  15.237  22.842  0.00  0.00     0.107 A 
ATOM     17  C   UNL d   1     -50.767  15.740  23.413  0.00  0.00     0.058 A 
ATOM     18  S   UNL d   1     -49.975  15.542  23.538  0.00  0.00    -0.059 SA
ENDBRANCH  13  14
ENDBRANCH  12  13
ENDBRANCH   3  12
TORSDOF 3
ENDMDL
MODEL 2
REMARK VINA RESULT:      -6.5      1.685      4.435
REMARK  3 active torsions:
REMARK  status: ('A' for Active; 'I' for Inactive)
REMARK       I    between atoms: C_4  and  N_1 
REMARK    1  A    between atoms: C_2  and  S_8 
REMARK    2  A    between atoms: C_10  and  C_4 
REMARK    3  A    between atoms: S_8  and  C_10 
ROOT
ATOM      1  N   UNL d   1     -48.394  13.841  23.031  0.00  0.00    -0.274 N 
ATOM      2  C   UNL d   1     -49.123  14.231  23.025  0.00  0.00     0.067 A 
ATOM      3  C   UNL d   1     -48.255  13.056  23.281  0.00  0.00     0.259 C 
ATOM      4  C   UNL d   1     -47.816  14.366  22.743  0.00  0.00     0.083 A 
ATOM      5  C   UNL d   1     -49.003  14.994  22.736  0.00  0.00     0.018 A 
ATOM      6  O   UNL d   1     -48.884  12.583  23.560  0.00  0.00    -0.267 OA
ATOM      7  C   UNL d   1     -48.201  15.072  22.565  0.00  0.00     0.021 A 
ATOM      8  C   UNL d   1     -49.879  13.988  23.246  0.00  0.00     0.018 A 
ATOM      9  C   UNL d   1     -49.630  15.515  22.666  0.00  0.00     0.002 A 
ATOM     10  C   UNL d   1     -50.512  14.498  23.181  0.00  0.00     0.002 A 
ATOM     11  C   UNL d   1     -50.400  15.269  22.891  0.00  0.00     0.000 A 
ENDROOT
BRANCH   3  12
ATOM     12  C   UNL d   1     -47.484  12.736  23.255  0.00  0.00     0.127 C 
BRANCH  12  13
ATOM     13  S   UNL d   1     -47.349  11.964  23.503  0.00  0.00    -0.069 SA
BRANCH  13  14
ATOM     14  C   UNL d   1     -46.576  11.660  23.500  0.00  0.00     0.140 A 
ATOM     15  N   UNL d   1     -45.835  11.998  23.331  0.00  0.00    -0.230 NA
ATOM     16  C   UNL d   1     -45.266  11.408  23.425  0.00  0.00     0.107 A 
ATOM     17  C   UNL d   1     -45.634  10.714  23.649  0.00  0.00     0.058 A 
ATOM     18  S   UNL d   1     -46.445  10.860  23.698  0.00  0.00    -0.059 SA
ENDBRANCH  13  14
ENDBRANCH  12  13
ENDBRANCH   3  12
TORSDOF 3
ENDMDL
MODEL 3
REMARK VINA RESULT:      -6.5      1.680      4.215
REMARK  3 active torsions:
REMARK  status: ('A' for Active; 'I' for Inactive)
REMARK       I    between atoms: C_4  and  N_1 
REMARK    1  A    between atoms: C_2  and  S_8 
REMARK    2  A    between atoms: C_10  and  C_4 
REMARK    3  A    between atoms: S_8  and  C_10 
ROOT
ATOM      1  N   UNL d   1     -48.989  14.125  23.130  0.00  0.00    -0.274 N 
ATOM      2  C   UNL d   1     -49.621  14.641  23.258  0.00  0.00     0.067 A 
ATOM      3  C   UNL d   1     -48.198  14.341  22.969  0.00  0.00     0.259 C 
ATOM      4  C   UNL d   1     -49.275  13.345  23.190  0.00  0.00     0.083 A 
ATOM      5  C   UNL d   1     -50.298  14.190  23.396  0.00  0.00     0.018 A 
ATOM      6  O   UNL d   1     -47.981  15.145  22.924  0.00  0.00    -0.267 OA
ATOM      7  C   UNL d   1     -50.080  13.396  23.353  0.00  0.00     0.021 A 
ATOM      8  C   UNL d   1     -49.667  15.465  23.265  0.00  0.00     0.018 A 
ATOM      9  C   UNL d   1     -51.017  14.553  23.541  0.00  0.00     0.002 A 
ATOM     10  C   UNL d   1     -50.377  15.837  23.409  0.00  0.00     0.002 A 
ATOM     11  C   UNL d   1     -51.064  15.389  23.549  0.00  0.00     0.000 A 
ENDROOT
BRANCH   3  12
ATOM     12  C   UNL d   1     -47.617  13.752  22.852  0.00  0.00     0.127 C 
BRANCH  12  13
ATOM     13  S   UNL d   1     -46.819  13.956  22.846  0.00  0.00    -0.069 SA
BRANCH  13  14
ATOM     14  C   UNL d   1     -46.243  13.361  22.795  0.00  0.00     0.140 A 
ATOM     15  N   UNL d   1     -46.069  12.699  23.270  0.00  0.00    -0.230 NA
ATOM     16  C   UNL d   1     -45.425  12.313  22.928  0.00  0.00     0.107 A 
ATOM     17  C   UNL d   1     -45.195  12.716  22.256  0.00  0.00     0.058 A 
ATOM     18  S   UNL d   1     -45.696  13.366  22.166  0.00  0.00    -0.059 SA
ENDBRANCH  13  14
ENDBRANCH  12  13
ENDBRANCH   3  12
TORSDOF 3
ENDMDL
MODEL 4
REMARK VINA RESULT:      -5.7      1.785      3.926
REMARK  3 active torsions:
REMARK  status: ('A' for Active; 'I' for Inactive)
REMARK       I    between atoms: C_4  and  N_1 
REMARK    1  A    between atoms: C_2  and  S_8 
REMARK    2  A    between atoms: C_10  and  C_4 
REMARK    3  A    between atoms: S_8  and  C_10 
ROOT
ATOM      1  N   UNL d   1     -48.662  12.600  23.185  0.00  0.00    -0.274 N 
ATOM      2  C   UNL d   1     -49.448  12.813  23.329  0.00  0.00     0.067 A 
ATOM      3  C   UNL d   1     -48.032  13.121  23.014  0.00  0.00     0.259 C 
ATOM      4  C   UNL d   1     -48.603  11.772  23.240  0.00  0.00     0.083 A 
ATOM      5  C   UNL d   1     -49.878  12.124  23.473  0.00  0.00     0.018 A 
ATOM      6  O   UNL d   1     -48.164  13.945  22.975  0.00  0.00    -0.267 OA
ATOM      7  C   UNL d   1     -49.355  11.489  23.417  0.00  0.00     0.021 A 
ATOM      8  C   UNL d   1     -49.826  13.545  23.348  0.00  0.00     0.018 A 
ATOM      9  C   UNL d   1     -50.680  12.160  23.634  0.00  0.00     0.002 A 
ATOM     10  C   UNL d   1     -50.623  13.594  23.507  0.00  0.00     0.002 A 
ATOM     11  C   UNL d   1     -51.064  12.904  23.653  0.00  0.00     0.000 A 
ENDROOT
BRANCH   3  12
ATOM     12  C   UNL d   1     -47.264  12.823  22.880  0.00  0.00     0.127 C 
BRANCH  12  13
ATOM     13  S   UNL d   1     -46.641  13.339  22.730  0.00  0.00    -0.069 SA
BRANCH  13  14
ATOM     14  C   UNL d   1     -45.881  13.037  22.588  0.00  0.00     0.140 A 
ATOM     15  N   UNL d   1     -45.421  12.459  22.970  0.00  0.00    -0.230 NA
ATOM     16  C   UNL d   1     -44.705  12.404  22.564  0.00  0.00     0.107 A 
ATOM     17  C   UNL d   1     -44.708  12.931  21.941  0.00  0.00     0.058 A 
ATOM     18  S   UNL d   1     -45.432  13.327  21.947  0.00  0.00    -0.059 SA
ENDBRANCH  13  14
ENDBRANCH  12  13
ENDBRANCH   3  12
TORSDOF 3
ENDMDL
MODEL 5
REMARK VINA RESULT:      -5.4      9.256      9.996
REMARK  3 active torsions:
REMARK  status: ('A' for Active; 'I' for Inactive)
REMARK       I    between atoms: C_4  and  N_1 
REMARK    1  A    between atoms: C_2  and  S_8 
REMARK    2  A    between atoms: C_10  and  C_4 
REMARK    3  A    between atoms: S_8  and  C_10 
ROOT
ATOM      1  N   UNL d   1     -40.090  14.723  18.887  0.00  0.00    -0.274 N 
ATOM      2  C   UNL d   1     -40.432  15.062  18.215  0.00  0.00     0.067 A 
ATOM      3  C   UNL d   1     -40.193  14.976  19.676  0.00  0.00     0.259 C 
ATOM      4  C   UNL d   1     -39.620  14.081  18.643  0.00  0.00     0.083 A 
ATOM      5  C   UNL d   1     -40.179  14.636  17.556  0.00  0.00     0.018 A 
ATOM      6  O   UNL d   1     -40.681  15.631  19.849  0.00  0.00    -0.267 OA
ATOM      7  C   UNL d   1     -39.682  14.036  17.823  0.00  0.00     0.021 A 
ATOM      8  C   UNL d   1     -40.941  15.704  18.120  0.00  0.00     0.018 A 
ATOM      9  C   UNL d   1     -40.430  14.845  16.805  0.00  0.00     0.002 A 
ATOM     10  C   UNL d   1     -41.197  15.921  17.378  0.00  0.00     0.002 A 
ATOM     11  C   UNL d   1     -40.947  15.497  16.707  0.00  0.00     0.000 A 
ENDROOT
BRANCH   3  12
ATOM     12  C   UNL d   1     -39.809  14.576  20.300  0.00  0.00     0.127 C 
BRANCH  12  13
ATOM     13  S   UNL d   1     -39.844  14.876  21.066  0.00  0.00    -0.069 SA
BRANCH  13  14
ATOM     14  C   UNL d   1     -39.458  14.476  21.682  0.00  0.00     0.140 A 
ATOM     15  N   UNL d   1     -39.415  13.672  21.896  0.00  0.00    -0.230 NA
ATOM     16  C   UNL d   1     -38.941  13.621  22.570  0.00  0.00     0.107 A 
ATOM     17  C   UNL d   1     -38.690  14.369  22.780  0.00  0.00     0.058 A 
ATOM     18  S   UNL d   1     -39.005  14.905  22.236  0.00  0.00    -0.059 SA
ENDBRANCH  13  14
ENDBRANCH  12  13
ENDBRANCH   3  12
TORSDOF 3
ENDMDL
MODEL 6
REMARK VINA RESULT:      -5.3      9.242      9.846
REMARK  3 active torsions:
REMARK  status: ('A' for Active; 'I' for Inactive)
REMARK       I    between atoms: C_4  and  N_1 
REMARK    1  A    between atoms: C_2  and  S_8 
REMARK    2  A    between atoms: C_10  and  C_4 
REMARK    3  A    between atoms: S_8  and  C_10 
ROOT
ATOM      1  N   UNL d   1     -39.538  14.365  20.234  0.00  0.00    -0.274 N 
ATOM      2  C   UNL d   1     -39.086  14.020  20.834  0.00  0.00     0.067 A 
ATOM      3  C   UNL d   1     -39.387  14.321  19.413  0.00  0.00     0.259 C 
ATOM      4  C   UNL d   1     -40.175  14.767  20.587  0.00  0.00     0.083 A 
ATOM      5  C   UNL d   1     -39.437  14.205  21.557  0.00  0.00     0.018 A 
ATOM      6  O   UNL d   1     -38.726  13.898  19.127  0.00  0.00    -0.267 OA
ATOM      7  C   UNL d   1     -40.104  14.663  21.400  0.00  0.00     0.021 A 
ATOM      8  C   UNL d   1     -38.401  13.562  20.814  0.00  0.00     0.018 A 
ATOM      9  C   UNL d   1     -39.110  13.937  22.258  0.00  0.00     0.002 A 
ATOM     10  C   UNL d   1     -38.066  13.290  21.505  0.00  0.00     0.002 A 
ATOM     11  C   UNL d   1     -38.414  13.471  22.239  0.00  0.00     0.000 A 
ENDROOT
BRANCH   3  12
ATOM     12  C   UNL d   1     -39.896  14.700  18.871  0.00  0.00     0.127 C 
BRANCH  12  13
ATOM     13  S   UNL d   1     -39.714  14.704  18.068  0.00  0.00    -0.069 SA
BRANCH  13  14
ATOM     14  C   UNL d   1     -40.229  15.073  17.532  0.00  0.00     0.140 A 
ATOM     15  N   UNL d   1     -41.043  14.991  17.380  0.00  0.00    -0.230 NA
ATOM     16  C   UNL d   1     -41.236  15.517  16.774  0.00  0.00     0.107 A 
ATOM     17  C   UNL d   1     -40.565  15.922  16.545  0.00  0.00     0.058 A 
ATOM     18  S   UNL d   1     -39.936  15.654  17.009  0.00  0.00    -0.059 SA
ENDBRANCH  13  14
ENDBRANCH  12  13
ENDBRANCH   3  12
TORSDOF 3
ENDMDL
MODEL 7
REMARK VINA RESULT:      -5.1      9.404     10.684
REMARK  3 active torsions:
REMARK  status: ('A' for Active; 'I' for Inactive)
REMARK       I    between atoms: C_4  and  N_1 
REMARK    1  A    between atoms: C_2  and  S_8 
REMARK    2  A    between atoms: C_10  and  C_4 
REMARK    3  A    between atoms: S_8  and  C_10 
ROOT
ATOM      1  N   UNL d   1     -39.047  14.096  17.579  0.00  0.00    -0.274 N 
ATOM      2  C   UNL d   1     -38.711  14.078  16.824  0.00  0.00     0.067 A 
ATOM      3  C   UNL d   1     -39.479  14.728  17.914  0.00  0.00     0.259 C 
ATOM      4  C   UNL d   1     -38.880  13.372  17.955  0.00  0.00     0.083 A 
ATOM      5  C   UNL d   1     -38.338  13.349  16.727  0.00  0.00     0.018 A 
ATOM      6  O   UNL d   1     -39.608  15.429  17.478  0.00  0.00    -0.267 OA
ATOM      7  C   UNL d   1     -38.445  12.920  17.423  0.00  0.00     0.021 A 
ATOM      8  C   UNL d   1     -38.698  14.632  16.213  0.00  0.00     0.018 A 
ATOM      9  C   UNL d   1     -37.953  13.169  16.027  0.00  0.00     0.002 A 
ATOM     10  C   UNL d   1     -38.319  14.464  15.512  0.00  0.00     0.002 A 
ATOM     11  C   UNL d   1     -37.940  13.731  15.406  0.00  0.00     0.000 A 
ENDROOT
BRANCH   3  12
ATOM     12  C   UNL d   1     -39.785  14.665  18.688  0.00  0.00     0.127 C 
BRANCH  12  13
ATOM     13  S   UNL d   1     -40.245  15.272  19.000  0.00  0.00    -0.069 SA
BRANCH  13  14
ATOM     14  C   UNL d   1     -40.530  15.214  19.778  0.00  0.00     0.140 A 
ATOM     15  N   UNL d   1     -40.550  14.590  20.328  0.00  0.00    -0.230 NA
ATOM     16  C   UNL d   1     -40.908  14.877  21.014  0.00  0.00     0.107 A 
ATOM     17  C   UNL d   1     -41.110  15.660  20.905  0.00  0.00     0.058 A 
ATOM     18  S   UNL d   1     -40.880  15.878  20.142  0.00  0.00    -0.059 SA
ENDBRANCH  13  14
ENDBRANCH  12  13
ENDBRANCH   3  12
TORSDOF 3
ENDMDL
MODEL 8
REMARK VINA RESULT:      -5.0      9.244     10.761
REMARK  3 active torsions:
REMARK  status: ('A' for Active; 'I' for Inactive)
REMARK       I    between atoms: C_4  and  N_1 
REMARK    1  A    between atoms: C_2  and  S_8 
REMARK    2  A    between atoms: C_10  and  C_4 
REMARK    3  A    between atoms: S_8  and  C_10 
ROOT
ATOM      1  N   UNL d   1     -39.763  14.924  19.138  0.00  0.00    -0.274 N 
ATOM      2  C   UNL d   1     -40.252  15.233  19.728  0.00  0.00     0.067 A 
ATOM      3  C   UNL d   1     -39.865  15.011  18.313  0.00  0.00     0.259 C 
ATOM      4  C   UNL d   1     -39.143  14.508  19.507  0.00  0.00     0.083 A 
ATOM      5  C   UNL d   1     -39.943  15.013  20.460  0.00  0.00     0.018 A 
ATOM      6  O   UNL d   1     -40.512  15.445  18.012  0.00  0.00    -0.267 OA
ATOM      7  C   UNL d   1     -39.263  14.568  20.318  0.00  0.00     0.021 A 
ATOM      8  C   UNL d   1     -40.939  15.687  19.692  0.00  0.00     0.018 A 
ATOM      9  C   UNL d   1     -40.313  15.241  21.153  0.00  0.00     0.002 A 
ATOM     10  C   UNL d   1     -41.317  15.921  20.375  0.00  0.00     0.002 A 
ATOM     11  C   UNL d   1     -41.011  15.702  21.117  0.00  0.00     0.000 A 
ENDROOT
BRANCH   3  12
ATOM     12  C   UNL d   1     -39.322  14.665  17.783  0.00  0.00     0.127 C 
BRANCH  12  13
ATOM     13  S   UNL d   1     -39.384  14.810  16.975  0.00  0.00    -0.069 SA
BRANCH  13  14
ATOM     14  C   UNL d   1     -38.844  14.459  16.451  0.00  0.00     0.140 A 
ATOM     15  N   UNL d   1     -38.596  13.673  16.336  0.00  0.00    -0.230 NA
ATOM     16  C   UNL d   1     -38.042  13.676  15.725  0.00  0.00     0.107 A 
ATOM     17  C   UNL d   1     -37.940  14.440  15.458  0.00  0.00     0.058 A 
ATOM     18  S   UNL d   1     -38.433  14.932  15.901  0.00  0.00    -0.059 SA
ENDBRANCH  13  14
ENDBRANCH  12  13
ENDBRANCH   3  12
TORSDOF 3
ENDMDL
