MODEL 1
REMARK VINA RESULT:     -10.9      0.000      0.000
REMARK  8 active torsions:
REMARK  status: ('A' for Active; 'I' for Inactive)
REMARK    1  A    between atoms: C_9  and  N_1 
REMARK    2  A    between atoms: C_7  and  C_2 
REMARK    3  A    between atoms: C_6  and  C_4 
REMARK    4  A    between atoms: C_8  and  C_12 
REMARK       I    between atoms: N_25  and  C_8 
REMARK    5  A    between atoms: N_11  and  C_26 
REMARK    6  A    between atoms: C_30  and  N_25 
REMARK    7  A    between atoms: C_26  and  C_27 
REMARK    8  A    between atoms: C_27  and  C_30 
ROOT
ATOM      1  C   UNL d   1      52.510  33.601  53.571  0.00  0.00     0.083 A 
ATOM      2  C   UNL d   1      51.096  34.113  52.892  0.00  0.00     0.058 A 
ATOM      3  C   UNL d   1      51.799  33.466  53.963  0.00  0.00     0.019 A 
ATOM      4  C   UNL d   1      52.521  33.989  52.843  0.00  0.00     0.019 A 
ATOM      5  C   UNL d   1      51.820  34.245  52.503  0.00  0.00     0.006 A 
ATOM      6  C   UNL d   1      51.098  33.720  53.628  0.00  0.00     0.006 A 
ENDROOT
BRANCH   1   7
ATOM      7  N   UNL d   1      53.223  33.346  53.907  0.00  0.00    -0.229 N 
ATOM      8  C   UNL d   1      53.556  32.596  53.839  0.00  0.00     0.090 A 
ATOM      9  C   UNL d   1      54.264  32.590  54.260  0.00  0.00     0.044 A 
ATOM     10  C   UNL d   1      54.363  33.343  54.587  0.00  0.00     0.174 A 
ATOM     11  N   UNL d   1      53.719  33.799  54.364  0.00  0.00    -0.161 NA
BRANCH   8  12
ATOM     12  C   UNL d   1      53.308  31.913  53.448  0.00  0.00     0.047 A 
ATOM     13  S   UNL d   1      52.897  31.622  52.783  0.00  0.00    -0.085 SA
ATOM     14  C   UNL d   1      52.908  30.793  52.815  0.00  0.00     0.035 A 
ATOM     15  C   UNL d   1      53.320  30.577  53.491  0.00  0.00     0.007 A 
ATOM     16  C   UNL d   1      53.566  31.249  53.881  0.00  0.00     0.009 A 
ENDBRANCH   8  12
BRANCH  10  17
ATOM     17  C   UNL d   1      54.999  33.590  55.056  0.00  0.00     0.437 C 
ATOM     18  F   UNL d   1      55.705  34.038  54.830  0.00  0.00    -0.164 F 
ATOM     19  F   UNL d   1      55.138  33.471  55.903  0.00  0.00    -0.164 F 
ATOM     20  F   UNL d   1      55.581  33.816  55.484  0.00  0.00    -0.164 F 
ENDBRANCH  10  17
ENDBRANCH   1   7
BRANCH   2  21
ATOM     21  C   UNL d   1      50.388  34.370  52.552  0.00  0.00     0.279 C 
ATOM     22  O   UNL d   1      50.194  34.139  51.789  0.00  0.00    -0.265 OA
ATOM     23  N   UNL d   1      49.881  34.856  52.984  0.00  0.00    -0.206 NA
BRANCH  23  24
ATOM     24  C   UNL d   1      49.176  35.111  52.645  0.00  0.00     0.104 C 
BRANCH  24  25
ATOM     25  C   UNL d   1      48.610  35.501  53.107  0.00  0.00     0.040 C 
BRANCH  25  26
ATOM     26  C   UNL d   1      48.104  36.050  52.771  0.00  0.00     0.082 C 
BRANCH  26  27
ATOM     27  N   UNL d   1      47.404  36.271  53.152  0.00  0.00    -0.299 N 
ATOM     28  C   UNL d   1      47.406  36.406  53.968  0.00  0.00     0.107 A 
ATOM     29  C   UNL d   1      46.703  36.625  54.337  0.00  0.00     0.142 A 
ATOM     30  O   UNL d   1      46.011  36.707  53.904  0.00  0.00    -0.300 OA
ATOM     31  C   UNL d   1      46.016  36.571  53.092  0.00  0.00     0.142 A 
ATOM     32  C   UNL d   1      46.718  36.350  52.707  0.00  0.00     0.107 A 
ENDBRANCH  26  27
ENDBRANCH  25  26
ENDBRANCH  24  25
ENDBRANCH  23  24
ENDBRANCH   2  21
TORSDOF 8
ENDMDL
MODEL 2
REMARK VINA RESULT:     -10.1      1.656      2.242
REMARK  8 active torsions:
REMARK  status: ('A' for Active; 'I' for Inactive)
REMARK    1  A    between atoms: C_9  and  N_1 
REMARK    2  A    between atoms: C_7  and  C_2 
REMARK    3  A    between atoms: C_6  and  C_4 
REMARK    4  A    between atoms: C_8  and  C_12 
REMARK       I    between atoms: N_25  and  C_8 
REMARK    5  A    between atoms: N_11  and  C_26 
REMARK    6  A    between atoms: C_30  and  N_25 
REMARK    7  A    between atoms: C_26  and  C_27 
REMARK    8  A    between atoms: C_27  and  C_30 
ROOT
ATOM      1  C   UNL d   1      51.972  32.953  53.086  0.00  0.00     0.083 A 
ATOM      2  C   UNL d   1      50.731  33.956  52.667  0.00  0.00     0.058 A 
ATOM      3  C   UNL d   1      52.063  33.468  52.450  0.00  0.00     0.019 A 
ATOM      4  C   UNL d   1      51.267  32.935  53.514  0.00  0.00     0.019 A 
ATOM      5  C   UNL d   1      50.649  33.432  53.309  0.00  0.00     0.006 A 
ATOM      6  C   UNL d   1      51.449  33.965  52.241  0.00  0.00     0.006 A 
ENDROOT
BRANCH   1   7
ATOM      7  N   UNL d   1      52.592  32.447  53.301  0.00  0.00    -0.229 N 
ATOM      8  C   UNL d   1      53.228  32.632  53.790  0.00  0.00     0.090 A 
ATOM      9  C   UNL d   1      53.708  31.965  53.852  0.00  0.00     0.044 A 
ATOM     10  C   UNL d   1      53.360  31.369  53.396  0.00  0.00     0.174 A 
ATOM     11  N   UNL d   1      52.676  31.675  53.063  0.00  0.00    -0.161 NA
BRANCH   8  12
ATOM     12  C   UNL d   1      53.437  33.323  54.190  0.00  0.00     0.047 A 
ATOM     13  S   UNL d   1      53.369  34.154  54.191  0.00  0.00    -0.085 SA
ATOM     14  C   UNL d   1      53.783  34.446  54.849  0.00  0.00     0.035 A 
ATOM     15  C   UNL d   1      54.101  33.802  55.246  0.00  0.00     0.007 A 
ATOM     16  C   UNL d   1      53.896  33.118  54.854  0.00  0.00     0.009 A 
ENDBRANCH   8  12
BRANCH  10  17
ATOM     17  C   UNL d   1      53.652  30.600  53.296  0.00  0.00     0.437 C 
ATOM     18  F   UNL d   1      53.304  29.845  53.540  0.00  0.00    -0.164 F 
ATOM     19  F   UNL d   1      54.386  30.335  52.920  0.00  0.00    -0.164 F 
ATOM     20  F   UNL d   1      53.918  29.898  53.205  0.00  0.00    -0.164 F 
ENDBRANCH  10  17
ENDBRANCH   1   7
BRANCH   2  21
ATOM     21  C   UNL d   1      50.110  34.459  52.456  0.00  0.00     0.279 C 
ATOM     22  O   UNL d   1      49.895  34.535  51.667  0.00  0.00    -0.265 OA
ATOM     23  N   UNL d   1      49.710  34.880  53.042  0.00  0.00    -0.206 NA
BRANCH  23  24
ATOM     24  C   UNL d   1      49.092  35.379  52.831  0.00  0.00     0.104 C 
BRANCH  24  25
ATOM     25  C   UNL d   1      48.546  35.629  53.403  0.00  0.00     0.040 C 
BRANCH  25  26
ATOM     26  C   UNL d   1      48.075  36.286  53.271  0.00  0.00     0.082 C 
BRANCH  26  27
ATOM     27  N   UNL d   1      47.406  36.428  53.737  0.00  0.00    -0.299 N 
ATOM     28  C   UNL d   1      47.491  36.558  54.549  0.00  0.00     0.107 A 
ATOM     29  C   UNL d   1      46.819  36.698  55.003  0.00  0.00     0.142 A 
ATOM     30  O   UNL d   1      46.075  36.709  54.656  0.00  0.00    -0.300 OA
ATOM     31  C   UNL d   1      45.997  36.579  53.847  0.00  0.00     0.142 A 
ATOM     32  C   UNL d   1      46.668  36.436  53.378  0.00  0.00     0.107 A 
ENDBRANCH  26  27
ENDBRANCH  25  26
ENDBRANCH  24  25
ENDBRANCH  23  24
ENDBRANCH   2  21
TORSDOF 8
ENDMDL
