MODEL 1
REMARK VINA RESULT:      29.1      0.000      0.000
REMARK  4 active torsions:
REMARK  status: ('A' for Active; 'I' for Inactive)
REMARK    1  A    between atoms: C_10  and  C_3 
REMARK    2  A    between atoms: C_12  and  C_5 
REMARK    3  A    between atoms: C_15  and  C_12 
REMARK    4  A    between atoms: C_18  and  C_15 
ROOT
ATOM      1  C   UNL d   1      46.059 -17.860  43.735  0.00  0.00     0.152 A 
ATOM      2  N   UNL d   1      46.181 -17.512  42.985  0.00  0.00    -0.258 N 
ATOM      3  C   UNL d   1      46.132 -18.675  43.827  0.00  0.00     0.056 A 
ATOM      4  C   UNL d   1      46.375 -17.984  42.339  0.00  0.00     0.266 A 
ATOM      5  C   UNL d   1      46.450 -18.807  42.427  0.00  0.00     0.057 A 
ATOM      6  N   UNL d   1      45.863 -17.379  44.385  0.00  0.00    -0.227 NA
ATOM      7  C   UNL d   1      46.328 -19.156  43.177  0.00  0.00     0.009 A 
ATOM      8  C   UNL d   1      45.911 -16.212  43.545  0.00  0.00     0.086 A 
ATOM      9  C   UNL d   1      45.786 -16.547  44.300  0.00  0.00     0.099 A 
ATOM     10  O   UNL d   1      46.500 -17.629  41.576  0.00  0.00    -0.267 OA
ATOM     11  C   UNL d   1      46.399 -19.969  43.275  0.00  0.00     0.000 C 
ATOM     12  C   UNL d   1      45.836 -15.388  43.457  0.00  0.00     0.019 A 
ATOM     13  C   UNL d   1      45.594 -16.075  44.936  0.00  0.00     0.021 A 
ATOM     14  C   UNL d   1      45.641 -14.926  44.113  0.00  0.00     0.002 A 
ATOM     15  C   UNL d   1      45.522 -15.265  44.842  0.00  0.00     0.002 A 
ENDROOT
BRANCH   5  16
ATOM     16  C   UNL d   1      46.644 -19.286  41.783  0.00  0.00     0.005 C 
BRANCH  16  17
ATOM     17  C   UNL d   1      46.557 -19.004  41.018  0.00  0.00     0.000 C 
BRANCH  17  18
ATOM     18  C   UNL d   1      46.319 -19.515  40.422  0.00  0.00     0.000 C 
ATOM     19  C   UNL d   1      45.786 -19.248  39.848  0.00  0.00     0.000 C 
ATOM     20  C   UNL d   1      46.609 -20.289  40.394  0.00  0.00     0.000 C 
ENDBRANCH  17  18
ENDBRANCH  16  17
ENDBRANCH   5  16
BRANCH   3  21
ATOM     21  C   UNL d   1      46.011 -19.014  44.566  0.00  0.00     0.125 C 
ATOM     22  N   UNL d   1      46.446 -19.668  44.798  0.00  0.00    -0.146 N 
ENDBRANCH   3  21
TORSDOF 4
ENDMDL
