MODEL 1
REMARK VINA RESULT:      45.0      0.000      0.000
REMARK  7 active torsions:
REMARK  status: ('A' for Active; 'I' for Inactive)
REMARK       I    between atoms: C_2  and  N_1 
REMARK    1  A    between atoms: C_3  and  N_1 
REMARK    2  A    between atoms: C_4  and  C_2 
REMARK    3  A    between atoms: N_9  and  C_3 
REMARK    4  A    between atoms: O_19  and  C_6 
REMARK    5  A    between atoms: C_7  and  C_18 
REMARK    6  A    between atoms: C_18  and  N_9 
REMARK    7  A    between atoms: O_20  and  C_12 
ROOT
ATOM      1  N   UNL d   1     -56.147 -98.762 -44.482  0.00  0.00    -0.179 NA
ATOM      2  C   UNL d   1     -55.436 -99.183 -44.507  0.00  0.00     0.281 C 
ATOM      3  O   UNL d   1     -54.712 -98.786 -44.431  0.00  0.00    -0.265 OA
ENDROOT
BRANCH   2   4
ATOM      4  C   UNL d   1     -55.439-100.003 -44.606  0.00  0.00     0.060 A 
ATOM      5  C   UNL d   1     -55.303-100.503 -43.961  0.00  0.00     0.031 A 
ATOM      6  C   UNL d   1     -55.307-101.323 -44.063  0.00  0.00     0.116 A 
ATOM      7  C   UNL d   1     -55.448-101.641 -44.815  0.00  0.00     0.116 A 
ATOM      8  C   UNL d   1     -55.584-101.140 -45.460  0.00  0.00     0.026 A 
ATOM      9  C   UNL d   1     -55.577-100.320 -45.345  0.00  0.00     0.007 A 
BRANCH   6  10
ATOM     10  O   UNL d   1     -55.171-101.823 -43.418  0.00  0.00    -0.326 OA
ATOM     11  C   UNL d   1     -55.055-101.510 -42.664  0.00  0.00     0.181 C 
ENDBRANCH   6  10
BRANCH   7  12
ATOM     12  O   UNL d   1     -55.451-102.464 -44.914  0.00  0.00    -0.326 OA
ATOM     13  C   UNL d   1     -55.876-102.806 -45.533  0.00  0.00     0.181 C 
ENDBRANCH   7  12
ENDBRANCH   2   4
BRANCH   1  14
ATOM     14  C   UNL d   1     -56.862 -99.162 -44.557  0.00  0.00     0.224 C 
ATOM     15  S   UNL d   1     -57.119 -99.809 -44.099  0.00  0.00    -0.037 SA
BRANCH  14  16
ATOM     16  N   UNL d   1     -57.464 -98.993 -45.109  0.00  0.00    -0.214 NA
BRANCH  16  17
ATOM     17  C   UNL d   1     -58.265 -99.183 -45.022  0.00  0.00     0.126 C 
BRANCH  17  18
ATOM     18  C   UNL d   1     -58.782 -99.063 -45.651  0.00  0.00     0.119 A 
ATOM     19  O   UNL d   1     -58.670 -98.763 -46.409  0.00  0.00    -0.304 OA
ATOM     20  C   UNL d   1     -59.396 -98.775 -46.795  0.00  0.00     0.123 A 
ATOM     21  C   UNL d   1     -59.955 -99.082 -46.275  0.00  0.00     0.029 A 
ATOM     22  C   UNL d   1     -59.579 -99.260 -45.567  0.00  0.00     0.028 A 
ENDBRANCH  17  18
ENDBRANCH  16  17
ENDBRANCH  14  16
ENDBRANCH   1  14
TORSDOF 7
ENDMDL
