MODEL 1
REMARK VINA RESULT:      13.4      0.000      0.000
REMARK  8 active torsions:
REMARK  status: ('A' for Active; 'I' for Inactive)
REMARK    1  A    between atoms: C_4  and  C_1 
REMARK    2  A    between atoms: C_2  and  C_15 
REMARK    3  A    between atoms: C_3  and  C_2 
REMARK    4  A    between atoms: C_16  and  C_4 
REMARK    5  A    between atoms: O_14  and  C_9 
REMARK    6  A    between atoms: S_13  and  C_16 
REMARK    7  A    between atoms: C_15  and  S_13 
REMARK    8  A    between atoms: C_17  and  O_14 
ROOT
ATOM      1  C   UNL d   1      14.627  12.420  -1.420  0.00  0.00     0.040 A 
ATOM      2  C   UNL d   1      14.751  12.726  -2.174  0.00  0.00     0.005 A 
ATOM      3  C   UNL d   1      13.964  11.943  -1.271  0.00  0.00     0.005 A 
ATOM      4  C   UNL d   1      13.556  12.086  -2.633  0.00  0.00     0.100 A 
ATOM      5  C   UNL d   1      14.219  12.563  -2.782  0.00  0.00     0.025 A 
ATOM      6  C   UNL d   1      13.432  11.779  -1.878  0.00  0.00     0.025 A 
ENDROOT
BRANCH   1   7
ATOM      7  C   UNL d   1      15.172  12.593  -0.816  0.00  0.00     0.202 C 
ATOM      8  O   UNL d   1      15.927  12.264  -0.821  0.00  0.00    -0.286 OA
BRANCH   7   9
ATOM      9  C   UNL d   1      14.949  13.110  -0.197  0.00  0.00     0.077 C 
BRANCH   9  10
ATOM     10  S   UNL d   1      15.432  13.776  -0.015  0.00  0.00    -0.082 SA
BRANCH  10  11
ATOM     11  C   UNL d   1      15.127  14.537  -0.090  0.00  0.00     0.042 C 
BRANCH  11  12
ATOM     12  C   UNL d   1      15.459  15.060  -0.632  0.00  0.00     0.077 C 
BRANCH  12  13
ATOM     13  C   UNL d   1      15.177  15.835  -0.688  0.00  0.00     0.211 C 
ATOM     14  O   UNL d   1      14.662  16.037  -1.302  0.00  0.00    -0.644 OA
ATOM     15  O   UNL d   1      15.407  16.401  -0.137  0.00  0.00    -0.644 OA
ENDBRANCH  12  13
ENDBRANCH  11  12
ENDBRANCH  10  11
ENDBRANCH   9  10
ENDBRANCH   7   9
ENDBRANCH   1   7
BRANCH   4  16
ATOM     16  O   UNL d   1      13.007  11.915  -3.253  0.00  0.00    -0.305 OA
BRANCH  16  17
ATOM     17  C   UNL d   1      13.133  12.222  -4.008  0.00  0.00     0.123 C 
ATOM     18  C   UNL d   1      12.851  11.818  -4.669  0.00  0.00     0.029 C 
ENDBRANCH  16  17
ENDBRANCH   4  16
TORSDOF 8
ENDMDL
