MODEL 1
REMARK VINA RESULT:      -6.4      0.000      0.000
REMARK  4 active torsions:
REMARK  status: ('A' for Active; 'I' for Inactive)
REMARK    1  A    between atoms: S_2  and  N_1 
REMARK    2  A    between atoms: C_7  and  S_2 
REMARK    3  A    between atoms: C_10  and  C_3 
REMARK    4  A    between atoms: C_14  and  C_10 
ROOT
ATOM      1  N   UNL d   1     -48.575  12.953  23.002  0.00  0.00    -0.214 N 
ATOM      2  C   UNL d   1     -49.179  13.526  23.006  0.00  0.00     0.157 A 
ATOM      3  N   UNL d   1     -49.879  13.139  23.219  0.00  0.00    -0.226 NA
ATOM      4  C   UNL d   1     -48.908  12.226  23.212  0.00  0.00     0.094 A 
ATOM      5  C   UNL d   1     -49.714  12.333  23.348  0.00  0.00     0.100 A 
ATOM      6  C   UNL d   1     -48.573  11.471  23.297  0.00  0.00     0.020 A 
ATOM      7  C   UNL d   1     -50.198  11.691  23.570  0.00  0.00     0.021 A 
ATOM      8  C   UNL d   1     -49.051  10.825  23.520  0.00  0.00     0.002 A 
ATOM      9  C   UNL d   1     -49.861  10.955  23.652  0.00  0.00     0.002 A 
ENDROOT
BRANCH   1  10
ATOM     10  S   UNL d   1     -47.786  13.110  22.817  0.00  0.00     0.272 S 
ATOM     11  O   UNL d   1     -47.958  12.920  22.030  0.00  0.00    -0.200 OA
ATOM     12  O   UNL d   1     -47.619  13.298  23.600  0.00  0.00    -0.200 OA
BRANCH  10  13
ATOM     13  C   UNL d   1     -47.002  13.264  22.620  0.00  0.00     0.104 A 
ATOM     14  C   UNL d   1     -46.545  13.724  23.131  0.00  0.00     0.013 A 
ATOM     15  C   UNL d   1     -45.757  13.881  22.937  0.00  0.00     0.007 A 
ATOM     16  C   UNL d   1     -45.451  13.579  22.250  0.00  0.00     0.035 A 
ATOM     17  C   UNL d   1     -45.899  13.124  21.745  0.00  0.00     0.007 A 
ATOM     18 BR   UNL d   1     -44.645  13.738  22.050  0.00  0.00    -0.049 Br
ATOM     19  C   UNL d   1     -46.681  12.969  21.937  0.00  0.00     0.013 A 
ENDBRANCH  10  13
ENDBRANCH   1  10
BRANCH   2  20
ATOM     20  C   UNL d   1     -49.088  14.344  22.825  0.00  0.00     0.038 C 
BRANCH  20  21
ATOM     21  C   UNL d   1     -49.721  14.866  22.917  0.00  0.00     0.003 A 
ATOM     22  C   UNL d   1     -49.781  15.333  23.605  0.00  0.00     0.000 A 
ATOM     23  C   UNL d   1     -50.409  15.852  23.698  0.00  0.00     0.000 A 
ATOM     24  C   UNL d   1     -50.987  15.918  23.116  0.00  0.00     0.000 A 
ATOM     25  C   UNL d   1     -50.928  15.453  22.432  0.00  0.00     0.000 A 
ATOM     26  C   UNL d   1     -50.299  14.930  22.334  0.00  0.00     0.000 A 
ENDBRANCH  20  21
ENDBRANCH   2  20
TORSDOF 4
ENDMDL
MODEL 2
REMARK VINA RESULT:      -5.9      1.839      3.222
REMARK  4 active torsions:
REMARK  status: ('A' for Active; 'I' for Inactive)
REMARK    1  A    between atoms: S_2  and  N_1 
REMARK    2  A    between atoms: C_7  and  S_2 
REMARK    3  A    between atoms: C_10  and  C_3 
REMARK    4  A    between atoms: C_14  and  C_10 
ROOT
ATOM      1  N   UNL d   1     -46.963  13.047  22.790  0.00  0.00    -0.214 N 
ATOM      2  C   UNL d   1     -47.775  12.865  22.766  0.00  0.00     0.157 A 
ATOM      3  N   UNL d   1     -48.181  13.577  22.652  0.00  0.00    -0.226 NA
ATOM      4  C   UNL d   1     -46.880  13.864  22.690  0.00  0.00     0.094 A 
ATOM      5  C   UNL d   1     -47.628  14.199  22.605  0.00  0.00     0.100 A 
ATOM      6  C   UNL d   1     -46.207  14.350  22.667  0.00  0.00     0.020 A 
ATOM      7  C   UNL d   1     -47.718  15.021  22.495  0.00  0.00     0.021 A 
ATOM      8  C   UNL d   1     -46.290  15.173  22.557  0.00  0.00     0.002 A 
ATOM      9  C   UNL d   1     -47.053  15.489  22.473  0.00  0.00     0.002 A 
ENDROOT
BRANCH   1  10
ATOM     10  S   UNL d   1     -46.364  12.490  22.895  0.00  0.00     0.272 S 
ATOM     11  O   UNL d   1     -46.347  12.695  23.697  0.00  0.00    -0.200 OA
ATOM     12  O   UNL d   1     -46.383  12.290  22.097  0.00  0.00    -0.200 OA
BRANCH  10  13
ATOM     13  C   UNL d   1     -45.765  11.937  23.012  0.00  0.00     0.104 A 
ATOM     14  C   UNL d   1     -45.884  11.331  23.561  0.00  0.00     0.013 A 
ATOM     15  C   UNL d   1     -45.285  10.775  23.681  0.00  0.00     0.007 A 
ATOM     16  C   UNL d   1     -44.596  10.835  23.259  0.00  0.00     0.035 A 
ATOM     17  C   UNL d   1     -44.477  11.432  22.717  0.00  0.00     0.007 A 
ATOM     18 BR   UNL d   1     -43.983  10.266  23.381  0.00  0.00    -0.049 Br
ATOM     19  C   UNL d   1     -45.071  11.985  22.597  0.00  0.00     0.013 A 
ENDBRANCH  10  13
ENDBRANCH   1  10
BRANCH   2  20
ATOM     20  C   UNL d   1     -48.113  12.097  22.845  0.00  0.00     0.038 C 
BRANCH  20  21
ATOM     21  C   UNL d   1     -48.931  12.004  22.901  0.00  0.00     0.003 A 
ATOM     22  C   UNL d   1     -49.405  12.042  22.215  0.00  0.00     0.000 A 
ATOM     23  C   UNL d   1     -50.218  11.950  22.270  0.00  0.00     0.000 A 
ATOM     24  C   UNL d   1     -50.576  11.819  23.000  0.00  0.00     0.000 A 
ATOM     25  C   UNL d   1     -50.105  11.781  23.681  0.00  0.00     0.000 A 
ATOM     26  C   UNL d   1     -49.289  11.873  23.632  0.00  0.00     0.000 A 
ENDBRANCH  20  21
ENDBRANCH   2  20
TORSDOF 4
ENDMDL
MODEL 3
REMARK VINA RESULT:      -5.4      8.364     10.218
REMARK  4 active torsions:
REMARK  status: ('A' for Active; 'I' for Inactive)
REMARK    1  A    between atoms: S_2  and  N_1 
REMARK    2  A    between atoms: C_7  and  S_2 
REMARK    3  A    between atoms: C_10  and  C_3 
REMARK    4  A    between atoms: C_14  and  C_10 
ROOT
ATOM      1  N   UNL d   1     -39.710  14.648  19.980  0.00  0.00    -0.214 N 
ATOM      2  C   UNL d   1     -39.405  14.445  20.727  0.00  0.00     0.157 A 
ATOM      3  N   UNL d   1     -39.916  14.767  21.294  0.00  0.00    -0.226 NA
ATOM      4  C   UNL d   1     -40.400  15.089  20.094  0.00  0.00     0.094 A 
ATOM      5  C   UNL d   1     -40.534  15.167  20.904  0.00  0.00     0.100 A 
ATOM      6  C   UNL d   1     -40.929  15.434  19.555  0.00  0.00     0.020 A 
ATOM      7  C   UNL d   1     -41.196  15.588  21.189  0.00  0.00     0.021 A 
ATOM      8  C   UNL d   1     -41.593  15.856  19.833  0.00  0.00     0.002 A 
ATOM      9  C   UNL d   1     -41.709  15.922  20.653  0.00  0.00     0.002 A 
ENDROOT
BRANCH   1  10
ATOM     10  S   UNL d   1     -39.364  14.434  19.262  0.00  0.00     0.272 S 
ATOM     11  O   UNL d   1     -38.855  15.082  19.342  0.00  0.00    -0.200 OA
ATOM     12  O   UNL d   1     -39.872  13.791  19.187  0.00  0.00    -0.200 OA
BRANCH  10  13
ATOM     13  C   UNL d   1     -39.011  14.230  18.547  0.00  0.00     0.104 A 
ATOM     14  C   UNL d   1     -39.120  13.466  18.252  0.00  0.00     0.013 A 
ATOM     15  C   UNL d   1     -38.767  13.258  17.535  0.00  0.00     0.007 A 
ATOM     16  C   UNL d   1     -38.322  13.806  17.137  0.00  0.00     0.035 A 
ATOM     17  C   UNL d   1     -38.214  14.560  17.426  0.00  0.00     0.007 A 
ATOM     18 BR   UNL d   1     -37.961  13.594  16.403  0.00  0.00    -0.049 Br
ATOM     19  C   UNL d   1     -38.564  14.767  18.138  0.00  0.00     0.013 A 
ENDBRANCH  10  13
ENDBRANCH   1  10
BRANCH   2  20
ATOM     20  C   UNL d   1     -38.707  13.996  20.873  0.00  0.00     0.038 C 
BRANCH  20  21
ATOM     21  C   UNL d   1     -38.453  13.856  21.646  0.00  0.00     0.003 A 
ATOM     22  C   UNL d   1     -38.442  13.079  21.948  0.00  0.00     0.000 A 
ATOM     23  C   UNL d   1     -38.189  12.940  22.716  0.00  0.00     0.000 A 
ATOM     24  C   UNL d   1     -37.945  13.562  23.196  0.00  0.00     0.000 A 
ATOM     25  C   UNL d   1     -37.957  14.334  22.896  0.00  0.00     0.000 A 
ATOM     26  C   UNL d   1     -38.209  14.480  22.125  0.00  0.00     0.000 A 
ENDBRANCH  20  21
ENDBRANCH   2  20
TORSDOF 4
ENDMDL
MODEL 4
REMARK VINA RESULT:      -5.3      9.134     10.711
REMARK  4 active torsions:
REMARK  status: ('A' for Active; 'I' for Inactive)
REMARK    1  A    between atoms: S_2  and  N_1 
REMARK    2  A    between atoms: C_7  and  S_2 
REMARK    3  A    between atoms: C_10  and  C_3 
REMARK    4  A    between atoms: C_14  and  C_10 
ROOT
ATOM      1  N   UNL d   1     -39.977  14.768  18.185  0.00  0.00    -0.214 N 
ATOM      2  C   UNL d   1     -39.493  14.302  17.693  0.00  0.00     0.157 A 
ATOM      3  N   UNL d   1     -39.783  14.380  16.922  0.00  0.00    -0.226 NA
ATOM      4  C   UNL d   1     -40.554  15.126  17.714  0.00  0.00     0.094 A 
ATOM      5  C   UNL d   1     -40.441  14.891  16.932  0.00  0.00     0.100 A 
ATOM      6  C   UNL d   1     -41.177  15.642  17.902  0.00  0.00     0.020 A 
ATOM      7  C   UNL d   1     -40.945  15.166  16.326  0.00  0.00     0.021 A 
ATOM      8  C   UNL d   1     -41.684  15.921  17.302  0.00  0.00     0.002 A 
ATOM      9  C   UNL d   1     -41.552  15.672  16.520  0.00  0.00     0.002 A 
ENDROOT
BRANCH   1  10
ATOM     10  S   UNL d   1     -39.876  14.844  19.001  0.00  0.00     0.272 S 
ATOM     11  O   UNL d   1     -39.449  15.539  18.859  0.00  0.00    -0.200 OA
ATOM     12  O   UNL d   1     -40.301  14.153  19.137  0.00  0.00    -0.200 OA
BRANCH  10  13
ATOM     13  C   UNL d   1     -39.769  14.930  19.812  0.00  0.00     0.104 A 
ATOM     14  C   UNL d   1     -39.303  15.553  20.089  0.00  0.00     0.013 A 
ATOM     15  C   UNL d   1     -39.194  15.642  20.903  0.00  0.00     0.007 A 
ATOM     16  C   UNL d   1     -39.545  15.118  21.411  0.00  0.00     0.035 A 
ATOM     17  C   UNL d   1     -40.005  14.503  21.140  0.00  0.00     0.007 A 
ATOM     18 BR   UNL d   1     -39.434  15.208  22.244  0.00  0.00    -0.049 Br
ATOM     19  C   UNL d   1     -40.114  14.413  20.332  0.00  0.00     0.013 A 
ENDBRANCH  10  13
ENDBRANCH   1  10
BRANCH   2  20
ATOM     20  C   UNL d   1     -38.834  13.839  17.941  0.00  0.00     0.038 C 
BRANCH  20  21
ATOM     21  C   UNL d   1     -38.538  13.240  17.457  0.00  0.00     0.003 A 
ATOM     22  C   UNL d   1     -38.234  13.423  16.702  0.00  0.00     0.000 A 
ATOM     23  C   UNL d   1     -37.940  12.828  16.221  0.00  0.00     0.000 A 
ATOM     24  C   UNL d   1     -37.940  12.045  16.474  0.00  0.00     0.000 A 
ATOM     25  C   UNL d   1     -38.242  11.863  17.224  0.00  0.00     0.000 A 
ATOM     26  C   UNL d   1     -38.539  12.456  17.712  0.00  0.00     0.000 A 
ENDBRANCH  20  21
ENDBRANCH   2  20
TORSDOF 4
ENDMDL
MODEL 5
REMARK VINA RESULT:      -4.0      1.261      3.011
REMARK  4 active torsions:
REMARK  status: ('A' for Active; 'I' for Inactive)
REMARK    1  A    between atoms: S_2  and  N_1 
REMARK    2  A    between atoms: C_7  and  S_2 
REMARK    3  A    between atoms: C_10  and  C_3 
REMARK    4  A    between atoms: C_14  and  C_10 
ROOT
ATOM      1  N   UNL d   1     -47.503  13.609  22.568  0.00  0.00    -0.214 N 
ATOM      2  C   UNL d   1     -48.221  13.197  22.662  0.00  0.00     0.157 A 
ATOM      3  N   UNL d   1     -48.827  13.761  22.663  0.00  0.00    -0.226 NA
ATOM      4  C   UNL d   1     -47.675  14.415  22.512  0.00  0.00     0.094 A 
ATOM      5  C   UNL d   1     -48.491  14.518  22.570  0.00  0.00     0.100 A 
ATOM      6  C   UNL d   1     -47.183  15.078  22.415  0.00  0.00     0.020 A 
ATOM      7  C   UNL d   1     -48.829  15.279  22.531  0.00  0.00     0.021 A 
ATOM      8  C   UNL d   1     -47.515  15.842  22.375  0.00  0.00     0.002 A 
ATOM      9  C   UNL d   1     -48.340  15.922  22.436  0.00  0.00     0.002 A 
ENDROOT
BRANCH   1  10
ATOM     10  S   UNL d   1     -46.761  13.250  22.539  0.00  0.00     0.272 S 
ATOM     11  O   UNL d   1     -46.713  13.337  23.361  0.00  0.00    -0.200 OA
ATOM     12  O   UNL d   1     -46.812  13.165  21.723  0.00  0.00    -0.200 OA
BRANCH  10  13
ATOM     13  C   UNL d   1     -46.019  12.893  22.523  0.00  0.00     0.104 A 
ATOM     14  C   UNL d   1     -45.510  13.060  21.894  0.00  0.00     0.013 A 
ATOM     15  C   UNL d   1     -44.765  12.703  21.874  0.00  0.00     0.007 A 
ATOM     16  C   UNL d   1     -44.550  12.199  22.471  0.00  0.00     0.035 A 
ATOM     17  C   UNL d   1     -45.051  12.032  23.091  0.00  0.00     0.007 A 
ATOM     18 BR   UNL d   1     -43.788  11.833  22.452  0.00  0.00    -0.049 Br
ATOM     19  C   UNL d   1     -45.791  12.386  23.112  0.00  0.00     0.013 A 
ENDBRANCH  10  13
ENDBRANCH   1  10
BRANCH   2  20
ATOM     20  C   UNL d   1     -48.307  12.362  22.742  0.00  0.00     0.038 C 
BRANCH  20  21
ATOM     21  C   UNL d   1     -49.053  12.027  22.854  0.00  0.00     0.003 A 
ATOM     22  C   UNL d   1     -49.590  11.981  22.218  0.00  0.00     0.000 A 
ATOM     23  C   UNL d   1     -50.331  11.648  22.329  0.00  0.00     0.000 A 
ATOM     24  C   UNL d   1     -50.554  11.357  23.066  0.00  0.00     0.000 A 
ATOM     25  C   UNL d   1     -50.020  11.403  23.698  0.00  0.00     0.000 A 
ATOM     26  C   UNL d   1     -49.274  11.736  23.592  0.00  0.00     0.000 A 
ENDBRANCH  20  21
ENDBRANCH   2  20
TORSDOF 4
ENDMDL
MODEL 6
REMARK VINA RESULT:      -3.7      6.919      9.689
REMARK  4 active torsions:
REMARK  status: ('A' for Active; 'I' for Inactive)
REMARK    1  A    between atoms: S_2  and  N_1 
REMARK    2  A    between atoms: C_7  and  S_2 
REMARK    3  A    between atoms: C_10  and  C_3 
REMARK    4  A    between atoms: C_14  and  C_10 
ROOT
ATOM      1  N   UNL d   1     -39.984  14.921  20.291  0.00  0.00    -0.214 N 
ATOM      2  C   UNL d   1     -39.788  15.060  19.494  0.00  0.00     0.157 A 
ATOM      3  N   UNL d   1     -39.058  15.450  19.487  0.00  0.00    -0.226 NA
ATOM      4  C   UNL d   1     -39.377  15.226  20.762  0.00  0.00     0.094 A 
ATOM      5  C   UNL d   1     -38.800  15.554  20.272  0.00  0.00     0.100 A 
ATOM      6  C   UNL d   1     -39.275  15.245  21.586  0.00  0.00     0.020 A 
ATOM      7  C   UNL d   1     -38.116  15.906  20.594  0.00  0.00     0.021 A 
ATOM      8  C   UNL d   1     -38.594  15.595  21.915  0.00  0.00     0.002 A 
ATOM      9  C   UNL d   1     -38.026  15.921  21.403  0.00  0.00     0.002 A 
ENDROOT
BRANCH   1  10
ATOM     10  S   UNL d   1     -40.673  14.542  20.542  0.00  0.00     0.272 S 
ATOM     11  O   UNL d   1     -40.258  13.826  20.520  0.00  0.00    -0.200 OA
ATOM     12  O   UNL d   1     -41.081  15.256  20.562  0.00  0.00    -0.200 OA
BRANCH  10  13
ATOM     13  C   UNL d   1     -41.353  14.153  20.792  0.00  0.00     0.104 A 
ATOM     14  C   UNL d   1     -41.323  13.338  20.919  0.00  0.00     0.013 A 
ATOM     15  C   UNL d   1     -42.005  12.944  21.170  0.00  0.00     0.007 A 
ATOM     16  C   UNL d   1     -42.687  13.366  21.286  0.00  0.00     0.035 A 
ATOM     17  C   UNL d   1     -42.719  14.170  21.161  0.00  0.00     0.007 A 
ATOM     18 BR   UNL d   1     -43.385  12.964  21.543  0.00  0.00    -0.049 Br
ATOM     19  C   UNL d   1     -42.043  14.562  20.912  0.00  0.00     0.013 A 
ENDBRANCH  10  13
ENDBRANCH   1  10
BRANCH   2  20
ATOM     20  C   UNL d   1     -40.250  14.841  18.824  0.00  0.00     0.038 C 
BRANCH  20  21
ATOM     21  C   UNL d   1     -39.983  15.002  18.060  0.00  0.00     0.003 A 
ATOM     22  C   UNL d   1     -39.545  14.430  17.640  0.00  0.00     0.000 A 
ATOM     23  C   UNL d   1     -39.280  14.590  16.881  0.00  0.00     0.000 A 
ATOM     24  C   UNL d   1     -39.441  15.314  16.525  0.00  0.00     0.000 A 
ATOM     25  C   UNL d   1     -39.876  15.883  16.942  0.00  0.00     0.000 A 
ATOM     26  C   UNL d   1     -40.145  15.728  17.705  0.00  0.00     0.000 A 
ENDBRANCH  20  21
ENDBRANCH   2  20
TORSDOF 4
ENDMDL
