MODEL 1
REMARK VINA RESULT:      -8.3      0.000      0.000
REMARK  8 active torsions:
REMARK  status: ('A' for Active; 'I' for Inactive)
REMARK    1  A    between atoms: C_2  and  C_8 
REMARK    2  A    between atoms: O_17  and  C_2 
REMARK    3  A    between atoms: C_15  and  C_3 
REMARK    4  A    between atoms: C_20  and  C_4 
REMARK    5  A    between atoms: C_5  and  C_16 
REMARK       I    between atoms: N_9  and  C_5 
REMARK    6  A    between atoms: C_14  and  N_9 
REMARK    7  A    between atoms: C_16  and  C_15 
REMARK    8  A    between atoms: C_21  and  O_17 
ROOT
ATOM      1  C   UNL d   1      53.821  34.308  54.335  0.00  0.00     0.279 C 
ATOM      2  N   UNL d   1      54.289  33.690  54.590  0.00  0.00    -0.208 NA
ATOM      3  O   UNL d   1      54.007  35.089  54.548  0.00  0.00    -0.265 OA
ENDROOT
BRANCH   2   4
ATOM      4  C   UNL d   1      54.103  32.913  54.377  0.00  0.00     0.085 A 
ATOM      5  C   UNL d   1      54.418  32.592  53.688  0.00  0.00     0.019 A 
ATOM      6  C   UNL d   1      54.232  31.820  53.477  0.00  0.00     0.007 A 
ATOM      7  C   UNL d   1      53.731  31.371  53.956  0.00  0.00     0.064 A 
ATOM      8  C   UNL d   1      53.416  31.691  54.645  0.00  0.00     0.007 A 
ATOM      9  C   UNL d   1      53.607  32.475  54.854  0.00  0.00     0.019 A 
BRANCH   7  10
ATOM     10  C   UNL d   1      53.545  30.591  53.741  0.00  0.00     0.300 C 
ATOM     11  O   UNL d   1      53.271  30.430  52.982  0.00  0.00    -0.259 OA
BRANCH  10  12
ATOM     12  O   UNL d   1      53.633  29.985  54.284  0.00  0.00    -0.271 OA
BRANCH  12  13
ATOM     13  C   UNL d   1      53.340  29.232  54.115  0.00  0.00     0.126 C 
ATOM     14  C   UNL d   1      53.416  28.625  54.672  0.00  0.00     0.029 C 
ENDBRANCH  12  13
ENDBRANCH  10  12
ENDBRANCH   7  10
ENDBRANCH   2   4
BRANCH   1  15
ATOM     15  C   UNL d   1      53.160  34.159  53.862  0.00  0.00     0.065 C 
BRANCH  15  16
ATOM     16  C   UNL d   1      52.722  34.785  53.550  0.00  0.00     0.030 C 
BRANCH  16  17
ATOM     17  C   UNL d   1      52.049  34.636  53.103  0.00  0.00     0.100 A 
ATOM     18  O   UNL d   1      51.264  34.619  53.380  0.00  0.00    -0.307 OA
ATOM     19  C   UNL d   1      50.773  34.450  52.750  0.00  0.00     0.100 A 
ATOM     20  C   UNL d   1      51.240  34.359  52.075  0.00  0.00     0.027 A 
ATOM     21  C   UNL d   1      52.026  34.475  52.298  0.00  0.00     0.027 A 
BRANCH  19  22
ATOM     22  C   UNL d   1      49.954  34.383  52.787  0.00  0.00     0.025 C 
ATOM     23  C   UNL d   1      49.500  34.499  52.104  0.00  0.00     0.002 C 
ENDBRANCH  19  22
ENDBRANCH  16  17
ENDBRANCH  15  16
ENDBRANCH   1  15
TORSDOF 8
ENDMDL
MODEL 2
REMARK VINA RESULT:      -7.9      0.920      4.453
REMARK  8 active torsions:
REMARK  status: ('A' for Active; 'I' for Inactive)
REMARK    1  A    between atoms: C_2  and  C_8 
REMARK    2  A    between atoms: O_17  and  C_2 
REMARK    3  A    between atoms: C_15  and  C_3 
REMARK    4  A    between atoms: C_20  and  C_4 
REMARK    5  A    between atoms: C_5  and  C_16 
REMARK       I    between atoms: N_9  and  C_5 
REMARK    6  A    between atoms: C_14  and  N_9 
REMARK    7  A    between atoms: C_16  and  C_15 
REMARK    8  A    between atoms: C_21  and  O_17 
ROOT
ATOM      1  C   UNL d   1      53.978  33.252  54.218  0.00  0.00     0.279 C 
ATOM      2  N   UNL d   1      53.598  33.975  54.219  0.00  0.00    -0.208 NA
ATOM      3  O   UNL d   1      54.697  33.157  54.622  0.00  0.00    -0.265 OA
ENDROOT
BRANCH   2   4
ATOM      4  C   UNL d   1      52.882  34.068  53.817  0.00  0.00     0.085 A 
ATOM      5  C   UNL d   1      52.877  34.406  53.067  0.00  0.00     0.019 A 
ATOM      6  C   UNL d   1      52.164  34.498  52.667  0.00  0.00     0.007 A 
ATOM      7  C   UNL d   1      51.460  34.252  53.020  0.00  0.00     0.064 A 
ATOM      8  C   UNL d   1      51.464  33.914  53.770  0.00  0.00     0.007 A 
ATOM      9  C   UNL d   1      52.189  33.823  54.170  0.00  0.00     0.019 A 
BRANCH   7  10
ATOM     10  C   UNL d   1      50.741  34.346  52.615  0.00  0.00     0.300 C 
ATOM     11  O   UNL d   1      50.666  34.069  51.844  0.00  0.00    -0.259 OA
BRANCH  10  12
ATOM     12  O   UNL d   1      50.109  34.713  52.984  0.00  0.00    -0.271 OA
BRANCH  12  13
ATOM     13  C   UNL d   1      49.422  34.880  52.558  0.00  0.00     0.126 C 
ATOM     14  C   UNL d   1      48.822  35.333  52.902  0.00  0.00     0.029 C 
ENDBRANCH  12  13
ENDBRANCH  10  12
ENDBRANCH   7  10
ENDBRANCH   2   4
BRANCH   1  15
ATOM     15  C   UNL d   1      53.647  32.612  53.814  0.00  0.00     0.065 C 
BRANCH  15  16
ATOM     16  C   UNL d   1      54.086  31.923  53.696  0.00  0.00     0.030 C 
BRANCH  16  17
ATOM     17  C   UNL d   1      53.705  31.210  53.551  0.00  0.00     0.100 A 
ATOM     18  O   UNL d   1      53.587  30.592  54.096  0.00  0.00    -0.307 OA
ATOM     19  C   UNL d   1      53.184  29.990  53.719  0.00  0.00     0.100 A 
ATOM     20  C   UNL d   1      53.044  30.221  52.938  0.00  0.00     0.027 A 
ATOM     21  C   UNL d   1      53.367  30.974  52.840  0.00  0.00     0.027 A 
BRANCH  19  22
ATOM     22  C   UNL d   1      52.958  29.278  54.062  0.00  0.00     0.025 C 
ATOM     23  C   UNL d   1      53.383  28.976  54.705  0.00  0.00     0.002 C 
ENDBRANCH  19  22
ENDBRANCH  16  17
ENDBRANCH  15  16
ENDBRANCH   1  15
TORSDOF 8
ENDMDL
MODEL 3
REMARK VINA RESULT:      -6.8      1.619      4.748
REMARK  8 active torsions:
REMARK  status: ('A' for Active; 'I' for Inactive)
REMARK    1  A    between atoms: C_2  and  C_8 
REMARK    2  A    between atoms: O_17  and  C_2 
REMARK    3  A    between atoms: C_15  and  C_3 
REMARK    4  A    between atoms: C_20  and  C_4 
REMARK    5  A    between atoms: C_5  and  C_16 
REMARK       I    between atoms: N_9  and  C_5 
REMARK    6  A    between atoms: C_14  and  N_9 
REMARK    7  A    between atoms: C_16  and  C_15 
REMARK    8  A    between atoms: C_21  and  O_17 
ROOT
ATOM      1  C   UNL d   1      52.828  31.687  52.814  0.00  0.00     0.279 C 
ATOM      2  N   UNL d   1      52.163  31.910  52.395  0.00  0.00    -0.208 NA
ATOM      3  O   UNL d   1      53.238  30.995  52.607  0.00  0.00    -0.265 OA
ENDROOT
BRANCH   2   4
ATOM      4  C   UNL d   1      51.755  32.599  52.601  0.00  0.00     0.085 A 
ATOM      5  C   UNL d   1      51.139  32.561  53.145  0.00  0.00     0.019 A 
ATOM      6  C   UNL d   1      50.735  33.247  53.350  0.00  0.00     0.007 A 
ATOM      7  C   UNL d   1      50.948  33.968  53.009  0.00  0.00     0.064 A 
ATOM      8  C   UNL d   1      51.563  34.007  52.465  0.00  0.00     0.007 A 
ATOM      9  C   UNL d   1      51.970  33.309  52.261  0.00  0.00     0.019 A 
BRANCH   7  10
ATOM     10  C   UNL d   1      50.537  34.660  53.216  0.00  0.00     0.300 C 
ATOM     11  O   UNL d   1      50.902  35.224  53.692  0.00  0.00    -0.259 OA
BRANCH  10  12
ATOM     12  O   UNL d   1      49.773  34.778  52.948  0.00  0.00    -0.271 OA
BRANCH  12  13
ATOM     13  C   UNL d   1      49.312  35.382  53.269  0.00  0.00     0.126 C 
ATOM     14  C   UNL d   1      48.565  35.543  52.952  0.00  0.00     0.029 C 
ENDBRANCH  12  13
ENDBRANCH  10  12
ENDBRANCH   7  10
ENDBRANCH   2   4
BRANCH   1  15
ATOM     15  C   UNL d   1      53.094  32.148  53.444  0.00  0.00     0.065 C 
BRANCH  15  16
ATOM     16  C   UNL d   1      53.739  31.902  53.897  0.00  0.00     0.030 C 
BRANCH  16  17
ATOM     17  C   UNL d   1      54.080  32.414  54.442  0.00  0.00     0.100 A 
ATOM     18  O   UNL d   1      54.654  32.995  54.283  0.00  0.00    -0.307 OA
ATOM     19  C   UNL d   1      54.836  33.374  54.983  0.00  0.00     0.100 A 
ATOM     20  C   UNL d   1      54.382  33.037  55.586  0.00  0.00     0.027 A 
ATOM     21  C   UNL d   1      53.918  32.446  55.247  0.00  0.00     0.027 A 
BRANCH  19  22
ATOM     22  C   UNL d   1      55.379  33.986  55.068  0.00  0.00     0.025 C 
ATOM     23  C   UNL d   1      55.118  34.772  55.072  0.00  0.00     0.002 C 
ENDBRANCH  19  22
ENDBRANCH  16  17
ENDBRANCH  15  16
ENDBRANCH   1  15
TORSDOF 8
ENDMDL
MODEL 4
REMARK VINA RESULT:      -6.0      1.568      2.907
REMARK  8 active torsions:
REMARK  status: ('A' for Active; 'I' for Inactive)
REMARK    1  A    between atoms: C_2  and  C_8 
REMARK    2  A    between atoms: O_17  and  C_2 
REMARK    3  A    between atoms: C_15  and  C_3 
REMARK    4  A    between atoms: C_20  and  C_4 
REMARK    5  A    between atoms: C_5  and  C_16 
REMARK       I    between atoms: N_9  and  C_5 
REMARK    6  A    between atoms: C_14  and  N_9 
REMARK    7  A    between atoms: C_16  and  C_15 
REMARK    8  A    between atoms: C_21  and  O_17 
ROOT
ATOM      1  C   UNL d   1      51.915  33.216  52.713  0.00  0.00     0.279 C 
ATOM      2  N   UNL d   1      51.788  32.471  52.402  0.00  0.00    -0.208 NA
ATOM      3  O   UNL d   1      51.522  33.874  52.393  0.00  0.00    -0.265 OA
ENDROOT
BRANCH   2   4
ATOM      4  C   UNL d   1      52.180  31.817  52.721  0.00  0.00     0.085 A 
ATOM      5  C   UNL d   1      52.938  31.630  52.463  0.00  0.00     0.019 A 
ATOM      6  C   UNL d   1      53.327  30.979  52.780  0.00  0.00     0.007 A 
ATOM      7  C   UNL d   1      52.955  30.517  53.356  0.00  0.00     0.064 A 
ATOM      8  C   UNL d   1      52.197  30.704  53.614  0.00  0.00     0.007 A 
ATOM      9  C   UNL d   1      51.808  31.365  53.289  0.00  0.00     0.019 A 
BRANCH   7  10
ATOM     10  C   UNL d   1      53.350  29.860  53.676  0.00  0.00     0.300 C 
ATOM     11  O   UNL d   1      54.068  29.619  53.356  0.00  0.00    -0.259 OA
BRANCH  10  12
ATOM     12  O   UNL d   1      53.023  29.455  54.307  0.00  0.00    -0.271 OA
BRANCH  12  13
ATOM     13  C   UNL d   1      53.420  28.810  54.635  0.00  0.00     0.126 C 
ATOM     14  C   UNL d   1      53.278  28.593  55.420  0.00  0.00     0.029 C 
ENDBRANCH  12  13
ENDBRANCH  10  12
ENDBRANCH   7  10
ENDBRANCH   2   4
BRANCH   1  15
ATOM     15  C   UNL d   1      52.435  33.317  53.346  0.00  0.00     0.065 C 
BRANCH  15  16
ATOM     16  C   UNL d   1      52.571  34.070  53.656  0.00  0.00     0.030 C 
BRANCH  16  17
ATOM     17  C   UNL d   1      53.107  34.172  54.272  0.00  0.00     0.100 A 
ATOM     18  O   UNL d   1      53.801  33.733  54.401  0.00  0.00    -0.307 OA
ATOM     19  C   UNL d   1      54.165  34.020  55.074  0.00  0.00     0.100 A 
ATOM     20  C   UNL d   1      53.706  34.639  55.372  0.00  0.00     0.027 A 
ATOM     21  C   UNL d   1      53.055  34.729  54.874  0.00  0.00     0.027 A 
BRANCH  19  22
ATOM     22  C   UNL d   1      54.867  33.738  55.395  0.00  0.00     0.025 C 
ATOM     23  C   UNL d   1      55.580  33.849  54.989  0.00  0.00     0.002 C 
ENDBRANCH  19  22
ENDBRANCH  16  17
ENDBRANCH  15  16
ENDBRANCH   1  15
TORSDOF 8
ENDMDL
