MODEL 1
REMARK VINA RESULT:      -4.1      0.000      0.000
REMARK  6 active torsions:
REMARK  status: ('A' for Active; 'I' for Inactive)
REMARK    1  A    between atoms: N_2  and  C_1 
REMARK    2  A    between atoms: N_3  and  C_1 
REMARK    3  A    between atoms: C_8  and  N_3 
REMARK    4  A    between atoms: C_5  and  O_7 
REMARK    5  A    between atoms: C_17  and  C_6 
REMARK    6  A    between atoms: O_7  and  C_9 
ROOT
ATOM      1  N   UNL d   1     -41.280-122.744 -50.836  0.00  0.00    -0.219 NA
ENDROOT
BRANCH   1   2
ATOM      2  C   UNL d   1     -41.748-123.313 -50.453  0.00  0.00     0.206 C 
ATOM      3  S   UNL d   1     -42.220-123.817 -50.901  0.00  0.00    -0.038 SA
BRANCH   2   4
ATOM      4  N   UNL d   1     -41.736-123.369 -49.623  0.00  0.00    -0.282 N 
ATOM      5  C   UNL d   1     -42.343-123.038 -49.183  0.00  0.00     0.066 A 
ATOM      6  C   UNL d   1     -42.348-123.084 -48.360  0.00  0.00     0.018 A 
ATOM      7  C   UNL d   1     -41.722-123.475 -47.968  0.00  0.00     0.003 A 
ATOM      8  C   UNL d   1     -41.124-123.800 -48.420  0.00  0.00     0.019 A 
ATOM      9  C   UNL d   1     -41.127-123.749 -49.243  0.00  0.00     0.082 A 
BRANCH   5  10
ATOM     10  C   UNL d   1     -42.976-122.643 -49.579  0.00  0.00     0.018 C 
ATOM     11  C   UNL d   1     -43.623-122.405 -49.157  0.00  0.00     0.002 C 
ENDBRANCH   5  10
ENDBRANCH   2   4
ENDBRANCH   1   2
BRANCH   1  12
ATOM     12  C   UNL d   1     -41.241-122.713 -51.657  0.00  0.00     0.084 A 
ATOM     13  C   UNL d   1     -41.258-121.973 -52.046  0.00  0.00     0.021 A 
ATOM     14  C   UNL d   1     -41.220-121.929 -52.851  0.00  0.00     0.026 A 
ATOM     15  C   UNL d   1     -41.162-122.637 -53.314  0.00  0.00     0.105 A 
ATOM     16  C   UNL d   1     -41.145-123.377 -52.925  0.00  0.00     0.026 A 
ATOM     17  C   UNL d   1     -41.185-123.407 -52.104  0.00  0.00     0.021 A 
BRANCH  15  18
ATOM     18  O   UNL d   1     -41.123-122.602 -54.136  0.00  0.00    -0.260 OA
BRANCH  18  19
ATOM     19  C   UNL d   1     -41.805-122.729 -54.595  0.00  0.00     0.391 C 
ATOM     20  F   UNL d   1     -42.384-122.143 -54.654  0.00  0.00    -0.145 F 
ATOM     21  F   UNL d   1     -41.904-123.455 -54.998  0.00  0.00    -0.145 F 
ENDBRANCH  18  19
ENDBRANCH  15  18
ENDBRANCH   1  12
TORSDOF 6
ENDMDL
MODEL 2
REMARK VINA RESULT:      -3.7      1.112      1.455
REMARK  6 active torsions:
REMARK  status: ('A' for Active; 'I' for Inactive)
REMARK    1  A    between atoms: N_2  and  C_1 
REMARK    2  A    between atoms: N_3  and  C_1 
REMARK    3  A    between atoms: C_8  and  N_3 
REMARK    4  A    between atoms: C_5  and  O_7 
REMARK    5  A    between atoms: C_17  and  C_6 
REMARK    6  A    between atoms: O_7  and  C_9 
ROOT
ATOM      1  N   UNL d   1     -42.151-122.852 -52.124  0.00  0.00    -0.219 NA
ENDROOT
BRANCH   1   2
ATOM      2  C   UNL d   1     -41.634-122.556 -51.545  0.00  0.00     0.206 C 
ATOM      3  S   UNL d   1     -41.124-121.937 -51.736  0.00  0.00    -0.038 SA
BRANCH   2   4
ATOM      4  N   UNL d   1     -41.635-122.885 -50.782  0.00  0.00    -0.282 N 
ATOM      5  C   UNL d   1     -42.156-122.603 -50.216  0.00  0.00     0.066 A 
ATOM      6  C   UNL d   1     -42.172-122.916 -49.454  0.00  0.00     0.018 A 
ATOM      7  C   UNL d   1     -41.645-123.534 -49.255  0.00  0.00     0.003 A 
ATOM      8  C   UNL d   1     -41.131-123.805 -49.829  0.00  0.00     0.019 A 
ATOM      9  C   UNL d   1     -41.123-123.485 -50.589  0.00  0.00     0.082 A 
BRANCH   5  10
ATOM     10  C   UNL d   1     -42.689-121.978 -50.416  0.00  0.00     0.018 C 
ATOM     11  C   UNL d   1     -43.421-121.953 -50.074  0.00  0.00     0.002 C 
ENDBRANCH   5  10
ENDBRANCH   2   4
ENDBRANCH   1   2
BRANCH   1  12
ATOM     12  C   UNL d   1     -42.007-122.723 -52.924  0.00  0.00     0.084 A 
ATOM     13  C   UNL d   1     -42.385-122.089 -53.316  0.00  0.00     0.021 A 
ATOM     14  C   UNL d   1     -42.252-121.952 -54.100  0.00  0.00     0.026 A 
ATOM     15  C   UNL d   1     -41.726-122.452 -54.537  0.00  0.00     0.105 A 
ATOM     16  C   UNL d   1     -41.348-123.086 -54.145  0.00  0.00     0.026 A 
ATOM     17  C   UNL d   1     -41.492-123.215 -53.345  0.00  0.00     0.021 A 
BRANCH  15  18
ATOM     18  O   UNL d   1     -41.584-122.320 -55.338  0.00  0.00    -0.260 OA
BRANCH  18  19
ATOM     19  C   UNL d   1     -42.142-121.912 -55.802  0.00  0.00     0.391 C 
ATOM     20  F   UNL d   1     -42.129-121.087 -55.840  0.00  0.00    -0.145 F 
ATOM     21  F   UNL d   1     -42.717-122.340 -56.231  0.00  0.00    -0.145 F 
ENDBRANCH  18  19
ENDBRANCH  15  18
ENDBRANCH   1  12
TORSDOF 6
ENDMDL
MODEL 3
REMARK VINA RESULT:      -3.5      2.738      4.605
REMARK  6 active torsions:
REMARK  status: ('A' for Active; 'I' for Inactive)
REMARK    1  A    between atoms: N_2  and  C_1 
REMARK    2  A    between atoms: N_3  and  C_1 
REMARK    3  A    between atoms: C_8  and  N_3 
REMARK    4  A    between atoms: C_5  and  O_7 
REMARK    5  A    between atoms: C_17  and  C_6 
REMARK    6  A    between atoms: O_7  and  C_9 
ROOT
ATOM      1  N   UNL d   1     -42.113-122.974 -51.731  0.00  0.00    -0.219 NA
ENDROOT
BRANCH   1   2
ATOM      2  C   UNL d   1     -41.576-122.589 -52.234  0.00  0.00     0.206 C 
ATOM      3  S   UNL d   1     -41.124-121.965 -51.943  0.00  0.00    -0.038 SA
BRANCH   2   4
ATOM      4  N   UNL d   1     -41.498-122.837 -53.024  0.00  0.00    -0.282 N 
ATOM      5  C   UNL d   1     -41.724-122.336 -53.633  0.00  0.00     0.066 A 
ATOM      6  C   UNL d   1     -41.654-122.564 -54.422  0.00  0.00     0.018 A 
ATOM      7  C   UNL d   1     -41.347-123.320 -54.604  0.00  0.00     0.003 A 
ATOM      8  C   UNL d   1     -41.126-123.807 -53.987  0.00  0.00     0.019 A 
ATOM      9  C   UNL d   1     -41.199-123.571 -53.201  0.00  0.00     0.082 A 
BRANCH   5  10
ATOM     10  C   UNL d   1     -42.034-121.572 -53.449  0.00  0.00     0.018 C 
ATOM     11  C   UNL d   1     -42.293-121.092 -54.046  0.00  0.00     0.002 C 
ENDBRANCH   5  10
ENDBRANCH   2   4
ENDBRANCH   1   2
BRANCH   1  12
ATOM     12  C   UNL d   1     -41.946-123.071 -50.931  0.00  0.00     0.084 A 
ATOM     13  C   UNL d   1     -42.374-122.630 -50.363  0.00  0.00     0.021 A 
ATOM     14  C   UNL d   1     -42.221-122.716 -49.575  0.00  0.00     0.026 A 
ATOM     15  C   UNL d   1     -41.622-123.255 -49.313  0.00  0.00     0.105 A 
ATOM     16  C   UNL d   1     -41.195-123.695 -49.881  0.00  0.00     0.026 A 
ATOM     17  C   UNL d   1     -41.361-123.599 -50.682  0.00  0.00     0.021 A 
BRANCH  15  18
ATOM     18  O   UNL d   1     -41.459-123.349 -48.511  0.00  0.00    -0.260 OA
BRANCH  18  19
ATOM     19  C   UNL d   1     -41.949-122.997 -47.938  0.00  0.00     0.391 C 
ATOM     20  F   UNL d   1     -42.592-123.412 -47.628  0.00  0.00    -0.145 F 
ATOM     21  F   UNL d   1     -41.788-122.220 -47.676  0.00  0.00    -0.145 F 
ENDBRANCH  18  19
ENDBRANCH  15  18
ENDBRANCH   1  12
TORSDOF 6
ENDMDL
MODEL 4
REMARK VINA RESULT:      -3.0      2.547      4.802
REMARK  6 active torsions:
REMARK  status: ('A' for Active; 'I' for Inactive)
REMARK    1  A    between atoms: N_2  and  C_1 
REMARK    2  A    between atoms: N_3  and  C_1 
REMARK    3  A    between atoms: C_8  and  N_3 
REMARK    4  A    between atoms: C_5  and  O_7 
REMARK    5  A    between atoms: C_17  and  C_6 
REMARK    6  A    between atoms: O_7  and  C_9 
ROOT
ATOM      1  N   UNL d   1     -41.214-122.234 -52.429  0.00  0.00    -0.219 NA
ENDROOT
BRANCH   1   2
ATOM      2  C   UNL d   1     -41.331-122.682 -53.118  0.00  0.00     0.206 C 
ATOM      3  S   UNL d   1     -41.127-123.480 -53.121  0.00  0.00    -0.038 SA
BRANCH   2   4
ATOM      4  N   UNL d   1     -41.652-122.324 -53.796  0.00  0.00    -0.282 N 
ATOM      5  C   UNL d   1     -41.616-122.711 -54.518  0.00  0.00     0.066 A 
ATOM      6  C   UNL d   1     -41.928-122.372 -55.201  0.00  0.00     0.018 A 
ATOM      7  C   UNL d   1     -42.289-121.619 -55.156  0.00  0.00     0.003 A 
ATOM      8  C   UNL d   1     -42.318-121.246 -54.430  0.00  0.00     0.019 A 
ATOM      9  C   UNL d   1     -42.003-121.593 -53.752  0.00  0.00     0.082 A 
BRANCH   5  10
ATOM     10  C   UNL d   1     -41.251-123.471 -54.564  0.00  0.00     0.018 C 
ATOM     11  C   UNL d   1     -41.132-123.814 -55.287  0.00  0.00     0.002 C 
ENDBRANCH   5  10
ENDBRANCH   2   4
ENDBRANCH   1   2
BRANCH   1  12
ATOM     12  C   UNL d   1     -41.461-122.514 -51.696  0.00  0.00     0.084 A 
ATOM     13  C   UNL d   1     -41.126-123.214 -51.385  0.00  0.00     0.021 A 
ATOM     14  C   UNL d   1     -41.360-123.499 -50.667  0.00  0.00     0.026 A 
ATOM     15  C   UNL d   1     -41.950-123.090 -50.218  0.00  0.00     0.105 A 
ATOM     16  C   UNL d   1     -42.285-122.390 -50.529  0.00  0.00     0.026 A 
ATOM     17  C   UNL d   1     -42.038-122.110 -51.262  0.00  0.00     0.021 A 
BRANCH  15  18
ATOM     18  O   UNL d   1     -42.195-123.374 -49.484  0.00  0.00    -0.260 OA
BRANCH  18  19
ATOM     19  C   UNL d   1     -42.027-122.945 -48.791  0.00  0.00     0.391 C 
ATOM     20  F   UNL d   1     -41.255-122.904 -48.502  0.00  0.00    -0.145 F 
ATOM     21  F   UNL d   1     -42.646-122.555 -48.385  0.00  0.00    -0.145 F 
ENDBRANCH  18  19
ENDBRANCH  15  18
ENDBRANCH   1  12
TORSDOF 6
ENDMDL
MODEL 5
REMARK VINA RESULT:      -1.8      2.425      4.641
REMARK  6 active torsions:
REMARK  status: ('A' for Active; 'I' for Inactive)
REMARK    1  A    between atoms: N_2  and  C_1 
REMARK    2  A    between atoms: N_3  and  C_1 
REMARK    3  A    between atoms: C_8  and  N_3 
REMARK    4  A    between atoms: C_5  and  O_7 
REMARK    5  A    between atoms: C_17  and  C_6 
REMARK    6  A    between atoms: O_7  and  C_9 
ROOT
ATOM      1  N   UNL d   1     -41.155-122.366 -53.013  0.00  0.00    -0.219 NA
ENDROOT
BRANCH   1   2
ATOM      2  C   UNL d   1     -41.712-122.707 -53.525  0.00  0.00     0.206 C 
ATOM      3  S   UNL d   1     -42.246-123.261 -53.232  0.00  0.00    -0.038 SA
BRANCH   2   4
ATOM      4  N   UNL d   1     -41.727-122.486 -54.326  0.00  0.00    -0.282 N 
ATOM      5  C   UNL d   1     -42.356-122.050 -54.619  0.00  0.00     0.066 A 
ATOM      6  C   UNL d   1     -42.388-121.822 -55.410  0.00  0.00     0.018 A 
ATOM      7  C   UNL d   1     -41.767-122.042 -55.924  0.00  0.00     0.003 A 
ATOM      8  C   UNL d   1     -41.146-122.477 -55.619  0.00  0.00     0.019 A 
ATOM      9  C   UNL d   1     -41.123-122.699 -54.826  0.00  0.00     0.082 A 
BRANCH   5  10
ATOM     10  C   UNL d   1     -42.985-121.828 -54.099  0.00  0.00     0.018 C 
ATOM     11  C   UNL d   1     -43.650-121.483 -54.402  0.00  0.00     0.002 C 
ENDBRANCH   5  10
ENDBRANCH   2   4
ENDBRANCH   1   2
BRANCH   1  12
ATOM     12  C   UNL d   1     -41.163-122.536 -52.207  0.00  0.00     0.084 A 
ATOM     13  C   UNL d   1     -41.199-121.912 -51.652  0.00  0.00     0.021 A 
ATOM     14  C   UNL d   1     -41.207-122.064 -50.860  0.00  0.00     0.026 A 
ATOM     15  C   UNL d   1     -41.179-122.863 -50.580  0.00  0.00     0.105 A 
ATOM     16  C   UNL d   1     -41.143-123.488 -51.135  0.00  0.00     0.026 A 
ATOM     17  C   UNL d   1     -41.135-123.318 -51.940  0.00  0.00     0.021 A 
BRANCH  15  18
ATOM     18  O   UNL d   1     -41.187-123.030 -49.773  0.00  0.00    -0.260 OA
BRANCH  18  19
ATOM     19  C   UNL d   1     -41.909-123.137 -49.373  0.00  0.00     0.391 C 
ATOM     20  F   UNL d   1     -42.159-122.589 -48.808  0.00  0.00    -0.145 F 
ATOM     21  F   UNL d   1     -42.383-123.804 -49.545  0.00  0.00    -0.145 F 
ENDBRANCH  18  19
ENDBRANCH  15  18
ENDBRANCH   1  12
TORSDOF 6
ENDMDL
