MODEL 1
REMARK VINA RESULT:      -5.5      0.000      0.000
REMARK  4 active torsions:
REMARK  status: ('A' for Active; 'I' for Inactive)
REMARK    1  A    between atoms: C_7  and  C_3 
REMARK    2  A    between atoms: S_6  and  C_4 
REMARK    3  A    between atoms: C_9  and  S_6 
REMARK    4  A    between atoms: C_10  and  C_9 
ROOT
ATOM      1  O   UNL d   1      58.453   0.036  30.548  0.00  0.00    -0.263 OA
ATOM      2  N   UNL d   1      58.090   0.449  29.313  0.00  0.00    -0.120 NA
ATOM      3  C   UNL d   1      58.717   0.117  29.764  0.00  0.00     0.205 A 
ATOM      4  C   UNL d   1      57.670   0.315  30.589  0.00  0.00     0.236 A 
ATOM      5  N   UNL d   1      57.457   0.565  29.832  0.00  0.00    -0.114 NA
ENDROOT
BRANCH   4   6
ATOM      6  S   UNL d   1      57.199   0.337  31.261  0.00  0.00    -0.041 SA
BRANCH   6   7
ATOM      7  C   UNL d   1      57.080  -0.353  31.722  0.00  0.00     0.039 C 
BRANCH   7   8
ATOM      8  C   UNL d   1      56.509  -0.370  32.289  0.00  0.00     0.007 A 
ATOM      9  C   UNL d   1      56.200   0.333  32.596  0.00  0.00     0.001 A 
ATOM     10  C   UNL d   1      55.615   0.329  33.177  0.00  0.00     0.000 A 
ATOM     11  C   UNL d   1      55.330  -0.395  33.458  0.00  0.00     0.000 A 
ATOM     12  C   UNL d   1      55.645  -1.111  33.144  0.00  0.00     0.000 A 
ATOM     13  C   UNL d   1      56.222  -1.095  32.571  0.00  0.00     0.001 A 
ENDBRANCH   7   8
ENDBRANCH   6   7
ENDBRANCH   4   6
BRANCH   3  14
ATOM     14  C   UNL d   1      59.442  -0.076  29.436  0.00  0.00     0.046 A 
ATOM     15  C   UNL d   1      59.537  -0.808  29.057  0.00  0.00     0.024 A 
ATOM     16  C   UNL d   1      60.263  -1.005  28.727  0.00  0.00     0.099 A 
ATOM     17  N   UNL d   1      60.902  -0.468  28.774  0.00  0.00    -0.242 NA
ATOM     18  C   UNL d   1      60.784   0.234  29.146  0.00  0.00     0.099 A 
ATOM     19  C   UNL d   1      60.061   0.443  29.481  0.00  0.00     0.024 A 
ENDBRANCH   3  14
TORSDOF 4
ENDMDL
MODEL 2
REMARK VINA RESULT:      -5.1      1.226      1.487
REMARK  4 active torsions:
REMARK  status: ('A' for Active; 'I' for Inactive)
REMARK    1  A    between atoms: C_7  and  C_3 
REMARK    2  A    between atoms: S_6  and  C_4 
REMARK    3  A    between atoms: C_9  and  S_6 
REMARK    4  A    between atoms: C_10  and  C_9 
ROOT
ATOM      1  O   UNL d   1      58.232  -1.208  30.293  0.00  0.00    -0.263 OA
ATOM      2  N   UNL d   1      58.492  -0.482  29.182  0.00  0.00    -0.120 NA
ATOM      3  C   UNL d   1      58.600  -1.231  29.548  0.00  0.00     0.205 A 
ATOM      4  C   UNL d   1      57.896  -0.454  30.394  0.00  0.00     0.236 A 
ATOM      5  N   UNL d   1      58.060  -0.017  29.713  0.00  0.00    -0.114 NA
ENDROOT
BRANCH   4   6
ATOM      6  S   UNL d   1      57.480  -0.194  31.052  0.00  0.00    -0.041 SA
BRANCH   6   7
ATOM      7  C   UNL d   1      56.941  -0.701  31.443  0.00  0.00     0.039 C 
BRANCH   7   8
ATOM      8  C   UNL d   1      56.513  -0.434  32.071  0.00  0.00     0.007 A 
ATOM      9  C   UNL d   1      56.451   0.376  32.223  0.00  0.00     0.001 A 
ATOM     10  C   UNL d   1      56.016   0.663  32.863  0.00  0.00     0.000 A 
ATOM     11  C   UNL d   1      55.633   0.127  33.363  0.00  0.00     0.000 A 
ATOM     12  C   UNL d   1      55.696  -0.699  33.207  0.00  0.00     0.000 A 
ATOM     13  C   UNL d   1      56.128  -0.970  32.573  0.00  0.00     0.001 A 
ENDBRANCH   7   8
ENDBRANCH   6   7
ENDBRANCH   4   6
BRANCH   3  14
ATOM     14  C   UNL d   1      59.008  -1.843  29.186  0.00  0.00     0.046 A 
ATOM     15  C   UNL d   1      58.614  -2.553  29.021  0.00  0.00     0.024 A 
ATOM     16  C   UNL d   1      59.018  -3.170  28.658  0.00  0.00     0.099 A 
ATOM     17  N   UNL d   1      59.825  -3.078  28.458  0.00  0.00    -0.242 NA
ATOM     18  C   UNL d   1      60.183  -2.379  28.628  0.00  0.00     0.099 A 
ATOM     19  C   UNL d   1      59.788  -1.754  28.992  0.00  0.00     0.024 A 
ENDBRANCH   3  14
TORSDOF 4
ENDMDL
MODEL 3
REMARK VINA RESULT:      -4.9      1.062      1.567
REMARK  4 active torsions:
REMARK  status: ('A' for Active; 'I' for Inactive)
REMARK    1  A    between atoms: C_7  and  C_3 
REMARK    2  A    between atoms: S_6  and  C_4 
REMARK    3  A    between atoms: C_9  and  S_6 
REMARK    4  A    between atoms: C_10  and  C_9 
ROOT
ATOM      1  O   UNL d   1      57.646   0.175  30.986  0.00  0.00    -0.263 OA
ATOM      2  N   UNL d   1      57.545  -1.099  30.546  0.00  0.00    -0.120 NA
ATOM      3  C   UNL d   1      57.942  -0.368  30.431  0.00  0.00     0.205 A 
ATOM      4  C   UNL d   1      57.069  -0.211  31.445  0.00  0.00     0.236 A 
ATOM      5  N   UNL d   1      57.013  -0.987  31.170  0.00  0.00    -0.114 NA
ENDROOT
BRANCH   4   6
ATOM      6  S   UNL d   1      56.636   0.122  32.058  0.00  0.00    -0.041 SA
BRANCH   6   7
ATOM      7  C   UNL d   1      56.353  -0.351  32.687  0.00  0.00     0.039 C 
BRANCH   7   8
ATOM      8  C   UNL d   1      55.978  -0.014  33.315  0.00  0.00     0.007 A 
ATOM      9  C   UNL d   1      55.152  -0.016  33.361  0.00  0.00     0.001 A 
ATOM     10  C   UNL d   1      54.755   0.327  33.998  0.00  0.00     0.000 A 
ATOM     11  C   UNL d   1      55.193   0.680  34.604  0.00  0.00     0.000 A 
ATOM     12  C   UNL d   1      56.035   0.682  34.556  0.00  0.00     0.000 A 
ATOM     13  C   UNL d   1      56.415   0.341  33.923  0.00  0.00     0.001 A 
ENDBRANCH   7   8
ENDBRANCH   6   7
ENDBRANCH   4   6
BRANCH   3  14
ATOM     14  C   UNL d   1      58.515  -0.263  29.855  0.00  0.00     0.046 A 
ATOM     15  C   UNL d   1      59.079   0.338  29.944  0.00  0.00     0.024 A 
ATOM     16  C   UNL d   1      59.655   0.446  29.369  0.00  0.00     0.099 A 
ATOM     17  N   UNL d   1      59.671  -0.051  28.696  0.00  0.00    -0.242 NA
ATOM     18  C   UNL d   1      59.113  -0.626  28.634  0.00  0.00     0.099 A 
ATOM     19  C   UNL d   1      58.530  -0.744  29.204  0.00  0.00     0.024 A 
ENDBRANCH   3  14
TORSDOF 4
ENDMDL
MODEL 4
REMARK VINA RESULT:      -4.9      1.185      4.821
REMARK  4 active torsions:
REMARK  status: ('A' for Active; 'I' for Inactive)
REMARK    1  A    between atoms: C_7  and  C_3 
REMARK    2  A    between atoms: S_6  and  C_4 
REMARK    3  A    between atoms: C_9  and  S_6 
REMARK    4  A    between atoms: C_10  and  C_9 
ROOT
ATOM      1  O   UNL d   1      57.821  -0.084  31.350  0.00  0.00    -0.263 OA
ATOM      2  N   UNL d   1      56.717   0.537  30.878  0.00  0.00    -0.120 NA
ATOM      3  C   UNL d   1      57.015   0.055  31.499  0.00  0.00     0.205 A 
ATOM      4  C   UNL d   1      58.027   0.305  30.644  0.00  0.00     0.236 A 
ATOM      5  N   UNL d   1      57.348   0.681  30.363  0.00  0.00    -0.114 NA
ENDROOT
BRANCH   4   6
ATOM      6  S   UNL d   1      58.769   0.312  30.295  0.00  0.00    -0.041 SA
BRANCH   6   7
ATOM      7  C   UNL d   1      58.871   0.060  29.502  0.00  0.00     0.039 C 
BRANCH   7   8
ATOM      8  C   UNL d   1      59.609  -0.011  29.189  0.00  0.00     0.007 A 
ATOM      9  C   UNL d   1      60.050   0.663  28.996  0.00  0.00     0.001 A 
ATOM     10  C   UNL d   1      60.807   0.604  28.674  0.00  0.00     0.000 A 
ATOM     11  C   UNL d   1      61.132  -0.144  28.541  0.00  0.00     0.000 A 
ATOM     12  C   UNL d   1      60.683  -0.830  28.737  0.00  0.00     0.000 A 
ATOM     13  C   UNL d   1      59.937  -0.760  29.055  0.00  0.00     0.001 A 
ENDBRANCH   7   8
ENDBRANCH   6   7
ENDBRANCH   4   6
BRANCH   3  14
ATOM     14  C   UNL d   1      56.547  -0.204  32.120  0.00  0.00     0.046 A 
ATOM     15  C   UNL d   1      56.180   0.351  32.613  0.00  0.00     0.024 A 
ATOM     16  C   UNL d   1      55.711   0.096  33.237  0.00  0.00     0.099 A 
ATOM     17  N   UNL d   1      55.604  -0.723  33.370  0.00  0.00    -0.242 NA
ATOM     18  C   UNL d   1      55.971  -1.240  32.877  0.00  0.00     0.099 A 
ATOM     19  C   UNL d   1      56.445  -0.996  32.249  0.00  0.00     0.024 A 
ENDBRANCH   3  14
TORSDOF 4
ENDMDL
MODEL 5
REMARK VINA RESULT:      -4.7      1.765      5.002
REMARK  4 active torsions:
REMARK  status: ('A' for Active; 'I' for Inactive)
REMARK    1  A    between atoms: C_7  and  C_3 
REMARK    2  A    between atoms: S_6  and  C_4 
REMARK    3  A    between atoms: C_9  and  S_6 
REMARK    4  A    between atoms: C_10  and  C_9 
ROOT
ATOM      1  O   UNL d   1      56.764   0.354  32.037  0.00  0.00    -0.263 OA
ATOM      2  N   UNL d   1      56.323  -0.885  32.352  0.00  0.00    -0.120 NA
ATOM      3  C   UNL d   1      56.336  -0.082  32.601  0.00  0.00     0.205 A 
ATOM      4  C   UNL d   1      57.017  -0.169  31.441  0.00  0.00     0.236 A 
ATOM      5  N   UNL d   1      56.744  -0.922  31.640  0.00  0.00    -0.114 NA
ENDROOT
BRANCH   4   6
ATOM      6  S   UNL d   1      57.457   0.031  30.777  0.00  0.00    -0.041 SA
BRANCH   6   7
ATOM      7  C   UNL d   1      58.196  -0.333  30.629  0.00  0.00     0.039 C 
BRANCH   7   8
ATOM      8  C   UNL d   1      58.604  -0.168  29.954  0.00  0.00     0.007 A 
ATOM      9  C   UNL d   1      58.564  -0.678  29.304  0.00  0.00     0.001 A 
ATOM     10  C   UNL d   1      58.977  -0.521  28.607  0.00  0.00     0.000 A 
ATOM     11  C   UNL d   1      59.440   0.162  28.559  0.00  0.00     0.000 A 
ATOM     12  C   UNL d   1      59.481   0.681  29.222  0.00  0.00     0.000 A 
ATOM     13  C   UNL d   1      59.069   0.515  29.904  0.00  0.00     0.001 A 
ENDBRANCH   7   8
ENDBRANCH   6   7
ENDBRANCH   4   6
BRANCH   3  14
ATOM     14  C   UNL d   1      55.973   0.171  33.290  0.00  0.00     0.046 A 
ATOM     15  C   UNL d   1      55.146   0.186  33.333  0.00  0.00     0.024 A 
ATOM     16  C   UNL d   1      54.777   0.440  34.022  0.00  0.00     0.099 A 
ATOM     17  N   UNL d   1      55.238   0.682  34.676  0.00  0.00    -0.242 NA
ATOM     18  C   UNL d   1      56.039   0.658  34.608  0.00  0.00     0.099 A 
ATOM     19  C   UNL d   1      56.420   0.406  33.923  0.00  0.00     0.024 A 
ENDBRANCH   3  14
TORSDOF 4
ENDMDL
MODEL 6
REMARK VINA RESULT:      -2.7      9.664     10.031
REMARK  4 active torsions:
REMARK  status: ('A' for Active; 'I' for Inactive)
REMARK    1  A    between atoms: C_7  and  C_3 
REMARK    2  A    between atoms: S_6  and  C_4 
REMARK    3  A    between atoms: C_9  and  S_6 
REMARK    4  A    between atoms: C_10  and  C_9 
ROOT
ATOM      1  O   UNL d   1      58.670  -9.816  32.256  0.00  0.00    -0.263 OA
ATOM      2  N   UNL d   1      59.657  -9.750  31.335  0.00  0.00    -0.120 NA
ATOM      3  C   UNL d   1      58.824  -9.789  31.440  0.00  0.00     0.205 A 
ATOM      4  C   UNL d   1      59.397  -9.793  32.660  0.00  0.00     0.236 A 
ATOM      5  N   UNL d   1      59.994  -9.753  32.090  0.00  0.00    -0.114 NA
ENDROOT
BRANCH   4   6
ATOM      6  S   UNL d   1      59.499  -9.809  33.474  0.00  0.00    -0.041 SA
BRANCH   6   7
ATOM      7  C   UNL d   1      59.816  -9.147  33.877  0.00  0.00     0.039 C 
BRANCH   7   8
ATOM      8  C   UNL d   1      59.752  -9.088  34.678  0.00  0.00     0.007 A 
ATOM      9  C   UNL d   1      59.705  -8.347  35.042  0.00  0.00     0.001 A 
ATOM     10  C   UNL d   1      59.639  -8.273  35.861  0.00  0.00     0.000 A 
ATOM     11  C   UNL d   1      59.620  -8.955  36.327  0.00  0.00     0.000 A 
ATOM     12  C   UNL d   1      59.669  -9.710  35.956  0.00  0.00     0.000 A 
ATOM     13  C   UNL d   1      59.733  -9.771  35.147  0.00  0.00     0.001 A 
ENDBRANCH   7   8
ENDBRANCH   6   7
ENDBRANCH   4   6
BRANCH   3  14
ATOM     14  C   UNL d   1      58.300  -9.798  30.810  0.00  0.00     0.046 A 
ATOM     15  C   UNL d   1      57.484  -9.795  30.958  0.00  0.00     0.024 A 
ATOM     16  C   UNL d   1      56.956  -9.803  30.329  0.00  0.00     0.099 A 
ATOM     17  N   UNL d   1      57.242  -9.814  29.544  0.00  0.00    -0.242 NA
ATOM     18  C   UNL d   1      58.037  -9.817  29.428  0.00  0.00     0.099 A 
ATOM     19  C   UNL d   1      58.577  -9.809  30.050  0.00  0.00     0.024 A 
ENDBRANCH   3  14
TORSDOF 4
ENDMDL
