MODEL 1
REMARK VINA RESULT:      -2.7      0.000      0.000
REMARK  1 active torsions:
REMARK  status: ('A' for Active; 'I' for Inactive)
REMARK    1  A    between atoms: C_6  and  N_1 
ROOT
ATOM      1  N   UNL d   1      29.219  16.407 -23.897  0.00  0.00    -0.204 N 
ATOM      2  C   UNL d   1      29.852  16.041 -23.508  0.00  0.00     0.271 A 
ATOM      3  C   UNL d   1      29.525  16.992 -24.397  0.00  0.00     0.270 A 
ATOM      4  C   UNL d   1      30.549  16.400 -23.769  0.00  0.00     0.080 A 
ATOM      5  C   UNL d   1      30.349  16.980 -24.311  0.00  0.00     0.064 A 
ATOM      6  O   UNL d   1      29.703  15.453 -22.991  0.00  0.00    -0.266 OA
ATOM      7  O   UNL d   1      29.089  17.491 -24.888  0.00  0.00    -0.266 OA
ATOM      8  N   UNL d   1      31.923  16.714 -23.926  0.00  0.00    -0.242 NA
ATOM      9  C   UNL d   1      31.333  16.259 -23.570  0.00  0.00     0.104 A 
ATOM     10  C   UNL d   1      30.940  17.431 -24.664  0.00  0.00     0.026 A 
ATOM     11  C   UNL d   1      31.732  17.299 -24.472  0.00  0.00     0.099 A 
ENDROOT
BRANCH   1  12
ATOM     12  C   UNL d   1      28.417  16.223 -23.805  0.00  0.00     0.326 C 
ATOM     13  O   UNL d   1      27.952  16.669 -23.289  0.00  0.00    -0.261 OA
ENDBRANCH   1  12
TORSDOF 1
ENDMDL
MODEL 2
REMARK VINA RESULT:      -2.7      0.357      1.474
REMARK  1 active torsions:
REMARK  status: ('A' for Active; 'I' for Inactive)
REMARK    1  A    between atoms: C_6  and  N_1 
ROOT
ATOM      1  N   UNL d   1      29.260  16.469 -23.968  0.00  0.00    -0.204 N 
ATOM      2  C   UNL d   1      29.537  17.075 -24.459  0.00  0.00     0.271 A 
ATOM      3  C   UNL d   1      29.911  16.123 -23.591  0.00  0.00     0.270 A 
ATOM      4  C   UNL d   1      30.359  17.103 -24.385  0.00  0.00     0.080 A 
ATOM      5  C   UNL d   1      30.587  16.522 -23.855  0.00  0.00     0.064 A 
ATOM      6  O   UNL d   1      29.014  17.498 -24.888  0.00  0.00    -0.266 OA
ATOM      7  O   UNL d   1      29.889  15.498 -23.053  0.00  0.00    -0.266 OA
ATOM      8  N   UNL d   1      31.713  17.490 -24.557  0.00  0.00    -0.242 NA
ATOM      9  C   UNL d   1      30.915  17.593 -24.741  0.00  0.00     0.104 A 
ATOM     10  C   UNL d   1      31.384  16.423 -23.674  0.00  0.00     0.026 A 
ATOM     11  C   UNL d   1      31.951  16.909 -24.026  0.00  0.00     0.099 A 
ENDROOT
BRANCH   1  12
ATOM     12  C   UNL d   1      28.470  16.243 -23.868  0.00  0.00     0.326 C 
ATOM     13  O   UNL d   1      28.008  16.613 -23.293  0.00  0.00    -0.261 OA
ENDBRANCH   1  12
TORSDOF 1
ENDMDL
MODEL 3
REMARK VINA RESULT:      -2.6      1.145      2.389
REMARK  1 active torsions:
REMARK  status: ('A' for Active; 'I' for Inactive)
REMARK    1  A    between atoms: C_6  and  N_1 
ROOT
ATOM      1  N   UNL d   1      30.859  16.852 -24.168  0.00  0.00    -0.204 N 
ATOM      2  C   UNL d   1      30.789  16.215 -23.645  0.00  0.00     0.271 A 
ATOM      3  C   UNL d   1      30.099  17.084 -24.400  0.00  0.00     0.270 A 
ATOM      4  C   UNL d   1      29.984  16.053 -23.553  0.00  0.00     0.080 A 
ATOM      5  C   UNL d   1      29.563  16.583 -24.014  0.00  0.00     0.064 A 
ATOM      6  O   UNL d   1      31.449  15.887 -23.340  0.00  0.00    -0.266 OA
ATOM      7  O   UNL d   1      29.912  17.698 -24.917  0.00  0.00    -0.266 OA
ATOM      8  N   UNL d   1      28.773  15.454 -23.121  0.00  0.00    -0.242 NA
ATOM      9  C   UNL d   1      29.598  15.484 -23.103  0.00  0.00     0.104 A 
ATOM     10  C   UNL d   1      28.741  16.550 -24.029  0.00  0.00     0.026 A 
ATOM     11  C   UNL d   1      28.342  15.983 -23.581  0.00  0.00     0.099 A 
ENDROOT
BRANCH   1  12
ATOM     12  C   UNL d   1      31.566  17.202 -24.420  0.00  0.00     0.326 C 
ATOM     13  O   UNL d   1      31.862  17.862 -24.022  0.00  0.00    -0.261 OA
ENDBRANCH   1  12
TORSDOF 1
ENDMDL
MODEL 4
REMARK VINA RESULT:      -2.6      1.186      2.801
REMARK  1 active torsions:
REMARK  status: ('A' for Active; 'I' for Inactive)
REMARK    1  A    between atoms: C_6  and  N_1 
ROOT
ATOM      1  N   UNL d   1      30.919  16.816 -24.092  0.00  0.00    -0.204 N 
ATOM      2  C   UNL d   1      30.182  17.086 -24.355  0.00  0.00     0.271 A 
ATOM      3  C   UNL d   1      30.797  16.155 -23.608  0.00  0.00     0.270 A 
ATOM      4  C   UNL d   1      29.604  16.592 -24.033  0.00  0.00     0.080 A 
ATOM      5  C   UNL d   1      29.979  16.024 -23.577  0.00  0.00     0.064 A 
ATOM      6  O   UNL d   1      30.150  17.723 -24.834  0.00  0.00    -0.266 OA
ATOM      7  O   UNL d   1      31.380  15.712 -23.229  0.00  0.00    -0.266 OA
ATOM      8  N   UNL d   1      28.343  16.027 -23.714  0.00  0.00    -0.242 NA
ATOM      9  C   UNL d   1      28.786  16.602 -24.107  0.00  0.00     0.104 A 
ATOM     10  C   UNL d   1      29.533  15.453 -23.187  0.00  0.00     0.026 A 
ATOM     11  C   UNL d   1      28.711  15.453 -23.254  0.00  0.00     0.099 A 
ENDROOT
BRANCH   1  12
ATOM     12  C   UNL d   1      31.656  17.146 -24.278  0.00  0.00     0.326 C 
ATOM     13  O   UNL d   1      31.991  17.710 -23.777  0.00  0.00    -0.261 OA
ENDBRANCH   1  12
TORSDOF 1
ENDMDL
MODEL 5
REMARK VINA RESULT:      -2.3      5.870      6.629
REMARK  1 active torsions:
REMARK  status: ('A' for Active; 'I' for Inactive)
REMARK    1  A    between atoms: C_6  and  N_1 
ROOT
ATOM      1  N   UNL d   1      32.593  22.661 -21.413  0.00  0.00    -0.204 N 
ATOM      2  C   UNL d   1      32.823  22.402 -22.165  0.00  0.00     0.271 A 
ATOM      3  C   UNL d   1      32.567  22.004 -20.910  0.00  0.00     0.270 A 
ATOM      4  C   UNL d   1      32.940  21.586 -22.126  0.00  0.00     0.080 A 
ATOM      5  C   UNL d   1      32.783  21.343 -21.359  0.00  0.00     0.064 A 
ATOM      6  O   UNL d   1      32.890  22.935 -22.756  0.00  0.00    -0.266 OA
ATOM      7  O   UNL d   1      32.363  22.009 -20.111  0.00  0.00    -0.266 OA
ATOM      8  N   UNL d   1      33.241  20.250 -22.497  0.00  0.00    -0.242 NA
ATOM      9  C   UNL d   1      33.169  21.047 -22.701  0.00  0.00     0.104 A 
ATOM     10  C   UNL d   1      32.856  20.548 -21.159  0.00  0.00     0.026 A 
ATOM     11  C   UNL d   1      33.086  19.997 -21.729  0.00  0.00     0.099 A 
ENDROOT
BRANCH   1  12
ATOM     12  C   UNL d   1      32.417  23.441 -21.197  0.00  0.00     0.326 C 
ATOM     13  O   UNL d   1      31.631  23.692 -21.174  0.00  0.00    -0.261 OA
ENDBRANCH   1  12
TORSDOF 1
ENDMDL
MODEL 6
REMARK VINA RESULT:      -2.3      1.341      1.872
REMARK  1 active torsions:
REMARK  status: ('A' for Active; 'I' for Inactive)
REMARK    1  A    between atoms: C_6  and  N_1 
ROOT
ATOM      1  N   UNL d   1      31.076  16.618 -24.135  0.00  0.00    -0.204 N 
ATOM      2  C   UNL d   1      31.700  16.432 -23.623  0.00  0.00     0.271 A 
ATOM      3  C   UNL d   1      31.173  17.400 -24.390  0.00  0.00     0.270 A 
ATOM      4  C   UNL d   1      32.183  17.099 -23.562  0.00  0.00     0.080 A 
ATOM      5  C   UNL d   1      31.861  17.690 -24.030  0.00  0.00     0.064 A 
ATOM      6  O   UNL d   1      31.733  15.704 -23.299  0.00  0.00    -0.266 OA
ATOM      7  O   UNL d   1      30.678  17.811 -24.905  0.00  0.00    -0.266 OA
ATOM      8  N   UNL d   1      33.241  17.964 -23.182  0.00  0.00    -0.242 NA
ATOM      9  C   UNL d   1      32.872  17.227 -23.135  0.00  0.00     0.104 A 
ATOM     10  C   UNL d   1      32.232  18.423 -24.075  0.00  0.00     0.026 A 
ATOM     11  C   UNL d   1      32.925  18.563 -23.650  0.00  0.00     0.099 A 
ENDROOT
BRANCH   1  12
ATOM     12  C   UNL d   1      30.458  16.113 -24.356  0.00  0.00     0.326 C 
ATOM     13  O   UNL d   1      29.776  16.072 -23.893  0.00  0.00    -0.261 OA
ENDBRANCH   1  12
TORSDOF 1
ENDMDL
MODEL 7
REMARK VINA RESULT:      -2.0      1.323      2.089
REMARK  1 active torsions:
REMARK  status: ('A' for Active; 'I' for Inactive)
REMARK    1  A    between atoms: C_6  and  N_1 
ROOT
ATOM      1  N   UNL d   1      29.185  16.103 -23.377  0.00  0.00    -0.204 N 
ATOM      2  C   UNL d   1      28.524  16.550 -23.597  0.00  0.00     0.271 A 
ATOM      3  C   UNL d   1      29.850  16.417 -23.757  0.00  0.00     0.270 A 
ATOM      4  C   UNL d   1      28.781  17.141 -24.114  0.00  0.00     0.080 A 
ATOM      5  C   UNL d   1      29.590  17.059 -24.212  0.00  0.00     0.064 A 
ATOM      6  O   UNL d   1      27.809  16.358 -23.302  0.00  0.00    -0.266 OA
ATOM      7  O   UNL d   1      30.625  16.141 -23.695  0.00  0.00    -0.266 OA
ATOM      8  N   UNL d   1      28.778  18.254 -24.992  0.00  0.00    -0.242 NA
ATOM      9  C   UNL d   1      28.366  17.735 -24.500  0.00  0.00     0.104 A 
ATOM     10  C   UNL d   1      29.997  17.579 -24.704  0.00  0.00     0.026 A 
ATOM     11  C   UNL d   1      29.591  18.180 -25.097  0.00  0.00     0.099 A 
ENDROOT
BRANCH   1  12
ATOM     12  C   UNL d   1      29.187  15.453 -22.864  0.00  0.00     0.326 C 
ATOM     13  O   UNL d   1      29.477  15.537 -22.096  0.00  0.00    -0.261 OA
ENDBRANCH   1  12
TORSDOF 1
ENDMDL
MODEL 8
REMARK VINA RESULT:      -1.9      6.198      6.850
REMARK  1 active torsions:
REMARK  status: ('A' for Active; 'I' for Inactive)
REMARK    1  A    between atoms: C_6  and  N_1 
ROOT
ATOM      1  N   UNL d   1      32.568  21.774 -21.195  0.00  0.00    -0.204 N 
ATOM      2  C   UNL d   1      32.369  22.574 -21.273  0.00  0.00     0.271 A 
ATOM      3  C   UNL d   1      32.930  21.527 -21.897  0.00  0.00     0.270 A 
ATOM      4  C   UNL d   1      32.608  22.821 -22.024  0.00  0.00     0.080 A 
ATOM      5  C   UNL d   1      32.950  22.182 -22.405  0.00  0.00     0.064 A 
ATOM      6  O   UNL d   1      32.010  22.946 -20.665  0.00  0.00    -0.266 OA
ATOM      7  O   UNL d   1      33.215  20.771 -22.060  0.00  0.00    -0.266 OA
ATOM      8  N   UNL d   1      32.842  23.636 -23.161  0.00  0.00    -0.242 NA
ATOM      9  C   UNL d   1      32.549  23.552 -22.394  0.00  0.00     0.104 A 
ATOM     10  C   UNL d   1      33.241  22.269 -23.170  0.00  0.00     0.026 A 
ATOM     11  C   UNL d   1      33.188  22.999 -23.552  0.00  0.00     0.099 A 
ENDROOT
BRANCH   1  12
ATOM     12  C   UNL d   1      32.431  21.299 -20.531  0.00  0.00     0.326 C 
ATOM     13  O   UNL d   1      33.027  21.197 -19.970  0.00  0.00    -0.261 OA
ENDBRANCH   1  12
TORSDOF 1
ENDMDL
MODEL 9
REMARK VINA RESULT:      -1.7      4.039      4.887
REMARK  1 active torsions:
REMARK  status: ('A' for Active; 'I' for Inactive)
REMARK    1  A    between atoms: C_6  and  N_1 
ROOT
ATOM      1  N   UNL d   1      33.240  19.086 -23.269  0.00  0.00    -0.204 N 
ATOM      2  C   UNL d   1      33.239  19.105 -22.441  0.00  0.00     0.271 A 
ATOM      3  C   UNL d   1      33.240  19.866 -23.547  0.00  0.00     0.270 A 
ATOM      4  C   UNL d   1      33.239  19.897 -22.208  0.00  0.00     0.080 A 
ATOM      5  C   UNL d   1      33.239  20.362 -22.883  0.00  0.00     0.064 A 
ATOM      6  O   UNL d   1      33.239  18.417 -22.037  0.00  0.00    -0.266 OA
ATOM      7  O   UNL d   1      33.240  20.103 -24.336  0.00  0.00    -0.266 OA
ATOM      8  N   UNL d   1      33.238  21.060 -21.397  0.00  0.00    -0.242 NA
ATOM      9  C   UNL d   1      33.238  20.237 -21.460  0.00  0.00     0.104 A 
ATOM     10  C   UNL d   1      33.239  21.182 -22.815  0.00  0.00     0.026 A 
ATOM     11  C   UNL d   1      33.238  21.535 -22.069  0.00  0.00     0.099 A 
ENDROOT
BRANCH   1  12
ATOM     12  C   UNL d   1      33.240  18.407 -23.743  0.00  0.00     0.326 C 
ATOM     13  O   UNL d   1      32.540  18.158 -24.103  0.00  0.00    -0.261 OA
ENDBRANCH   1  12
TORSDOF 1
ENDMDL
