MODEL 1
REMARK VINA RESULT:      60.6      0.000      0.000
REMARK  5 active torsions:
REMARK  status: ('A' for Active; 'I' for Inactive)
REMARK    1  A    between atoms: N_10  and  C_4 
REMARK    2  A    between atoms: C_20  and  N_5 
REMARK    3  A    between atoms: C_12  and  S_19 
REMARK    4  A    between atoms: S_19  and  C_23 
REMARK    5  A    between atoms: C_23  and  C_20 
ROOT
ATOM      1  C   UNL d   1      15.250  15.530  -0.902  0.00  0.00     0.191 A 
ATOM      2  C   UNL d   1      14.746  15.501  -1.553  0.00  0.00     0.174 A 
ATOM      3  N   UNL d   1      15.299  14.771  -0.588  0.00  0.00    -0.042 NA
ATOM      4  C   UNL d   1      14.832  14.276  -1.039  0.00  0.00     0.722 A 
ATOM      5  N   UNL d   1      14.485  14.724  -1.642  0.00  0.00    -0.132 N 
ATOM      6  N   UNL d   1      15.597  16.245  -0.680  0.00  0.00    -0.239 N 
ATOM      7  C   UNL d   1      15.440  16.931  -1.111  0.00  0.00     0.358 A 
ATOM      8  N   UNL d   1      14.937  16.903  -1.763  0.00  0.00    -0.152 NA
ATOM      9  C   UNL d   1      14.589  16.187  -1.985  0.00  0.00     0.303 A 
ATOM     10  O   UNL d   1      15.790  17.646  -0.886  0.00  0.00    -0.244 OA
ATOM     11  O   UNL d   1      14.086  16.159  -2.636  0.00  0.00    -0.263 OA
ATOM     12  C   UNL d   1      16.095  16.273  -0.035  0.00  0.00     0.105 C 
ENDROOT
BRANCH   5  13
ATOM     13  C   UNL d   1      13.969  14.446  -2.228  0.00  0.00     0.105 C 
BRANCH  13  14
ATOM     14  C   UNL d   1      13.771  14.930  -2.872  0.00  0.00     0.058 C 
BRANCH  14  15
ATOM     15  S   UNL d   1      13.104  14.742  -3.340  0.00  0.00    -0.041 SA
BRANCH  15  16
ATOM     16  C   UNL d   1      13.168  14.141  -3.905  0.00  0.00     0.215 A 
ATOM     17  N   UNL d   1      12.829  13.408  -3.776  0.00  0.00    -0.214 NA
ATOM     18  C   UNL d   1      12.982  12.939  -4.421  0.00  0.00     0.107 A 
ATOM     19  C   UNL d   1      12.771  12.152  -4.582  0.00  0.00     0.021 A 
ATOM     20  C   UNL d   1      13.413  13.361  -4.959  0.00  0.00     0.120 A 
ATOM     21  C   UNL d   1      13.005  11.803  -5.297  0.00  0.00     0.002 A 
ATOM     22  C   UNL d   1      13.436  12.229  -5.833  0.00  0.00     0.002 A 
ATOM     23  C   UNL d   1      13.641  13.012  -5.664  0.00  0.00     0.026 A 
ATOM     24  O   UNL d   1      13.533  14.122  -4.638  0.00  0.00    -0.283 OA
ENDBRANCH  15  16
ENDBRANCH  14  15
ENDBRANCH  13  14
ENDBRANCH   5  13
BRANCH   4  25
ATOM     25  N   UNL d   1      14.748  13.474  -0.886  0.00  0.00    -0.139 N 
ATOM     26  C   UNL d   1      14.051  13.192  -0.554  0.00  0.00     0.098 A 
ATOM     27  C   UNL d   1      13.958  12.387  -0.397  0.00  0.00     0.018 A 
ATOM     28  C   UNL d   1      13.262  12.082  -0.062  0.00  0.00     0.002 C 
ATOM     29  C   UNL d   1      14.565  11.864  -0.575  0.00  0.00     0.003 A 
ATOM     30  C   UNL d   1      15.270  12.140  -0.910  0.00  0.00     0.020 A 
ATOM     31  C   UNL d   1      15.356  12.956  -1.065  0.00  0.00     0.098 A 
ENDBRANCH   4  25
TORSDOF 5
ENDMDL
