MODEL 1
REMARK VINA RESULT:      51.1      0.000      0.000
REMARK  5 active torsions:
REMARK  status: ('A' for Active; 'I' for Inactive)
REMARK    1  A    between atoms: C_2  and  C_1 
REMARK    2  A    between atoms: C_7  and  C_2 
REMARK    3  A    between atoms: C_9  and  N_3 
REMARK    4  A    between atoms: N_5  and  C_7 
REMARK    5  A    between atoms: O_24  and  C_20 
ROOT
ATOM      1  N   UNL d   1      13.572  14.868  -4.554  0.00  0.00    -0.301 N 
ATOM      2  N   UNL d   1      13.214  13.416  -3.838  0.00  0.00    -0.297 N 
ATOM      3  C   UNL d   1      12.953  14.406  -4.841  0.00  0.00     0.100 A 
ATOM      4  C   UNL d   1      14.012  14.604  -3.908  0.00  0.00     0.100 A 
ATOM      5  C   UNL d   1      12.771  13.676  -4.483  0.00  0.00     0.100 A 
ATOM      6  C   UNL d   1      13.829  13.880  -3.556  0.00  0.00     0.100 A 
ENDROOT
BRANCH   2   7
ATOM      7  C   UNL d   1      13.033  12.695  -3.486  0.00  0.00     0.123 C 
BRANCH   7   8
ATOM      8  C   UNL d   1      13.635  12.190  -3.237  0.00  0.00     0.216 C 
ATOM      9  O   UNL d   1      14.091  11.784  -3.792  0.00  0.00    -0.285 OA
BRANCH   8  10
ATOM     10  C   UNL d   1      13.784  12.087  -2.426  0.00  0.00     0.080 A 
ATOM     11  C   UNL d   1      14.545  12.096  -2.145  0.00  0.00     0.202 A 
ATOM     12  C   UNL d   1      14.695  11.995  -1.346  0.00  0.00     0.084 A 
ATOM     13  O   UNL d   1      15.172  12.210  -2.669  0.00  0.00    -0.286 OA
ATOM     14  C   UNL d   1      14.065  11.880  -0.813  0.00  0.00     0.199 A 
ATOM     15  C   UNL d   1      13.287  11.871  -1.102  0.00  0.00     0.042 A 
ATOM     16  O   UNL d   1      14.215  11.779  -0.014  0.00  0.00    -0.286 OA
ATOM     17  C   UNL d   1      13.142  11.973  -1.906  0.00  0.00     0.010 A 
ENDBRANCH   8  10
ENDBRANCH   7   8
ENDBRANCH   2   7
BRANCH   1  18
ATOM     18  C   UNL d   1      13.749  15.587  -4.908  0.00  0.00     0.064 A 
ATOM     19  C   UNL d   1      14.392  16.019  -4.650  0.00  0.00     0.020 A 
ATOM     20  C   UNL d   1      14.571  16.746  -5.009  0.00  0.00     0.026 A 
ATOM     21  C   UNL d   1      14.098  17.028  -5.624  0.00  0.00     0.094 A 
ATOM     22  C   UNL d   1      13.444  16.582  -5.882  0.00  0.00     0.026 A 
ATOM     23  C   UNL d   1      13.274  15.865  -5.522  0.00  0.00     0.020 A 
BRANCH  21  24
ATOM     24  O   UNL d   1      14.279  17.753  -5.980  0.00  0.00    -0.328 OA
ATOM     25  C   UNL d   1      13.764  18.390  -5.883  0.00  0.00     0.181 C 
ENDBRANCH  21  24
ENDBRANCH   1  18
TORSDOF 5
ENDMDL
MODEL 2
REMARK VINA RESULT:      51.9      1.805      6.253
REMARK  5 active torsions:
REMARK  status: ('A' for Active; 'I' for Inactive)
REMARK    1  A    between atoms: C_2  and  C_1 
REMARK    2  A    between atoms: C_7  and  C_2 
REMARK    3  A    between atoms: C_9  and  N_3 
REMARK    4  A    between atoms: N_5  and  C_7 
REMARK    5  A    between atoms: O_24  and  C_20 
ROOT
ATOM      1  N   UNL d   1      13.887  15.374  -4.901  0.00  0.00    -0.301 N 
ATOM      2  N   UNL d   1      14.370  16.849  -5.483  0.00  0.00    -0.297 N 
ATOM      3  C   UNL d   1      13.663  15.614  -5.656  0.00  0.00     0.100 A 
ATOM      4  C   UNL d   1      14.353  15.871  -4.436  0.00  0.00     0.100 A 
ATOM      5  C   UNL d   1      13.904  16.355  -5.952  0.00  0.00     0.100 A 
ATOM      6  C   UNL d   1      14.590  16.605  -4.732  0.00  0.00     0.100 A 
ENDROOT
BRANCH   2   7
ATOM      7  C   UNL d   1      14.607  17.580  -5.777  0.00  0.00     0.123 C 
BRANCH   7   8
ATOM      8  C   UNL d   1      14.049  18.124  -6.044  0.00  0.00     0.216 C 
ATOM      9  O   UNL d   1      13.338  17.860  -6.369  0.00  0.00    -0.285 OA
BRANCH   8  10
ATOM     10  C   UNL d   1      14.200  18.939  -5.987  0.00  0.00     0.080 A 
ATOM     11  C   UNL d   1      13.616  19.477  -6.157  0.00  0.00     0.202 A 
ATOM     12  C   UNL d   1      13.762  20.281  -6.102  0.00  0.00     0.084 A 
ATOM     13  O   UNL d   1      12.870  19.209  -6.388  0.00  0.00    -0.286 OA
ATOM     14  C   UNL d   1      14.514  20.555  -5.870  0.00  0.00     0.199 A 
ATOM     15  C   UNL d   1      15.110  20.003  -5.696  0.00  0.00     0.042 A 
ATOM     16  O   UNL d   1      14.660  21.359  -5.815  0.00  0.00    -0.286 OA
ATOM     17  C   UNL d   1      14.957  19.196  -5.753  0.00  0.00     0.010 A 
ENDBRANCH   8  10
ENDBRANCH   7   8
ENDBRANCH   2   7
BRANCH   1  18
ATOM     18  C   UNL d   1      13.648  14.644  -4.612  0.00  0.00     0.064 A 
ATOM     19  C   UNL d   1      13.389  14.067  -5.130  0.00  0.00     0.020 A 
ATOM     20  C   UNL d   1      13.147  13.329  -4.837  0.00  0.00     0.026 A 
ATOM     21  C   UNL d   1      13.170  13.181  -4.026  0.00  0.00     0.094 A 
ATOM     22  C   UNL d   1      13.436  13.774  -3.504  0.00  0.00     0.026 A 
ATOM     23  C   UNL d   1      13.673  14.501  -3.801  0.00  0.00     0.020 A 
BRANCH  21  24
ATOM     24  O   UNL d   1      12.929  12.444  -3.736  0.00  0.00    -0.328 OA
ATOM     25  C   UNL d   1      12.979  11.782  -4.225  0.00  0.00     0.181 C 
ENDBRANCH  21  24
ENDBRANCH   1  18
TORSDOF 5
ENDMDL
MODEL 3
REMARK VINA RESULT:      53.3      1.556      3.014
REMARK  5 active torsions:
REMARK  status: ('A' for Active; 'I' for Inactive)
REMARK    1  A    between atoms: C_2  and  C_1 
REMARK    2  A    between atoms: C_7  and  C_2 
REMARK    3  A    between atoms: C_9  and  N_3 
REMARK    4  A    between atoms: N_5  and  C_7 
REMARK    5  A    between atoms: O_24  and  C_20 
ROOT
ATOM      1  N   UNL d   1      14.259  17.525  -5.355  0.00  0.00    -0.301 N 
ATOM      2  N   UNL d   1      14.208  15.935  -4.888  0.00  0.00    -0.297 N 
ATOM      3  C   UNL d   1      14.023  16.945  -5.889  0.00  0.00     0.100 A 
ATOM      4  C   UNL d   1      14.469  17.312  -4.586  0.00  0.00     0.100 A 
ATOM      5  C   UNL d   1      13.997  16.144  -5.658  0.00  0.00     0.100 A 
ATOM      6  C   UNL d   1      14.442  16.518  -4.360  0.00  0.00     0.100 A 
ENDROOT
BRANCH   2   7
ATOM      7  C   UNL d   1      14.181  15.145  -4.661  0.00  0.00     0.123 C 
BRANCH   7   8
ATOM      8  C   UNL d   1      13.475  14.810  -4.400  0.00  0.00     0.216 C 
ATOM      9  O   UNL d   1      12.769  15.230  -4.465  0.00  0.00    -0.285 OA
BRANCH   8  10
ATOM     10  C   UNL d   1      13.473  14.047  -4.071  0.00  0.00     0.080 A 
ATOM     11  C   UNL d   1      13.125  13.430  -4.470  0.00  0.00     0.202 A 
ATOM     12  C   UNL d   1      13.121  12.677  -4.148  0.00  0.00     0.084 A 
ATOM     13  O   UNL d   1      12.773  13.565  -5.204  0.00  0.00    -0.286 OA
ATOM     14  C   UNL d   1      13.475  12.536  -3.407  0.00  0.00     0.199 A 
ATOM     15  C   UNL d   1      13.830  13.167  -3.001  0.00  0.00     0.042 A 
ATOM     16  O   UNL d   1      13.471  11.783  -3.086  0.00  0.00    -0.286 OA
ATOM     17  C   UNL d   1      13.831  13.923  -3.330  0.00  0.00     0.010 A 
ENDBRANCH   8  10
ENDBRANCH   7   8
ENDBRANCH   2   7
BRANCH   1  18
ATOM     18  C   UNL d   1      14.284  18.312  -5.586  0.00  0.00     0.064 A 
ATOM     19  C   UNL d   1      13.721  18.603  -6.101  0.00  0.00     0.020 A 
ATOM     20  C   UNL d   1      13.747  19.399  -6.334  0.00  0.00     0.026 A 
ATOM     21  C   UNL d   1      14.341  19.893  -6.044  0.00  0.00     0.094 A 
ATOM     22  C   UNL d   1      14.912  19.590  -5.519  0.00  0.00     0.026 A 
ATOM     23  C   UNL d   1      14.880  18.802  -5.293  0.00  0.00     0.020 A 
BRANCH  21  24
ATOM     24  O   UNL d   1      14.365  20.687  -6.278  0.00  0.00    -0.328 OA
ATOM     25  C   UNL d   1      15.034  21.138  -6.110  0.00  0.00     0.181 C 
ENDBRANCH  21  24
ENDBRANCH   1  18
TORSDOF 5
ENDMDL
