MODEL 1
REMARK VINA RESULT:      -7.0      0.000      0.000
REMARK  1 active torsions:
REMARK  status: ('A' for Active; 'I' for Inactive)
REMARK    1  A    between atoms: C_9  and  C_3 
ROOT
ATOM      1  C   UNL d   1     -47.715  12.803  22.972  0.00  0.00     0.171 A 
ATOM      2  N   UNL d   1     -46.989  13.171  23.108  0.00  0.00    -0.212 N 
ATOM      3  C   UNL d   1     -47.804  11.995  23.123  0.00  0.00     0.121 A 
ATOM      4  N   UNL d   1     -46.353  12.731  23.394  0.00  0.00    -0.162 NA
ATOM      5  N   UNL d   1     -48.352  13.239  22.687  0.00  0.00    -0.226 NA
ATOM      6  C   UNL d   1     -46.900  13.975  22.958  0.00  0.00     0.086 A 
ATOM      7  C   UNL d   1     -46.442  11.923  23.545  0.00  0.00     0.130 A 
ATOM      8  C   UNL d   1     -47.537  14.414  22.672  0.00  0.00     0.038 A 
ATOM      9  C   UNL d   1     -48.263  14.047  22.536  0.00  0.00     0.085 A 
ATOM     10  C   UNL d   1     -46.175  14.343  23.093  0.00  0.00     0.021 C 
ATOM     11  C   UNL d   1     -48.900  14.486  22.250  0.00  0.00     0.021 C 
ENDROOT
BRANCH   3  12
ATOM     12  C   UNL d   1     -48.429  11.458  23.055  0.00  0.00     0.215 C 
ATOM     13  O   UNL d   1     -48.551  11.062  22.340  0.00  0.00    -0.644 OA
ATOM     14  O   UNL d   1     -48.929  11.317  23.697  0.00  0.00    -0.644 OA
ENDBRANCH   3  12
TORSDOF 1
ENDMDL
MODEL 2
REMARK VINA RESULT:      -7.0      1.695      2.366
REMARK  1 active torsions:
REMARK  status: ('A' for Active; 'I' for Inactive)
REMARK    1  A    between atoms: C_9  and  C_3 
ROOT
ATOM      1  C   UNL d   1     -47.779  12.886  23.181  0.00  0.00     0.171 A 
ATOM      2  N   UNL d   1     -48.315  12.296  23.394  0.00  0.00    -0.212 N 
ATOM      3  C   UNL d   1     -46.965  12.741  23.223  0.00  0.00     0.121 A 
ATOM      4  N   UNL d   1     -48.039  11.562  23.649  0.00  0.00    -0.162 NA
ATOM      5  N   UNL d   1     -48.050  13.619  22.926  0.00  0.00    -0.226 NA
ATOM      6  C   UNL d   1     -49.124  12.440  23.352  0.00  0.00     0.086 A 
ATOM      7  C   UNL d   1     -47.226  11.417  23.691  0.00  0.00     0.130 A 
ATOM      8  C   UNL d   1     -49.400  13.175  23.097  0.00  0.00     0.038 A 
ATOM      9  C   UNL d   1     -48.864  13.764  22.884  0.00  0.00     0.085 A 
ATOM     10  C   UNL d   1     -49.660  11.851  23.564  0.00  0.00     0.021 C 
ATOM     11  C   UNL d   1     -49.139  14.499  22.629  0.00  0.00     0.021 C 
ENDROOT
BRANCH   3  12
ATOM     12  C   UNL d   1     -46.288  13.185  23.060  0.00  0.00     0.215 C 
ATOM     13  O   UNL d   1     -45.933  13.624  23.663  0.00  0.00    -0.644 OA
ATOM     14  O   UNL d   1     -45.967  13.190  22.299  0.00  0.00    -0.644 OA
ENDBRANCH   3  12
TORSDOF 1
ENDMDL
MODEL 3
REMARK VINA RESULT:      -6.9      1.418      2.410
REMARK  1 active torsions:
REMARK  status: ('A' for Active; 'I' for Inactive)
REMARK    1  A    between atoms: C_9  and  C_3 
ROOT
ATOM      1  C   UNL d   1     -47.639  12.967  23.101  0.00  0.00     0.171 A 
ATOM      2  N   UNL d   1     -46.926  12.579  23.250  0.00  0.00    -0.212 N 
ATOM      3  C   UNL d   1     -47.636  13.738  22.801  0.00  0.00     0.121 A 
ATOM      4  N   UNL d   1     -46.211  12.962  23.101  0.00  0.00    -0.162 NA
ATOM      5  N   UNL d   1     -48.354  12.588  23.249  0.00  0.00    -0.226 NA
ATOM      6  C   UNL d   1     -46.929  11.812  23.548  0.00  0.00     0.086 A 
ATOM      7  C   UNL d   1     -46.208  13.733  22.801  0.00  0.00     0.130 A 
ATOM      8  C   UNL d   1     -47.644  11.430  23.698  0.00  0.00     0.038 A 
ATOM      9  C   UNL d   1     -48.357  11.817  23.548  0.00  0.00     0.085 A 
ATOM     10  C   UNL d   1     -46.216  11.425  23.698  0.00  0.00     0.021 C 
ATOM     11  C   UNL d   1     -49.072  11.435  23.698  0.00  0.00     0.021 C 
ENDROOT
BRANCH   3  12
ATOM     12  C   UNL d   1     -48.223  14.281  22.591  0.00  0.00     0.215 C 
ATOM     13  O   UNL d   1     -48.525  14.278  21.822  0.00  0.00    -0.644 OA
ATOM     14  O   UNL d   1     -48.507  14.822  23.147  0.00  0.00    -0.644 OA
ENDBRANCH   3  12
TORSDOF 1
ENDMDL
MODEL 4
REMARK VINA RESULT:      -6.9      0.847      1.920
REMARK  1 active torsions:
REMARK  status: ('A' for Active; 'I' for Inactive)
REMARK    1  A    between atoms: C_9  and  C_3 
ROOT
ATOM      1  C   UNL d   1     -48.398  12.965  22.894  0.00  0.00     0.171 A 
ATOM      2  N   UNL d   1     -48.811  13.678  22.874  0.00  0.00    -0.212 N 
ATOM      3  C   UNL d   1     -48.809  12.249  22.940  0.00  0.00     0.121 A 
ATOM      4  N   UNL d   1     -49.636  13.676  22.900  0.00  0.00    -0.162 NA
ATOM      5  N   UNL d   1     -47.575  12.964  22.868  0.00  0.00    -0.226 NA
ATOM      6  C   UNL d   1     -48.402  14.391  22.829  0.00  0.00     0.086 A 
ATOM      7  C   UNL d   1     -50.047  12.960  22.946  0.00  0.00     0.130 A 
ATOM      8  C   UNL d   1     -47.578  14.393  22.803  0.00  0.00     0.038 A 
ATOM      9  C   UNL d   1     -47.164  13.680  22.822  0.00  0.00     0.085 A 
ATOM     10  C   UNL d   1     -48.816  15.104  22.809  0.00  0.00     0.021 C 
ATOM     11  C   UNL d   1     -46.340  13.682  22.796  0.00  0.00     0.021 C 
ENDROOT
BRANCH   3  12
ATOM     12  C   UNL d   1     -48.586  11.453  22.970  0.00  0.00     0.215 C 
ATOM     13  O   UNL d   1     -48.487  11.031  22.267  0.00  0.00    -0.644 OA
ATOM     14  O   UNL d   1     -48.464  11.083  23.698  0.00  0.00    -0.644 OA
ENDBRANCH   3  12
TORSDOF 1
ENDMDL
MODEL 5
REMARK VINA RESULT:      -6.7      1.681      2.920
REMARK  1 active torsions:
REMARK  status: ('A' for Active; 'I' for Inactive)
REMARK    1  A    between atoms: C_9  and  C_3 
ROOT
ATOM      1  C   UNL d   1     -47.612  13.126  23.063  0.00  0.00     0.171 A 
ATOM      2  N   UNL d   1     -48.404  13.331  22.961  0.00  0.00    -0.212 N 
ATOM      3  C   UNL d   1     -47.018  13.684  22.919  0.00  0.00     0.121 A 
ATOM      4  N   UNL d   1     -48.604  14.093  22.716  0.00  0.00    -0.162 NA
ATOM      5  N   UNL d   1     -47.409  12.367  23.308  0.00  0.00    -0.226 NA
ATOM      6  C   UNL d   1     -48.995  12.777  23.105  0.00  0.00     0.086 A 
ATOM      7  C   UNL d   1     -48.010  14.651  22.572  0.00  0.00     0.130 A 
ATOM      8  C   UNL d   1     -48.796  12.015  23.350  0.00  0.00     0.038 A 
ATOM      9  C   UNL d   1     -48.003  11.810  23.452  0.00  0.00     0.085 A 
ATOM     10  C   UNL d   1     -49.788  12.982  23.003  0.00  0.00     0.021 C 
ATOM     11  C   UNL d   1     -47.804  11.048  23.697  0.00  0.00     0.021 C 
ENDROOT
BRANCH   3  12
ATOM     12  C   UNL d   1     -46.193  13.676  22.961  0.00  0.00     0.215 C 
ATOM     13  O   UNL d   1     -45.819  13.824  23.683  0.00  0.00    -0.644 OA
ATOM     14  O   UNL d   1     -45.743  13.521  22.285  0.00  0.00    -0.644 OA
ENDBRANCH   3  12
TORSDOF 1
ENDMDL
MODEL 6
REMARK VINA RESULT:      -6.7      1.472      2.298
REMARK  1 active torsions:
REMARK  status: ('A' for Active; 'I' for Inactive)
REMARK    1  A    between atoms: C_9  and  C_3 
ROOT
ATOM      1  C   UNL d   1     -48.075  12.946  22.627  0.00  0.00     0.171 A 
ATOM      2  N   UNL d   1     -47.881  12.237  23.000  0.00  0.00    -0.212 N 
ATOM      3  C   UNL d   1     -48.828  13.051  22.302  0.00  0.00     0.121 A 
ATOM      4  N   UNL d   1     -48.440  11.632  23.049  0.00  0.00    -0.162 NA
ATOM      5  N   UNL d   1     -47.520  13.552  22.577  0.00  0.00    -0.226 NA
ATOM      6  C   UNL d   1     -47.132  12.132  23.324  0.00  0.00     0.086 A 
ATOM      7  C   UNL d   1     -49.193  11.737  22.723  0.00  0.00     0.130 A 
ATOM      8  C   UNL d   1     -46.573  12.737  23.276  0.00  0.00     0.038 A 
ATOM      9  C   UNL d   1     -46.767  13.447  22.902  0.00  0.00     0.085 A 
ATOM     10  C   UNL d   1     -46.938  11.423  23.697  0.00  0.00     0.021 C 
ATOM     11  C   UNL d   1     -46.208  14.052  22.854  0.00  0.00     0.021 C 
ENDROOT
BRANCH   3  12
ATOM     12  C   UNL d   1     -49.206  13.667  21.900  0.00  0.00     0.215 C 
ATOM     13  O   UNL d   1     -49.198  13.681  21.075  0.00  0.00    -0.644 OA
ATOM     14  O   UNL d   1     -49.589  14.265  22.322  0.00  0.00    -0.644 OA
ENDBRANCH   3  12
TORSDOF 1
ENDMDL
MODEL 7
REMARK VINA RESULT:      -5.4      9.412     10.334
REMARK  1 active torsions:
REMARK  status: ('A' for Active; 'I' for Inactive)
REMARK    1  A    between atoms: C_9  and  C_3 
ROOT
ATOM      1  C   UNL d   1     -39.441  13.969  17.469  0.00  0.00     0.171 A 
ATOM      2  N   UNL d   1     -39.102  14.285  16.787  0.00  0.00    -0.212 N 
ATOM      3  C   UNL d   1     -40.070  14.359  17.837  0.00  0.00     0.121 A 
ATOM      4  N   UNL d   1     -39.391  14.990  16.472  0.00  0.00    -0.162 NA
ATOM      5  N   UNL d   1     -39.154  13.266  17.786  0.00  0.00    -0.226 NA
ATOM      6  C   UNL d   1     -38.475  13.897  16.420  0.00  0.00     0.086 A 
ATOM      7  C   UNL d   1     -40.021  15.380  16.840  0.00  0.00     0.130 A 
ATOM      8  C   UNL d   1     -38.185  13.191  16.735  0.00  0.00     0.038 A 
ATOM      9  C   UNL d   1     -38.525  12.876  17.417  0.00  0.00     0.085 A 
ATOM     10  C   UNL d   1     -38.136  14.212  15.738  0.00  0.00     0.021 C 
ATOM     11  C   UNL d   1     -38.235  12.170  17.732  0.00  0.00     0.021 C 
ENDROOT
BRANCH   3  12
ATOM     12  C   UNL d   1     -40.532  14.212  18.507  0.00  0.00     0.215 C 
ATOM     13  O   UNL d   1     -41.213  13.750  18.439  0.00  0.00    -0.644 OA
ATOM     14  O   UNL d   1     -40.314  14.524  19.240  0.00  0.00    -0.644 OA
ENDBRANCH   3  12
TORSDOF 1
ENDMDL
MODEL 8
REMARK VINA RESULT:      -4.9      7.761      8.716
REMARK  1 active torsions:
REMARK  status: ('A' for Active; 'I' for Inactive)
REMARK    1  A    between atoms: C_9  and  C_3 
ROOT
ATOM      1  C   UNL d   1     -40.016  14.708  19.539  0.00  0.00     0.171 A 
ATOM      2  N   UNL d   1     -39.418  14.487  20.063  0.00  0.00    -0.212 N 
ATOM      3  C   UNL d   1     -39.994  14.449  18.754  0.00  0.00     0.121 A 
ATOM      4  N   UNL d   1     -38.799  14.009  19.802  0.00  0.00    -0.162 NA
ATOM      5  N   UNL d   1     -40.635  15.185  19.796  0.00  0.00    -0.226 NA
ATOM      6  C   UNL d   1     -39.440  14.744  20.844  0.00  0.00     0.086 A 
ATOM      7  C   UNL d   1     -38.777  13.750  19.017  0.00  0.00     0.130 A 
ATOM      8  C   UNL d   1     -40.059  15.223  21.105  0.00  0.00     0.038 A 
ATOM      9  C   UNL d   1     -40.657  15.443  20.581  0.00  0.00     0.085 A 
ATOM     10  C   UNL d   1     -38.842  14.524  21.368  0.00  0.00     0.021 C 
ATOM     11  C   UNL d   1     -41.276  15.922  20.841  0.00  0.00     0.021 C 
ENDROOT
BRANCH   3  12
ATOM     12  C   UNL d   1     -40.481  14.556  18.094  0.00  0.00     0.215 C 
ATOM     13  O   UNL d   1     -40.359  15.205  17.598  0.00  0.00    -0.644 OA
ATOM     14  O   UNL d   1     -41.086  14.018  17.933  0.00  0.00    -0.644 OA
ENDBRANCH   3  12
TORSDOF 1
ENDMDL
MODEL 9
REMARK VINA RESULT:      -4.7      8.582      9.389
REMARK  1 active torsions:
REMARK  status: ('A' for Active; 'I' for Inactive)
REMARK    1  A    between atoms: C_9  and  C_3 
ROOT
ATOM      1  C   UNL d   1     -40.065  14.583  18.097  0.00  0.00     0.171 A 
ATOM      2  N   UNL d   1     -39.441  14.403  17.589  0.00  0.00    -0.212 N 
ATOM      3  C   UNL d   1     -40.065  14.294  18.872  0.00  0.00     0.121 A 
ATOM      4  N   UNL d   1     -38.816  13.934  17.855  0.00  0.00    -0.162 NA
ATOM      5  N   UNL d   1     -40.690  15.050  17.835  0.00  0.00    -0.226 NA
ATOM      6  C   UNL d   1     -39.441  14.690  16.818  0.00  0.00     0.086 A 
ATOM      7  C   UNL d   1     -38.817  13.645  18.630  0.00  0.00     0.130 A 
ATOM      8  C   UNL d   1     -40.065  15.159  16.552  0.00  0.00     0.038 A 
ATOM      9  C   UNL d   1     -40.690  15.339  17.060  0.00  0.00     0.085 A 
ATOM     10  C   UNL d   1     -38.816  14.510  16.310  0.00  0.00     0.021 C 
ATOM     11  C   UNL d   1     -41.314  15.808  16.794  0.00  0.00     0.021 C 
ENDROOT
BRANCH   3  12
ATOM     12  C   UNL d   1     -40.581  14.358  19.515  0.00  0.00     0.215 C 
ATOM     13  O   UNL d   1     -40.479  14.972  20.059  0.00  0.00    -0.644 OA
ATOM     14  O   UNL d   1     -41.193  13.813  19.613  0.00  0.00    -0.644 OA
ENDBRANCH   3  12
TORSDOF 1
ENDMDL
