MODEL 1
REMARK VINA RESULT:      -8.2      0.000      0.000
REMARK  3 active torsions:
REMARK  status: ('A' for Active; 'I' for Inactive)
REMARK    1  A    between atoms: C_5  and  N_1 
REMARK    2  A    between atoms: C_11  and  C_3 
REMARK    3  A    between atoms: C_7  and  C_5 
ROOT
ATOM      1  N   UNL d   1     -48.509  12.768  22.604  0.00  0.00    -0.286 N 
ATOM      2  N   UNL d   1     -47.954  12.144  23.665  0.00  0.00    -0.224 NA
ATOM      3  C   UNL d   1     -48.657  12.241  23.226  0.00  0.00     0.191 A 
ATOM      4  C   UNL d   1     -47.710  13.004  22.650  0.00  0.00     0.083 A 
ATOM      5  C   UNL d   1     -47.373  12.618  23.304  0.00  0.00     0.099 A 
ATOM      6  C   UNL d   1     -47.241  13.517  22.188  0.00  0.00     0.019 A 
ATOM      7  C   UNL d   1     -46.569  12.743  23.499  0.00  0.00     0.021 A 
ATOM      8  C   UNL d   1     -46.448  13.640  22.379  0.00  0.00     0.002 A 
ATOM      9  C   UNL d   1     -46.112  13.254  23.033  0.00  0.00     0.002 A 
ENDROOT
BRANCH   1  10
ATOM     10  C   UNL d   1     -49.159  12.918  22.119  0.00  0.00     0.082 C 
BRANCH  10  11
ATOM     11  C   UNL d   1     -49.614  13.589  22.237  0.00  0.00     0.018 A 
ATOM     12  C   UNL d   1     -50.236  13.758  21.733  0.00  0.00     0.001 A 
ATOM     13  C   UNL d   1     -50.692  14.431  21.850  0.00  0.00     0.000 A 
ATOM     14  C   UNL d   1     -50.400  13.247  21.107  0.00  0.00     0.000 C 
ATOM     15  C   UNL d   1     -50.525  14.941  22.477  0.00  0.00     0.000 A 
ATOM     16  C   UNL d   1     -49.898  14.772  22.985  0.00  0.00     0.000 A 
ATOM     17  C   UNL d   1     -49.443  14.096  22.865  0.00  0.00     0.002 A 
ATOM     18  C   UNL d   1     -49.727  15.279  23.614  0.00  0.00     0.000 C 
ENDBRANCH  10  11
ENDBRANCH   1  10
BRANCH   3  19
ATOM     19  C   UNL d   1     -49.112  11.737  23.684  0.00  0.00     0.271 C 
ATOM     20  O   UNL d   1     -49.028  10.919  23.608  0.00  0.00    -0.280 OA
ENDBRANCH   3  19
TORSDOF 3
ENDMDL
MODEL 2
REMARK VINA RESULT:      -8.0      1.408      3.543
REMARK  3 active torsions:
REMARK  status: ('A' for Active; 'I' for Inactive)
REMARK    1  A    between atoms: C_5  and  N_1 
REMARK    2  A    between atoms: C_11  and  C_3 
REMARK    3  A    between atoms: C_7  and  C_5 
ROOT
ATOM      1  N   UNL d   1     -48.843  14.008  22.464  0.00  0.00    -0.286 N 
ATOM      2  N   UNL d   1     -50.078  14.275  22.941  0.00  0.00    -0.224 NA
ATOM      3  C   UNL d   1     -49.264  14.431  23.039  0.00  0.00     0.191 A 
ATOM      4  C   UNL d   1     -49.393  13.583  22.001  0.00  0.00     0.083 A 
ATOM      5  C   UNL d   1     -50.150  13.750  22.298  0.00  0.00     0.099 A 
ATOM      6  C   UNL d   1     -49.311  13.067  21.351  0.00  0.00     0.019 A 
ATOM      7  C   UNL d   1     -50.827  13.404  21.948  0.00  0.00     0.021 A 
ATOM      8  C   UNL d   1     -49.976  12.724  21.004  0.00  0.00     0.002 A 
ATOM      9  C   UNL d   1     -50.733  12.893  21.302  0.00  0.00     0.002 A 
ENDROOT
BRANCH   1  10
ATOM     10  C   UNL d   1     -48.026  14.109  22.494  0.00  0.00     0.082 C 
BRANCH  10  11
ATOM     11  C   UNL d   1     -47.552  13.534  22.836  0.00  0.00     0.018 A 
ATOM     12  C   UNL d   1     -46.748  13.660  22.921  0.00  0.00     0.001 A 
ATOM     13  C   UNL d   1     -46.272  13.084  23.263  0.00  0.00     0.000 A 
ATOM     14  C   UNL d   1     -46.420  14.370  22.660  0.00  0.00     0.000 C 
ATOM     15  C   UNL d   1     -46.604  12.375  23.523  0.00  0.00     0.000 A 
ATOM     16  C   UNL d   1     -47.414  12.246  23.438  0.00  0.00     0.000 A 
ATOM     17  C   UNL d   1     -47.887  12.825  23.094  0.00  0.00     0.002 A 
ATOM     18  C   UNL d   1     -47.750  11.537  23.696  0.00  0.00     0.000 C 
ENDBRANCH  10  11
ENDBRANCH   1  10
BRANCH   3  19
ATOM     19  C   UNL d   1     -49.352  14.936  23.677  0.00  0.00     0.271 C 
ATOM     20  O   UNL d   1     -49.691  15.681  23.572  0.00  0.00    -0.280 OA
ENDBRANCH   3  19
TORSDOF 3
ENDMDL
MODEL 3
REMARK VINA RESULT:      -7.2      1.270      2.908
REMARK  3 active torsions:
REMARK  status: ('A' for Active; 'I' for Inactive)
REMARK    1  A    between atoms: C_5  and  N_1 
REMARK    2  A    between atoms: C_11  and  C_3 
REMARK    3  A    between atoms: C_7  and  C_5 
ROOT
ATOM      1  N   UNL d   1     -48.238  12.371  22.327  0.00  0.00    -0.286 N 
ATOM      2  N   UNL d   1     -49.166  11.767  23.099  0.00  0.00    -0.224 NA
ATOM      3  C   UNL d   1     -48.350  11.924  23.015  0.00  0.00     0.191 A 
ATOM      4  C   UNL d   1     -48.984  12.497  21.975  0.00  0.00     0.083 A 
ATOM      5  C   UNL d   1     -49.551  12.125  22.454  0.00  0.00     0.099 A 
ATOM      6  C   UNL d   1     -49.227  12.900  21.286  0.00  0.00     0.019 A 
ATOM      7  C   UNL d   1     -50.362  12.152  22.247  0.00  0.00     0.021 A 
ATOM      8  C   UNL d   1     -50.026  12.928  21.080  0.00  0.00     0.002 A 
ATOM      9  C   UNL d   1     -50.592  12.555  21.560  0.00  0.00     0.002 A 
ENDROOT
BRANCH   1  10
ATOM     10  C   UNL d   1     -47.453  12.568  22.171  0.00  0.00     0.082 C 
BRANCH  10  11
ATOM     11  C   UNL d   1     -47.166  13.308  22.374  0.00  0.00     0.018 A 
ATOM     12  C   UNL d   1     -46.360  13.448  22.389  0.00  0.00     0.001 A 
ATOM     13  C   UNL d   1     -46.072  14.190  22.593  0.00  0.00     0.000 A 
ATOM     14  C   UNL d   1     -45.840  12.837  22.199  0.00  0.00     0.000 C 
ATOM     15  C   UNL d   1     -46.595  14.799  22.783  0.00  0.00     0.000 A 
ATOM     16  C   UNL d   1     -47.408  14.660  22.768  0.00  0.00     0.000 A 
ATOM     17  C   UNL d   1     -47.692  13.915  22.563  0.00  0.00     0.002 A 
ATOM     18  C   UNL d   1     -47.935  15.267  22.957  0.00  0.00     0.000 C 
ENDBRANCH  10  11
ENDBRANCH   1  10
BRANCH   3  19
ATOM     19  C   UNL d   1     -48.119  11.527  23.693  0.00  0.00     0.271 C 
ATOM     20  O   UNL d   1     -48.080  10.703  23.698  0.00  0.00    -0.280 OA
ENDBRANCH   3  19
TORSDOF 3
ENDMDL
MODEL 4
REMARK VINA RESULT:      -6.6      8.277     10.141
REMARK  3 active torsions:
REMARK  status: ('A' for Active; 'I' for Inactive)
REMARK    1  A    between atoms: C_5  and  N_1 
REMARK    2  A    between atoms: C_11  and  C_3 
REMARK    3  A    between atoms: C_7  and  C_5 
ROOT
ATOM      1  N   UNL d   1     -39.586  14.659  18.535  0.00  0.00    -0.286 N 
ATOM      2  N   UNL d   1     -40.046  14.065  17.413  0.00  0.00    -0.224 NA
ATOM      3  C   UNL d   1     -40.166  14.697  17.945  0.00  0.00     0.191 A 
ATOM      4  C   UNL d   1     -39.098  14.001  18.377  0.00  0.00     0.083 A 
ATOM      5  C   UNL d   1     -39.384  13.639  17.687  0.00  0.00     0.099 A 
ATOM      6  C   UNL d   1     -38.432  13.680  18.764  0.00  0.00     0.019 A 
ATOM      7  C   UNL d   1     -39.009  12.956  17.381  0.00  0.00     0.021 A 
ATOM      8  C   UNL d   1     -38.061  13.007  18.464  0.00  0.00     0.002 A 
ATOM      9  C   UNL d   1     -38.348  12.646  17.774  0.00  0.00     0.002 A 
ENDROOT
BRANCH   1  10
ATOM     10  C   UNL d   1     -39.635  15.254  19.103  0.00  0.00     0.082 C 
BRANCH  10  11
ATOM     11  C   UNL d   1     -39.892  15.079  19.862  0.00  0.00     0.018 A 
ATOM     12  C   UNL d   1     -39.518  15.410  20.510  0.00  0.00     0.001 A 
ATOM     13  C   UNL d   1     -39.774  15.235  21.270  0.00  0.00     0.000 A 
ATOM     14  C   UNL d   1     -38.881  15.922  20.392  0.00  0.00     0.000 C 
ATOM     15  C   UNL d   1     -40.411  14.723  21.384  0.00  0.00     0.000 A 
ATOM     16  C   UNL d   1     -40.789  14.388  20.732  0.00  0.00     0.000 A 
ATOM     17  C   UNL d   1     -40.529  14.567  19.972  0.00  0.00     0.002 A 
ATOM     18  C   UNL d   1     -41.427  13.875  20.842  0.00  0.00     0.000 C 
ENDBRANCH  10  11
ENDBRANCH   1  10
BRANCH   3  19
ATOM     19  C   UNL d   1     -40.819  15.007  17.559  0.00  0.00     0.271 C 
ATOM     20  O   UNL d   1     -40.725  15.414  16.848  0.00  0.00    -0.280 OA
ENDBRANCH   3  19
TORSDOF 3
ENDMDL
MODEL 5
REMARK VINA RESULT:      -6.0      8.303      9.934
REMARK  3 active torsions:
REMARK  status: ('A' for Active; 'I' for Inactive)
REMARK    1  A    between atoms: C_5  and  N_1 
REMARK    2  A    between atoms: C_11  and  C_3 
REMARK    3  A    between atoms: C_7  and  C_5 
ROOT
ATOM      1  N   UNL d   1     -40.053  15.041  19.822  0.00  0.00    -0.286 N 
ATOM      2  N   UNL d   1     -39.951  14.459  21.036  0.00  0.00    -0.224 NA
ATOM      3  C   UNL d   1     -40.431  14.536  20.358  0.00  0.00     0.191 A 
ATOM      4  C   UNL d   1     -39.331  15.286  20.163  0.00  0.00     0.083 A 
ATOM      5  C   UNL d   1     -39.273  14.925  20.908  0.00  0.00     0.099 A 
ATOM      6  C   UNL d   1     -38.717  15.786  19.898  0.00  0.00     0.019 A 
ATOM      7  C   UNL d   1     -38.603  15.062  21.393  0.00  0.00     0.021 A 
ATOM      8  C   UNL d   1     -38.057  15.922  20.374  0.00  0.00     0.002 A 
ATOM      9  C   UNL d   1     -38.000  15.561  21.119  0.00  0.00     0.002 A 
ENDROOT
BRANCH   1  10
ATOM     10  C   UNL d   1     -40.466  15.170  19.121  0.00  0.00     0.082 C 
BRANCH  10  11
ATOM     11  C   UNL d   1     -40.195  14.846  18.418  0.00  0.00     0.018 A 
ATOM     12  C   UNL d   1     -40.352  15.217  17.706  0.00  0.00     0.001 A 
ATOM     13  C   UNL d   1     -40.081  14.894  17.001  0.00  0.00     0.000 A 
ATOM     14  C   UNL d   1     -40.785  15.920  17.703  0.00  0.00     0.000 C 
ATOM     15  C   UNL d   1     -39.649  14.191  17.009  0.00  0.00     0.000 A 
ATOM     16  C   UNL d   1     -39.490  13.816  17.725  0.00  0.00     0.000 A 
ATOM     17  C   UNL d   1     -39.763  14.144  18.429  0.00  0.00     0.002 A 
ATOM     18  C   UNL d   1     -39.057  13.112  17.737  0.00  0.00     0.000 C 
ENDBRANCH  10  11
ENDBRANCH   1  10
BRANCH   3  19
ATOM     19  C   UNL d   1     -41.029  14.043  20.624  0.00  0.00     0.271 C 
ATOM     20  O   UNL d   1     -41.650  14.350  21.073  0.00  0.00    -0.280 OA
ENDBRANCH   3  19
TORSDOF 3
ENDMDL
MODEL 6
REMARK VINA RESULT:      -5.4      8.572     10.607
REMARK  3 active torsions:
REMARK  status: ('A' for Active; 'I' for Inactive)
REMARK    1  A    between atoms: C_5  and  N_1 
REMARK    2  A    between atoms: C_11  and  C_3 
REMARK    3  A    between atoms: C_7  and  C_5 
ROOT
ATOM      1  N   UNL d   1     -39.407  15.111  19.265  0.00  0.00    -0.286 N 
ATOM      2  N   UNL d   1     -39.074  15.253  20.566  0.00  0.00    -0.224 NA
ATOM      3  C   UNL d   1     -38.818  15.381  19.781  0.00  0.00     0.191 A 
ATOM      4  C   UNL d   1     -40.037  14.812  19.724  0.00  0.00     0.083 A 
ATOM      5  C   UNL d   1     -39.827  14.901  20.522  0.00  0.00     0.099 A 
ATOM      6  C   UNL d   1     -40.773  14.470  19.527  0.00  0.00     0.019 A 
ATOM      7  C   UNL d   1     -40.350  14.650  21.127  0.00  0.00     0.021 A 
ATOM      8  C   UNL d   1     -41.289  14.223  20.122  0.00  0.00     0.002 A 
ATOM      9  C   UNL d   1     -41.078  14.313  20.919  0.00  0.00     0.002 A 
ENDROOT
BRANCH   1  10
ATOM     10  C   UNL d   1     -39.230  15.202  18.465  0.00  0.00     0.082 C 
BRANCH  10  11
ATOM     11  C   UNL d   1     -39.053  14.548  18.005  0.00  0.00     0.018 A 
ATOM     12  C   UNL d   1     -39.304  14.510  17.227  0.00  0.00     0.001 A 
ATOM     13  C   UNL d   1     -39.127  13.854  16.766  0.00  0.00     0.000 A 
ATOM     14  C   UNL d   1     -39.737  15.137  16.912  0.00  0.00     0.000 C 
ATOM     15  C   UNL d   1     -38.693  13.229  17.085  0.00  0.00     0.000 A 
ATOM     16  C   UNL d   1     -38.439  13.265  17.869  0.00  0.00     0.000 A 
ATOM     17  C   UNL d   1     -38.619  13.924  18.328  0.00  0.00     0.002 A 
ATOM     18  C   UNL d   1     -38.005  12.641  18.192  0.00  0.00     0.000 C 
ENDBRANCH  10  11
ENDBRANCH   1  10
BRANCH   3  19
ATOM     19  C   UNL d   1     -38.098  15.715  19.982  0.00  0.00     0.271 C 
ATOM     20  O   UNL d   1     -37.941  15.922  20.765  0.00  0.00    -0.280 OA
ENDBRANCH   3  19
TORSDOF 3
ENDMDL
MODEL 7
REMARK VINA RESULT:      -5.4      9.592     11.255
REMARK  3 active torsions:
REMARK  status: ('A' for Active; 'I' for Inactive)
REMARK    1  A    between atoms: C_5  and  N_1 
REMARK    2  A    between atoms: C_11  and  C_3 
REMARK    3  A    between atoms: C_7  and  C_5 
ROOT
ATOM      1  N   UNL d   1     -39.569  15.607  17.511  0.00  0.00    -0.286 N 
ATOM      2  N   UNL d   1     -40.790  15.731  18.074  0.00  0.00    -0.224 NA
ATOM      3  C   UNL d   1     -40.382  15.623  17.354  0.00  0.00     0.191 A 
ATOM      4  C   UNL d   1     -39.463  15.706  18.333  0.00  0.00     0.083 A 
ATOM      5  C   UNL d   1     -40.216  15.781  18.674  0.00  0.00     0.099 A 
ATOM      6  C   UNL d   1     -38.786  15.737  18.819  0.00  0.00     0.019 A 
ATOM      7  C   UNL d   1     -40.296  15.889  19.501  0.00  0.00     0.021 A 
ATOM      8  C   UNL d   1     -38.863  15.843  19.634  0.00  0.00     0.002 A 
ATOM      9  C   UNL d   1     -39.616  15.919  19.974  0.00  0.00     0.002 A 
ENDROOT
BRANCH   1  10
ATOM     10  C   UNL d   1     -39.093  15.503  16.846  0.00  0.00     0.082 C 
BRANCH  10  11
ATOM     11  C   UNL d   1     -38.772  14.767  16.681  0.00  0.00     0.018 A 
ATOM     12  C   UNL d   1     -38.272  14.670  16.041  0.00  0.00     0.001 A 
ATOM     13  C   UNL d   1     -37.949  13.933  15.875  0.00  0.00     0.000 A 
ATOM     14  C   UNL d   1     -38.095  15.320  15.564  0.00  0.00     0.000 C 
ATOM     15  C   UNL d   1     -38.128  13.286  16.354  0.00  0.00     0.000 A 
ATOM     16  C   UNL d   1     -38.632  13.382  17.000  0.00  0.00     0.000 A 
ATOM     17  C   UNL d   1     -38.953  14.122  17.163  0.00  0.00     0.002 A 
ATOM     18  C   UNL d   1     -38.814  12.736  17.483  0.00  0.00     0.000 C 
ENDBRANCH  10  11
ENDBRANCH   1  10
BRANCH   3  19
ATOM     19  C   UNL d   1     -41.052  15.593  16.882  0.00  0.00     0.271 C 
ATOM     20  O   UNL d   1     -41.666  15.074  17.068  0.00  0.00    -0.280 OA
ENDBRANCH   3  19
TORSDOF 3
ENDMDL
