MODEL 1
REMARK VINA RESULT:      55.3      0.000      0.000
REMARK  3 active torsions:
REMARK  status: ('A' for Active; 'I' for Inactive)
REMARK    1  A    between atoms: C_2  and  C_1 
REMARK    2  A    between atoms: C_4  and  C_1 
REMARK       I    between atoms: N_3  and  C_2 
REMARK    3  A    between atoms: C_6  and  N_5 
ROOT
ATOM      1  C   UNL d   1      14.321  14.579  -1.415  0.00  0.00     0.253 C 
ATOM      2  N   UNL d   1      14.084  14.143  -2.072  0.00  0.00    -0.272 N 
ATOM      3  N   UNL d   1      13.565  13.353  -3.398  0.00  0.00    -0.299 N 
ATOM      4  O   UNL d   1      14.044  15.345  -1.307  0.00  0.00    -0.271 OA
ATOM      5  C   UNL d   1      13.571  14.502  -2.602  0.00  0.00     0.102 A 
ATOM      6  C   UNL d   1      14.334  13.391  -2.210  0.00  0.00     0.102 A 
ATOM      7  C   UNL d   1      13.309  14.117  -3.262  0.00  0.00     0.100 A 
ATOM      8  C   UNL d   1      14.078  12.985  -2.876  0.00  0.00     0.100 A 
ENDROOT
BRANCH   1   9
ATOM      9  C   UNL d   1      14.837  14.252  -0.859  0.00  0.00     0.137 A 
ATOM     10  C   UNL d   1      15.345  13.928  -0.311  0.00  0.00     0.018 A 
ATOM     11  C   UNL d   1      15.983  14.376  -0.019  0.00  0.00     0.119 A 
ATOM     12  O   UNL d   1      16.102  15.137  -0.279  0.00  0.00    -0.304 OA
ATOM     13  C   UNL d   1      15.589  15.467  -0.833  0.00  0.00     0.119 A 
ATOM     14  C   UNL d   1      14.954  15.025  -1.125  0.00  0.00     0.018 A 
BRANCH   9  15
ATOM     15  C   UNL d   1      14.715  13.477  -0.595  0.00  0.00     0.023 A 
ATOM     16  S   UNL d   1      14.038  13.182  -0.217  0.00  0.00    -0.090 SA
ATOM     17  C   UNL d   1      14.150  12.384  -0.050  0.00  0.00     0.035 A 
ATOM     18  C   UNL d   1      14.893  12.164  -0.317  0.00  0.00     0.007 A 
ATOM     19  C   UNL d   1      15.247  12.841  -0.656  0.00  0.00     0.004 A 
ENDBRANCH   9  15
ENDBRANCH   1   9
BRANCH   3  20
ATOM     20  C   UNL d   1      13.314  12.952  -4.054  0.00  0.00     0.092 A 
ATOM     21  C   UNL d   1      13.350  13.308  -4.794  0.00  0.00     0.156 A 
ATOM     22  F   UNL d   1      13.636  14.062  -4.873  0.00  0.00    -0.203 F 
ATOM     23  C   UNL d   1      13.096  12.904  -5.452  0.00  0.00     0.031 A 
ATOM     24  C   UNL d   1      12.803  12.137  -5.380  0.00  0.00     0.002 A 
ATOM     25  C   UNL d   1      12.769  11.782  -4.636  0.00  0.00     0.002 A 
ATOM     26  C   UNL d   1      13.026  12.193  -3.969  0.00  0.00     0.020 A 
ENDBRANCH   3  20
TORSDOF 3
ENDMDL
MODEL 2
REMARK VINA RESULT:      55.7      1.996      3.117
REMARK  3 active torsions:
REMARK  status: ('A' for Active; 'I' for Inactive)
REMARK    1  A    between atoms: C_2  and  C_1 
REMARK    2  A    between atoms: C_4  and  C_1 
REMARK       I    between atoms: N_3  and  C_2 
REMARK    3  A    between atoms: C_6  and  N_5 
ROOT
ATOM      1  C   UNL d   1      14.112  12.473  -2.025  0.00  0.00     0.253 C 
ATOM      2  N   UNL d   1      14.238  13.258  -2.242  0.00  0.00    -0.272 N 
ATOM      3  N   UNL d   1      14.471  14.785  -2.758  0.00  0.00    -0.299 N 
ATOM      4  O   UNL d   1      13.916  11.915  -2.595  0.00  0.00    -0.271 OA
ATOM      5  C   UNL d   1      14.161  13.450  -3.036  0.00  0.00     0.102 A 
ATOM      6  C   UNL d   1      14.432  13.831  -1.712  0.00  0.00     0.102 A 
ATOM      7  C   UNL d   1      14.275  14.205  -3.300  0.00  0.00     0.100 A 
ATOM      8  C   UNL d   1      14.551  14.604  -1.964  0.00  0.00     0.100 A 
ENDROOT
BRANCH   1   9
ATOM      9  C   UNL d   1      14.180  12.241  -1.236  0.00  0.00     0.137 A 
ATOM     10  C   UNL d   1      14.249  12.012  -0.457  0.00  0.00     0.018 A 
ATOM     11  C   UNL d   1      13.574  11.783  -0.029  0.00  0.00     0.119 A 
ATOM     12  O   UNL d   1      12.842  11.786  -0.386  0.00  0.00    -0.304 OA
ATOM     13  C   UNL d   1      12.770  12.018  -1.173  0.00  0.00     0.119 A 
ATOM     14  C   UNL d   1      13.439  12.246  -1.601  0.00  0.00     0.018 A 
BRANCH   9  15
ATOM     15  C   UNL d   1      14.925  12.238  -0.874  0.00  0.00     0.023 A 
ATOM     16  S   UNL d   1      15.139  12.632  -0.177  0.00  0.00    -0.090 SA
ATOM     17  C   UNL d   1      15.932  12.480  -0.015  0.00  0.00     0.035 A 
ATOM     18  C   UNL d   1      16.228  11.991  -0.603  0.00  0.00     0.007 A 
ATOM     19  C   UNL d   1      15.605  11.839  -1.138  0.00  0.00     0.004 A 
ENDBRANCH   9  15
ENDBRANCH   1   9
BRANCH   3  20
ATOM     20  C   UNL d   1      14.589  15.546  -3.005  0.00  0.00     0.092 A 
ATOM     21  C   UNL d   1      14.799  16.127  -2.462  0.00  0.00     0.156 A 
ATOM     22  F   UNL d   1      14.890  15.942  -1.678  0.00  0.00    -0.203 F 
ATOM     23  C   UNL d   1      14.917  16.892  -2.710  0.00  0.00     0.031 A 
ATOM     24  C   UNL d   1      14.826  17.087  -3.506  0.00  0.00     0.002 A 
ATOM     25  C   UNL d   1      14.615  16.502  -4.049  0.00  0.00     0.002 A 
ATOM     26  C   UNL d   1      14.496  15.727  -3.795  0.00  0.00     0.020 A 
ENDBRANCH   3  20
TORSDOF 3
ENDMDL
MODEL 3
REMARK VINA RESULT:      58.1      2.048      4.201
REMARK  3 active torsions:
REMARK  status: ('A' for Active; 'I' for Inactive)
REMARK    1  A    between atoms: C_2  and  C_1 
REMARK    2  A    between atoms: C_4  and  C_1 
REMARK       I    between atoms: N_3  and  C_2 
REMARK    3  A    between atoms: C_6  and  N_5 
ROOT
ATOM      1  C   UNL d   1      13.353  14.050  -3.856  0.00  0.00     0.253 C 
ATOM      2  N   UNL d   1      13.723  13.654  -3.236  0.00  0.00    -0.272 N 
ATOM      3  N   UNL d   1      14.415  12.928  -1.952  0.00  0.00    -0.299 N 
ATOM      4  O   UNL d   1      12.857  14.686  -3.700  0.00  0.00    -0.271 OA
ATOM      5  C   UNL d   1      13.577  13.918  -2.474  0.00  0.00     0.102 A 
ATOM      6  C   UNL d   1      14.215  13.027  -3.351  0.00  0.00     0.102 A 
ATOM      7  C   UNL d   1      13.916  13.565  -1.831  0.00  0.00     0.100 A 
ATOM      8  C   UNL d   1      14.568  12.656  -2.709  0.00  0.00     0.100 A 
ENDROOT
BRANCH   1   9
ATOM      9  C   UNL d   1      13.475  13.813  -4.637  0.00  0.00     0.137 A 
ATOM     10  C   UNL d   1      13.596  13.578  -5.408  0.00  0.00     0.018 A 
ATOM     11  C   UNL d   1      13.900  14.116  -5.964  0.00  0.00     0.119 A 
ATOM     12  O   UNL d   1      14.078  14.879  -5.743  0.00  0.00    -0.304 OA
ATOM     13  C   UNL d   1      13.957  15.118  -4.964  0.00  0.00     0.119 A 
ATOM     14  C   UNL d   1      13.655  14.586  -4.408  0.00  0.00     0.018 A 
BRANCH   9  15
ATOM     15  C   UNL d   1      13.294  13.038  -4.862  0.00  0.00     0.023 A 
ATOM     16  S   UNL d   1      13.540  12.652  -5.554  0.00  0.00    -0.090 SA
ATOM     17  C   UNL d   1      13.234  11.887  -5.557  0.00  0.00     0.035 A 
ATOM     18  C   UNL d   1      12.795  11.779  -4.874  0.00  0.00     0.007 A 
ATOM     19  C   UNL d   1      12.830  12.492  -4.440  0.00  0.00     0.004 A 
ENDBRANCH   9  15
ENDBRANCH   1   9
BRANCH   3  20
ATOM     20  C   UNL d   1      14.764  12.561  -1.322  0.00  0.00     0.092 A 
ATOM     21  C   UNL d   1      14.300  12.191  -0.753  0.00  0.00     0.156 A 
ATOM     22  F   UNL d   1      13.492  12.191  -0.818  0.00  0.00    -0.203 F 
ATOM     23  C   UNL d   1      14.651  11.822  -0.119  0.00  0.00     0.031 A 
ATOM     24  C   UNL d   1      15.472  11.818  -0.046  0.00  0.00     0.002 A 
ATOM     25  C   UNL d   1      15.936  12.190  -0.619  0.00  0.00     0.002 A 
ATOM     26  C   UNL d   1      15.577  12.564  -1.261  0.00  0.00     0.020 A 
ENDBRANCH   3  20
TORSDOF 3
ENDMDL
