MODEL 1
REMARK VINA RESULT:       0.5      0.000      0.000
REMARK  6 active torsions:
REMARK  status: ('A' for Active; 'I' for Inactive)
REMARK    1  A    between atoms: C_3  and  C_1 
REMARK    2  A    between atoms: C_7  and  C_2 
REMARK       I    between atoms: N_5  and  C_3 
REMARK    3  A    between atoms: C_6  and  N_5 
REMARK    4  A    between atoms: N_10  and  C_6 
REMARK    5  A    between atoms: C_11  and  N_10 
REMARK    6  A    between atoms: O_18  and  C_15 
ROOT
ATOM      1  C   UNL d   1      31.671  18.232 -24.401  0.00  0.00     0.285 C 
ATOM      2  N   UNL d   1      31.931  18.609 -23.725  0.00  0.00    -0.179 NA
ATOM      3  O   UNL d   1      32.114  18.302 -25.096  0.00  0.00    -0.265 OA
ENDROOT
BRANCH   1   4
ATOM      4  C   UNL d   1      30.986  17.786 -24.410  0.00  0.00     0.103 A 
ATOM      5  C   UNL d   1      30.955  16.966 -24.320  0.00  0.00     0.116 A 
ATOM      6  N   UNL d   1      30.165  16.742 -24.363  0.00  0.00    -0.126 NA
ATOM      7  O   UNL d   1      29.708  17.419 -24.481  0.00  0.00    -0.211 OA
ATOM      8  C   UNL d   1      30.218  18.051 -24.508  0.00  0.00     0.131 A 
ATOM      9  C   UNL d   1      29.998  18.832 -24.617  0.00  0.00     0.029 C 
BRANCH   5  10
ATOM     10  C   UNL d   1      31.596  16.464 -24.206  0.00  0.00     0.031 A 
ATOM     11  C   UNL d   1      31.627  15.981 -23.544  0.00  0.00     0.059 A 
ATOM     12 CL   UNL d   1      31.018  16.001 -22.995  0.00  0.00    -0.082 Cl
ATOM     13  C   UNL d   1      32.266  15.485 -23.435  0.00  0.00     0.011 A 
ATOM     14  C   UNL d   1      32.882  15.464 -23.988  0.00  0.00     0.001 A 
ATOM     15  C   UNL d   1      32.843  15.951 -24.649  0.00  0.00     0.000 A 
ATOM     16  C   UNL d   1      32.201  16.458 -24.769  0.00  0.00     0.002 A 
ENDBRANCH   5  10
ENDBRANCH   1   4
BRANCH   2  17
ATOM     17  C   UNL d   1      32.616  19.054 -23.715  0.00  0.00     0.224 C 
ATOM     18  S   UNL d   1      32.896  19.375 -24.424  0.00  0.00    -0.037 SA
BRANCH  17  19
ATOM     19  N   UNL d   1      33.028  19.189 -23.018  0.00  0.00    -0.215 NA
BRANCH  19  20
ATOM     20  C   UNL d   1      33.065  19.946 -22.711  0.00  0.00     0.106 A 
ATOM     21  C   UNL d   1      33.168  20.055 -21.889  0.00  0.00     0.112 A 
ATOM     22  C   UNL d   1      33.206  20.820 -21.578  0.00  0.00     0.026 A 
ATOM     23  C   UNL d   1      33.142  21.473 -22.079  0.00  0.00     0.002 A 
ATOM     24  C   UNL d   1      33.040  21.371 -22.894  0.00  0.00     0.002 A 
ATOM     25  C   UNL d   1      33.002  20.607 -23.208  0.00  0.00     0.021 A 
BRANCH  21  26
ATOM     26  O   UNL d   1      33.230  19.401 -21.397  0.00  0.00    -0.327 OA
ATOM     27  C   UNL d   1      33.208  19.499 -20.583  0.00  0.00     0.181 C 
ENDBRANCH  21  26
ENDBRANCH  19  20
ENDBRANCH  17  19
ENDBRANCH   2  17
TORSDOF 6
ENDMDL
MODEL 2
REMARK VINA RESULT:       2.4      1.885      5.135
REMARK  6 active torsions:
REMARK  status: ('A' for Active; 'I' for Inactive)
REMARK    1  A    between atoms: C_3  and  C_1 
REMARK    2  A    between atoms: C_7  and  C_2 
REMARK       I    between atoms: N_5  and  C_3 
REMARK    3  A    between atoms: C_6  and  N_5 
REMARK    4  A    between atoms: N_10  and  C_6 
REMARK    5  A    between atoms: C_11  and  N_10 
REMARK    6  A    between atoms: O_18  and  C_15 
ROOT
ATOM      1  C   UNL d   1      32.948  20.469 -22.610  0.00  0.00     0.285 C 
ATOM      2  N   UNL d   1      32.596  19.737 -22.696  0.00  0.00    -0.179 NA
ATOM      3  O   UNL d   1      33.235  20.858 -23.281  0.00  0.00    -0.265 OA
ENDROOT
BRANCH   1   4
ATOM      4  C   UNL d   1      33.026  20.827 -21.880  0.00  0.00     0.103 A 
ATOM      5  C   UNL d   1      32.981  21.641 -21.745  0.00  0.00     0.116 A 
ATOM      6  N   UNL d   1      33.088  21.765 -20.939  0.00  0.00    -0.126 NA
ATOM      7  O   UNL d   1      33.198  21.033 -20.575  0.00  0.00    -0.211 OA
ATOM      8  C   UNL d   1      33.159  20.467 -21.157  0.00  0.00     0.131 A 
ATOM      9  C   UNL d   1      33.239  19.661 -21.039  0.00  0.00     0.029 C 
BRANCH   5  10
ATOM     10  C   UNL d   1      32.853  22.221 -22.313  0.00  0.00     0.031 A 
ATOM     11  C   UNL d   1      32.352  22.850 -22.152  0.00  0.00     0.059 A 
ATOM     12 CL   UNL d   1      31.979  22.899 -21.423  0.00  0.00    -0.082 Cl
ATOM     13  C   UNL d   1      32.228  23.424 -22.719  0.00  0.00     0.011 A 
ATOM     14  C   UNL d   1      32.604  23.377 -23.455  0.00  0.00     0.001 A 
ATOM     15  C   UNL d   1      33.105  22.743 -23.609  0.00  0.00     0.000 A 
ATOM     16  C   UNL d   1      33.237  22.156 -23.042  0.00  0.00     0.002 A 
ENDBRANCH   5  10
ENDBRANCH   1   4
BRANCH   2  17
ATOM     17  C   UNL d   1      32.518  19.379 -23.426  0.00  0.00     0.224 C 
ATOM     18  S   UNL d   1      33.105  19.498 -23.996  0.00  0.00    -0.037 SA
BRANCH  17  19
ATOM     19  N   UNL d   1      31.871  18.906 -23.604  0.00  0.00    -0.215 NA
BRANCH  19  20
ATOM     20  C   UNL d   1      31.971  18.098 -23.680  0.00  0.00     0.106 A 
ATOM     21  C   UNL d   1      31.351  17.632 -23.992  0.00  0.00     0.112 A 
ATOM     22  C   UNL d   1      31.452  16.815 -24.069  0.00  0.00     0.026 A 
ATOM     23  C   UNL d   1      32.161  16.463 -23.838  0.00  0.00     0.002 A 
ATOM     24  C   UNL d   1      32.778  16.919 -23.528  0.00  0.00     0.002 A 
ATOM     25  C   UNL d   1      32.681  17.737 -23.450  0.00  0.00     0.021 A 
BRANCH  21  26
ATOM     26  O   UNL d   1      30.649  17.990 -24.219  0.00  0.00    -0.327 OA
ATOM     27  C   UNL d   1      30.065  17.545 -24.587  0.00  0.00     0.181 C 
ENDBRANCH  21  26
ENDBRANCH  19  20
ENDBRANCH  17  19
ENDBRANCH   2  17
TORSDOF 6
ENDMDL
MODEL 3
REMARK VINA RESULT:       2.7      2.124      5.251
REMARK  6 active torsions:
REMARK  status: ('A' for Active; 'I' for Inactive)
REMARK    1  A    between atoms: C_3  and  C_1 
REMARK    2  A    between atoms: C_7  and  C_2 
REMARK       I    between atoms: N_5  and  C_3 
REMARK    3  A    between atoms: C_6  and  N_5 
REMARK    4  A    between atoms: N_10  and  C_6 
REMARK    5  A    between atoms: C_11  and  N_10 
REMARK    6  A    between atoms: O_18  and  C_15 
ROOT
ATOM      1  C   UNL d   1      32.700  20.738 -21.840  0.00  0.00     0.285 C 
ATOM      2  N   UNL d   1      33.241  20.282 -22.248  0.00  0.00    -0.179 NA
ATOM      3  O   UNL d   1      31.937  20.830 -22.148  0.00  0.00    -0.265 OA
ENDROOT
BRANCH   1   4
ATOM      4  C   UNL d   1      32.890  21.106 -21.136  0.00  0.00     0.103 A 
ATOM      5  C   UNL d   1      32.908  21.924 -21.019  0.00  0.00     0.116 A 
ATOM      6  N   UNL d   1      33.124  22.058 -20.237  0.00  0.00    -0.126 NA
ATOM      7  O   UNL d   1      33.241  21.328 -19.870  0.00  0.00    -0.211 OA
ATOM      8  C   UNL d   1      33.095  20.754 -20.426  0.00  0.00     0.131 A 
ATOM      9  C   UNL d   1      33.147  19.947 -20.297  0.00  0.00     0.029 C 
BRANCH   5  10
ATOM     10  C   UNL d   1      32.739  22.499 -21.582  0.00  0.00     0.031 A 
ATOM     11  C   UNL d   1      32.129  23.031 -21.455  0.00  0.00     0.059 A 
ATOM     12 CL   UNL d   1      31.687  22.989 -20.765  0.00  0.00    -0.082 Cl
ATOM     13  C   UNL d   1      31.966  23.600 -22.017  0.00  0.00     0.011 A 
ATOM     14  C   UNL d   1      32.411  23.645 -22.713  0.00  0.00     0.001 A 
ATOM     15  C   UNL d   1      33.021  23.107 -22.833  0.00  0.00     0.000 A 
ATOM     16  C   UNL d   1      33.195  22.527 -22.271  0.00  0.00     0.002 A 
ENDBRANCH   5  10
ENDBRANCH   1   4
BRANCH   2  17
ATOM     17  C   UNL d   1      33.050  19.914 -22.952  0.00  0.00     0.224 C 
ATOM     18  S   UNL d   1      33.014  20.365 -23.645  0.00  0.00    -0.037 SA
BRANCH  17  19
ATOM     19  N   UNL d   1      32.894  19.109 -22.985  0.00  0.00    -0.215 NA
BRANCH  19  20
ATOM     20  C   UNL d   1      32.623  18.779 -23.682  0.00  0.00     0.106 A 
ATOM     21  C   UNL d   1      32.343  17.991 -23.686  0.00  0.00     0.112 A 
ATOM     22  C   UNL d   1      32.069  17.657 -24.391  0.00  0.00     0.026 A 
ATOM     23  C   UNL d   1      32.072  18.100 -25.087  0.00  0.00     0.002 A 
ATOM     24  C   UNL d   1      32.348  18.880 -25.089  0.00  0.00     0.002 A 
ATOM     25  C   UNL d   1      32.623  19.218 -24.386  0.00  0.00     0.021 A 
BRANCH  21  26
ATOM     26  O   UNL d   1      32.343  17.557 -22.990  0.00  0.00    -0.327 OA
ATOM     27  C   UNL d   1      31.912  16.860 -22.943  0.00  0.00     0.181 C 
ENDBRANCH  21  26
ENDBRANCH  19  20
ENDBRANCH  17  19
ENDBRANCH   2  17
TORSDOF 6
ENDMDL
MODEL 4
REMARK VINA RESULT:       2.8      1.049      2.212
REMARK  6 active torsions:
REMARK  status: ('A' for Active; 'I' for Inactive)
REMARK    1  A    between atoms: C_3  and  C_1 
REMARK    2  A    between atoms: C_7  and  C_2 
REMARK       I    between atoms: N_5  and  C_3 
REMARK    3  A    between atoms: C_6  and  N_5 
REMARK    4  A    between atoms: N_10  and  C_6 
REMARK    5  A    between atoms: C_11  and  N_10 
REMARK    6  A    between atoms: O_18  and  C_15 
ROOT
ATOM      1  C   UNL d   1      31.401  17.460 -24.385  0.00  0.00     0.285 C 
ATOM      2  N   UNL d   1      31.955  17.624 -23.807  0.00  0.00    -0.179 NA
ATOM      3  O   UNL d   1      31.247  18.028 -24.966  0.00  0.00    -0.265 OA
ENDROOT
BRANCH   1   4
ATOM      4  C   UNL d   1      30.994  16.752 -24.404  0.00  0.00     0.103 A 
ATOM      5  C   UNL d   1      30.172  16.679 -24.446  0.00  0.00     0.116 A 
ATOM      6  N   UNL d   1      29.994  15.877 -24.454  0.00  0.00    -0.126 NA
ATOM      7  O   UNL d   1      30.702  15.453 -24.416  0.00  0.00    -0.211 OA
ATOM      8  C   UNL d   1      31.305  15.996 -24.386  0.00  0.00     0.131 A 
ATOM      9  C   UNL d   1      32.103  15.813 -24.345  0.00  0.00     0.029 C 
BRANCH   5  10
ATOM     10  C   UNL d   1      29.631  17.297 -24.476  0.00  0.00     0.031 A 
ATOM     11  C   UNL d   1      28.985  17.301 -23.971  0.00  0.00     0.059 A 
ATOM     12 CL   UNL d   1      28.880  16.687 -23.437  0.00  0.00    -0.082 Cl
ATOM     13  C   UNL d   1      28.450  17.916 -24.004  0.00  0.00     0.011 A 
ATOM     14  C   UNL d   1      28.553  18.537 -24.542  0.00  0.00     0.001 A 
ATOM     15  C   UNL d   1      29.204  18.525 -25.045  0.00  0.00     0.000 A 
ATOM     16  C   UNL d   1      29.752  17.907 -25.020  0.00  0.00     0.002 A 
ENDBRANCH   5  10
ENDBRANCH   1   4
BRANCH   2  17
ATOM     17  C   UNL d   1      32.362  18.332 -23.788  0.00  0.00     0.224 C 
ATOM     18  S   UNL d   1      32.569  18.696 -24.501  0.00  0.00    -0.037 SA
BRANCH  17  19
ATOM     19  N   UNL d   1      32.568  18.687 -23.077  0.00  0.00    -0.215 NA
BRANCH  19  20
ATOM     20  C   UNL d   1      32.791  19.474 -23.069  0.00  0.00     0.106 A 
ATOM     21  C   UNL d   1      32.839  19.883 -22.341  0.00  0.00     0.112 A 
ATOM     22  C   UNL d   1      33.065  20.678 -22.333  0.00  0.00     0.026 A 
ATOM     23  C   UNL d   1      33.241  21.065 -23.040  0.00  0.00     0.002 A 
ATOM     24  C   UNL d   1      33.194  20.665 -23.763  0.00  0.00     0.002 A 
ATOM     25  C   UNL d   1      32.969  19.870 -23.775  0.00  0.00     0.021 A 
BRANCH  21  26
ATOM     26  O   UNL d   1      32.663  19.491 -21.642  0.00  0.00    -0.327 OA
ATOM     27  C   UNL d   1      33.237  19.416 -21.060  0.00  0.00     0.181 C 
ENDBRANCH  21  26
ENDBRANCH  19  20
ENDBRANCH  17  19
ENDBRANCH   2  17
TORSDOF 6
ENDMDL
MODEL 5
REMARK VINA RESULT:       2.9      2.079      5.020
REMARK  6 active torsions:
REMARK  status: ('A' for Active; 'I' for Inactive)
REMARK    1  A    between atoms: C_3  and  C_1 
REMARK    2  A    between atoms: C_7  and  C_2 
REMARK       I    between atoms: N_5  and  C_3 
REMARK    3  A    between atoms: C_6  and  N_5 
REMARK    4  A    between atoms: N_10  and  C_6 
REMARK    5  A    between atoms: C_11  and  N_10 
REMARK    6  A    between atoms: O_18  and  C_15 
ROOT
ATOM      1  C   UNL d   1      32.726  20.656 -22.780  0.00  0.00     0.285 C 
ATOM      2  N   UNL d   1      33.232  20.065 -23.029  0.00  0.00    -0.179 NA
ATOM      3  O   UNL d   1      32.005  20.448 -22.434  0.00  0.00    -0.265 OA
ENDROOT
BRANCH   1   4
ATOM      4  C   UNL d   1      32.913  21.447 -22.863  0.00  0.00     0.103 A 
ATOM      5  C   UNL d   1      32.971  21.987 -22.241  0.00  0.00     0.116 A 
ATOM      6  N   UNL d   1      33.169  22.717 -22.563  0.00  0.00    -0.126 NA
ATOM      7  O   UNL d   1      33.234  22.631 -23.382  0.00  0.00    -0.211 OA
ATOM      8  C   UNL d   1      33.076  21.853 -23.554  0.00  0.00     0.131 A 
ATOM      9  C   UNL d   1      33.079  21.525 -24.305  0.00  0.00     0.029 C 
BRANCH   5  10
ATOM     10  C   UNL d   1      32.853  21.824 -21.444  0.00  0.00     0.031 A 
ATOM     11  C   UNL d   1      32.386  22.321 -20.988  0.00  0.00     0.059 A 
ATOM     12 CL   UNL d   1      32.038  22.981 -21.330  0.00  0.00    -0.082 Cl
ATOM     13  C   UNL d   1      32.272  22.156 -20.197  0.00  0.00     0.011 A 
ATOM     14  C   UNL d   1      32.623  21.491 -19.850  0.00  0.00     0.001 A 
ATOM     15  C   UNL d   1      33.089  20.998 -20.314  0.00  0.00     0.000 A 
ATOM     16  C   UNL d   1      33.212  21.156 -21.116  0.00  0.00     0.002 A 
ENDBRANCH   5  10
ENDBRANCH   1   4
BRANCH   2  17
ATOM     17  C   UNL d   1      33.045  19.274 -22.946  0.00  0.00     0.224 C 
ATOM     18  S   UNL d   1      33.235  18.888 -22.240  0.00  0.00    -0.037 SA
BRANCH  17  19
ATOM     19  N   UNL d   1      32.674  18.857 -23.548  0.00  0.00    -0.215 NA
BRANCH  19  20
ATOM     20  C   UNL d   1      32.690  18.039 -23.542  0.00  0.00     0.106 A 
ATOM     21  C   UNL d   1      32.215  17.612 -24.081  0.00  0.00     0.112 A 
ATOM     22  C   UNL d   1      32.231  16.785 -24.075  0.00  0.00     0.026 A 
ATOM     23  C   UNL d   1      32.715  16.385 -23.539  0.00  0.00     0.002 A 
ATOM     24  C   UNL d   1      33.187  16.803 -23.003  0.00  0.00     0.002 A 
ATOM     25  C   UNL d   1      33.174  17.630 -23.006  0.00  0.00     0.021 A 
BRANCH  21  26
ATOM     26  O   UNL d   1      31.737  18.016 -24.610  0.00  0.00    -0.327 OA
ATOM     27  C   UNL d   1      31.081  17.644 -24.935  0.00  0.00     0.181 C 
ENDBRANCH  21  26
ENDBRANCH  19  20
ENDBRANCH  17  19
ENDBRANCH   2  17
TORSDOF 6
ENDMDL
