MODEL 1
REMARK VINA RESULT:      -9.8      0.000      0.000
REMARK  0 active torsions:
REMARK  status: ('A' for Active; 'I' for Inactive)
ROOT
ATOM      1  N   UNL d   1      53.151  32.571  53.544  0.00  0.00    -0.273 N 
ATOM      2  C   UNL d   1      53.685  32.216  54.043  0.00  0.00     0.068 A 
ATOM      3  C   UNL d   1      52.749  32.116  52.977  0.00  0.00     0.265 A 
ATOM      4  C   UNL d   1      54.082  32.672  54.603  0.00  0.00     0.035 A 
ATOM      5  C   UNL d   1      53.009  33.385  53.601  0.00  0.00     0.085 A 
ATOM      6  C   UNL d   1      53.822  31.404  53.979  0.00  0.00     0.018 A 
ATOM      7  N   UNL d   1      54.330  34.034  55.238  0.00  0.00    -0.242 NA
ATOM      8  C   UNL d   1      53.945  33.484  54.666  0.00  0.00     0.006 A 
ATOM      9  C   UNL d   1      53.411  33.838  54.167  0.00  0.00     0.037 A 
ATOM     10  C   UNL d   1      53.424  30.945  53.417  0.00  0.00     0.006 A 
ATOM     11  C   UNL d   1      52.890  31.299  52.919  0.00  0.00     0.061 A 
ATOM     12  O   UNL d   1      52.214  32.476  52.479  0.00  0.00    -0.267 OA
ATOM     13  C   UNL d   1      54.469  33.141  55.157  0.00  0.00     0.100 A 
ATOM     14  C   UNL d   1      53.779  34.337  54.707  0.00  0.00     0.100 A 
ENDROOT
TORSDOF 0
ENDMDL
MODEL 2
REMARK VINA RESULT:      -9.4      1.176      2.551
REMARK  0 active torsions:
REMARK  status: ('A' for Active; 'I' for Inactive)
ROOT
ATOM      1  N   UNL d   1      53.436  33.571  54.237  0.00  0.00    -0.273 N 
ATOM      2  C   UNL d   1      53.866  32.883  54.218  0.00  0.00     0.068 A 
ATOM      3  C   UNL d   1      53.677  34.196  54.728  0.00  0.00     0.265 A 
ATOM      4  C   UNL d   1      53.623  32.265  53.730  0.00  0.00     0.035 A 
ATOM      5  C   UNL d   1      52.758  33.649  53.768  0.00  0.00     0.085 A 
ATOM      6  C   UNL d   1      54.541  32.813  54.689  0.00  0.00     0.018 A 
ATOM      7  N   UNL d   1      52.627  31.720  52.714  0.00  0.00    -0.242 NA
ATOM      8  C   UNL d   1      52.948  32.335  53.259  0.00  0.00     0.006 A 
ATOM      9  C   UNL d   1      52.517  33.024  53.278  0.00  0.00     0.037 A 
ATOM     10  C   UNL d   1      54.787  33.432  55.181  0.00  0.00     0.006 A 
ATOM     11  C   UNL d   1      54.357  34.120  55.200  0.00  0.00     0.061 A 
ATOM     12  O   UNL d   1      53.242  34.886  54.744  0.00  0.00    -0.267 OA
ATOM     13  C   UNL d   1      53.366  31.658  53.236  0.00  0.00     0.100 A 
ATOM     14  C   UNL d   1      52.232  32.440  52.775  0.00  0.00     0.100 A 
ENDROOT
TORSDOF 0
ENDMDL
MODEL 3
REMARK VINA RESULT:      -9.3      0.849      1.850
REMARK  0 active torsions:
REMARK  status: ('A' for Active; 'I' for Inactive)
ROOT
ATOM      1  N   UNL d   1      52.875  33.177  53.476  0.00  0.00    -0.273 N 
ATOM      2  C   UNL d   1      52.991  33.912  53.801  0.00  0.00     0.068 A 
ATOM      3  C   UNL d   1      52.315  33.076  52.870  0.00  0.00     0.265 A 
ATOM      4  C   UNL d   1      53.548  34.007  54.401  0.00  0.00     0.035 A 
ATOM      5  C   UNL d   1      53.314  32.530  53.747  0.00  0.00     0.085 A 
ATOM      6  C   UNL d   1      52.549  34.553  53.524  0.00  0.00     0.018 A 
ATOM      7  N   UNL d   1      54.601  33.390  55.313  0.00  0.00    -0.242 NA
ATOM      8  C   UNL d   1      53.989  33.366  54.677  0.00  0.00     0.006 A 
ATOM      9  C   UNL d   1      53.873  32.631  54.352  0.00  0.00     0.037 A 
ATOM     10  C   UNL d   1      51.989  34.460  52.922  0.00  0.00     0.006 A 
ATOM     11  C   UNL d   1      51.873  33.725  52.596  0.00  0.00     0.061 A 
ATOM     12  O   UNL d   1      52.201  32.337  52.546  0.00  0.00    -0.267 OA
ATOM     13  C   UNL d   1      54.108  34.084  54.999  0.00  0.00     0.100 A 
ATOM     14  C   UNL d   1      54.439  32.671  54.946  0.00  0.00     0.100 A 
ENDROOT
TORSDOF 0
ENDMDL
MODEL 4
REMARK VINA RESULT:      -9.2      1.279      2.498
REMARK  0 active torsions:
REMARK  status: ('A' for Active; 'I' for Inactive)
ROOT
ATOM      1  N   UNL d   1      53.282  33.036  53.942  0.00  0.00    -0.273 N 
ATOM      2  C   UNL d   1      53.292  33.828  54.120  0.00  0.00     0.068 A 
ATOM      3  C   UNL d   1      53.805  32.519  54.328  0.00  0.00     0.265 A 
ATOM      4  C   UNL d   1      52.771  34.337  53.735  0.00  0.00     0.035 A 
ATOM      5  C   UNL d   1      52.751  32.745  53.378  0.00  0.00     0.085 A 
ATOM      6  C   UNL d   1      53.825  34.111  54.685  0.00  0.00     0.018 A 
ATOM      7  N   UNL d   1      51.653  34.536  52.718  0.00  0.00    -0.242 NA
ATOM      8  C   UNL d   1      52.239  34.054  53.170  0.00  0.00     0.006 A 
ATOM      9  C   UNL d   1      52.229  33.262  52.993  0.00  0.00     0.037 A 
ATOM     10  C   UNL d   1      54.349  33.602  55.073  0.00  0.00     0.006 A 
ATOM     11  C   UNL d   1      54.339  32.809  54.895  0.00  0.00     0.061 A 
ATOM     12  O   UNL d   1      53.793  31.724  54.147  0.00  0.00    -0.267 OA
ATOM     13  C   UNL d   1      52.244  34.832  53.341  0.00  0.00     0.100 A 
ATOM     14  C   UNL d   1      51.690  33.725  52.580  0.00  0.00     0.100 A 
ENDROOT
TORSDOF 0
ENDMDL
MODEL 5
REMARK VINA RESULT:      -9.2      1.305      2.782
REMARK  0 active torsions:
REMARK  status: ('A' for Active; 'I' for Inactive)
ROOT
ATOM      1  N   UNL d   1      53.270  33.669  54.040  0.00  0.00    -0.273 N 
ATOM      2  C   UNL d   1      52.784  33.466  53.422  0.00  0.00     0.068 A 
ATOM      3  C   UNL d   1      53.289  34.454  54.311  0.00  0.00     0.265 A 
ATOM      4  C   UNL d   1      52.769  32.686  53.157  0.00  0.00     0.035 A 
ATOM      5  C   UNL d   1      53.747  33.095  54.398  0.00  0.00     0.085 A 
ATOM      6  C   UNL d   1      52.311  34.045  53.070  0.00  0.00     0.018 A 
ATOM      7  N   UNL d   1      53.279  31.256  53.281  0.00  0.00    -0.242 NA
ATOM      8  C   UNL d   1      53.241  32.107  53.509  0.00  0.00     0.006 A 
ATOM      9  C   UNL d   1      53.728  32.311  54.127  0.00  0.00     0.037 A 
ATOM     10  C   UNL d   1      52.325  34.829  53.335  0.00  0.00     0.006 A 
ATOM     11  C   UNL d   1      52.811  35.032  53.953  0.00  0.00     0.061 A 
ATOM     12  O   UNL d   1      53.778  34.654  54.931  0.00  0.00    -0.267 OA
ATOM     13  C   UNL d   1      52.766  31.903  52.904  0.00  0.00     0.100 A 
ATOM     14  C   UNL d   1      53.751  31.521  53.901  0.00  0.00     0.100 A 
ENDROOT
TORSDOF 0
ENDMDL
