MODEL 1
REMARK VINA RESULT:       7.4      0.000      0.000
REMARK  2 active torsions:
REMARK  status: ('A' for Active; 'I' for Inactive)
REMARK    1  A    between atoms: C_4  and  N_1 
REMARK    2  A    between atoms: C_7  and  C_9 
ROOT
ATOM      1  C   UNL d   1     -51.575  24.825  33.343  0.00  0.00     0.070 A 
ATOM      2  C   UNL d   1     -52.400  24.755  33.327  0.00  0.00     0.024 A 
ATOM      3  C   UNL d   1     -52.749  24.015  33.337  0.00  0.00     0.066 A 
ATOM      4  C   UNL d   1     -51.098  24.156  33.369  0.00  0.00     0.018 A 
ATOM      5  C   UNL d   1     -52.271  23.337  33.363  0.00  0.00     0.006 A 
ATOM      6  C   UNL d   1     -51.445  23.407  33.379  0.00  0.00     0.002 A 
ENDROOT
BRANCH   1   7
ATOM      7  N   UNL d   1     -51.220  25.569  33.334  0.00  0.00    -0.242 N 
ATOM      8  C   UNL d   1     -50.398  25.715  33.317  0.00  0.00     0.267 A 
ATOM      9  C   UNL d   1     -50.280  26.531  33.312  0.00  0.00     0.066 A 
ATOM     10  O   UNL d   1     -49.779  25.167  33.306  0.00  0.00    -0.267 OA
ATOM     11  C   UNL d   1     -51.024  26.895  33.326  0.00  0.00     0.066 A 
ATOM     12  C   UNL d   1     -51.596  26.307  33.339  0.00  0.00     0.267 A 
ATOM     13  O   UNL d   1     -52.411  26.477  33.355  0.00  0.00    -0.267 OA
ENDBRANCH   1   7
BRANCH   3  14
ATOM     14  C   UNL d   1     -53.565  23.932  33.321  0.00  0.00     0.211 C 
ATOM     15  O   UNL d   1     -53.911  23.189  33.321  0.00  0.00    -0.644 OA
ATOM     16  O   UNL d   1     -54.040  24.613  33.306  0.00  0.00    -0.644 OA
ENDBRANCH   3  14
TORSDOF 2
ENDMDL
MODEL 2
REMARK VINA RESULT:      10.3      0.959      3.417
REMARK  2 active torsions:
REMARK  status: ('A' for Active; 'I' for Inactive)
REMARK    1  A    between atoms: C_4  and  N_1 
REMARK    2  A    between atoms: C_7  and  C_9 
ROOT
ATOM      1  C   UNL d   1     -52.005  25.254  33.316  0.00  0.00     0.070 A 
ATOM      2  C   UNL d   1     -51.177  25.225  33.313  0.00  0.00     0.024 A 
ATOM      3  C   UNL d   1     -50.743  25.918  33.313  0.00  0.00     0.066 A 
ATOM      4  C   UNL d   1     -52.399  25.975  33.317  0.00  0.00     0.018 A 
ATOM      5  C   UNL d   1     -51.137  26.648  33.314  0.00  0.00     0.006 A 
ATOM      6  C   UNL d   1     -51.965  26.678  33.317  0.00  0.00     0.002 A 
ENDROOT
BRANCH   1   7
ATOM      7  N   UNL d   1     -52.446  24.557  33.316  0.00  0.00    -0.242 N 
ATOM      8  C   UNL d   1     -53.279  24.509  33.313  0.00  0.00     0.267 A 
ATOM      9  C   UNL d   1     -53.494  23.714  33.315  0.00  0.00     0.066 A 
ATOM     10  O   UNL d   1     -53.829  25.128  33.308  0.00  0.00    -0.267 OA
ATOM     11  C   UNL d   1     -52.798  23.264  33.320  0.00  0.00     0.066 A 
ATOM     12  C   UNL d   1     -52.160  23.780  33.321  0.00  0.00     0.267 A 
ATOM     13  O   UNL d   1     -51.371  23.514  33.326  0.00  0.00    -0.267 OA
ENDBRANCH   1   7
BRANCH   3  14
ATOM     14  C   UNL d   1     -49.922  25.903  33.310  0.00  0.00     0.211 C 
ATOM     15  O   UNL d   1     -49.490  26.599  33.310  0.00  0.00    -0.644 OA
ATOM     16  O   UNL d   1     -49.532  25.171  33.309  0.00  0.00    -0.644 OA
ENDBRANCH   3  14
TORSDOF 2
ENDMDL
