MODEL 1
REMARK VINA RESULT:      59.4      0.000      0.000
REMARK  5 active torsions:
REMARK  status: ('A' for Active; 'I' for Inactive)
REMARK       I    between atoms: C_8  and  N_1 
REMARK    1  A    between atoms: C_10  and  C_3 
REMARK    2  A    between atoms: C_4  and  S_14 
REMARK    3  A    between atoms: C_15  and  C_6 
REMARK    4  A    between atoms: C_16  and  C_8 
REMARK    5  A    between atoms: S_14  and  C_16 
ROOT
ATOM      1  N   UNL d   1      44.431 -16.170  37.677  0.00  0.00    -0.195 N 
ATOM      2  N   UNL d   1      45.119 -15.753  37.659  0.00  0.00    -0.162 NA
ATOM      3  C   UNL d   1      45.054 -15.161  37.081  0.00  0.00     0.109 A 
ATOM      4  C   UNL d   1      43.919 -15.844  37.107  0.00  0.00     0.088 A 
ATOM      5  C   UNL d   1      44.318 -15.232  36.757  0.00  0.00     0.041 A 
ATOM      6  C   UNL d   1      44.176 -16.798  38.118  0.00  0.00     0.275 C 
ATOM      7  O   UNL d   1      43.415 -17.119  38.010  0.00  0.00    -0.266 OA
ENDROOT
BRANCH   4   8
ATOM      8  C   UNL d   1      43.163 -16.070  36.914  0.00  0.00     0.018 A 
ATOM      9  C   UNL d   1      43.030 -16.786  36.532  0.00  0.00     0.004 A 
ATOM     10  C   UNL d   1      42.251 -17.011  36.337  0.00  0.00     0.030 A 
ATOM     11  C   UNL d   1      41.620 -16.522  36.525  0.00  0.00     0.140 A 
ATOM     12  C   UNL d   1      41.757 -15.805  36.909  0.00  0.00     0.030 A 
ATOM     13  F   UNL d   1      40.837 -16.731  36.338  0.00  0.00    -0.204 F 
ATOM     14  C   UNL d   1      42.529 -15.573  37.106  0.00  0.00     0.004 A 
ENDBRANCH   4   8
BRANCH   6  15
ATOM     15  C   UNL d   1      44.679 -17.135  38.693  0.00  0.00     0.128 C 
BRANCH  15  16
ATOM     16  S   UNL d   1      44.379 -17.679  39.246  0.00  0.00    -0.069 SA
BRANCH  16  17
ATOM     17  C   UNL d   1      44.847 -17.929  39.887  0.00  0.00     0.140 A 
ATOM     18  N   UNL d   1      44.583 -17.987  40.662  0.00  0.00    -0.232 NA
ATOM     19  C   UNL d   1      45.215 -18.254  41.119  0.00  0.00     0.088 A 
ATOM     20  C   UNL d   1      45.275 -18.414  41.931  0.00  0.00     0.020 A 
ATOM     21  C   UNL d   1      45.862 -18.360  40.631  0.00  0.00     0.049 A 
ATOM     22  C   UNL d   1      45.989 -18.681  42.249  0.00  0.00     0.002 A 
ATOM     23  C   UNL d   1      46.645 -18.786  41.743  0.00  0.00     0.001 A 
ATOM     24  C   UNL d   1      46.573 -18.624  40.939  0.00  0.00     0.008 A 
ATOM     25  S   UNL d   1      45.638 -18.158  39.858  0.00  0.00    -0.060 SA
ENDBRANCH  16  17
ENDBRANCH  15  16
ENDBRANCH   6  15
BRANCH   3  26
ATOM     26  C   UNL d   1      45.646 -14.617  36.895  0.00  0.00     0.049 A 
ATOM     27  S   UNL d   1      46.249 -14.580  36.349  0.00  0.00    -0.085 SA
ATOM     28  C   UNL d   1      46.646 -13.867  36.465  0.00  0.00     0.035 A 
ATOM     29  C   UNL d   1      46.297 -13.465  37.074  0.00  0.00     0.007 A 
ATOM     30  C   UNL d   1      45.666 -13.927  37.354  0.00  0.00     0.009 A 
ENDBRANCH   3  26
TORSDOF 5
ENDMDL
