MODEL 1
REMARK VINA RESULT:      -9.2      0.000      0.000
REMARK  7 active torsions:
REMARK  status: ('A' for Active; 'I' for Inactive)
REMARK    1  A    between atoms: S_3  and  N_1 
REMARK    2  A    between atoms: C_18  and  S_3 
REMARK    3  A    between atoms: C_8  and  C_4 
REMARK    4  A    between atoms: S_5  and  N_9 
REMARK    5  A    between atoms: C_12  and  C_6 
REMARK    6  A    between atoms: N_9  and  C_19 
REMARK    7  A    between atoms: C_26  and  C_18 
ROOT
ATOM      1  N   UNL d   1      53.005  32.460  53.203  0.00  0.00    -0.152 N 
ATOM      2  N   UNL d   1      52.290  32.608  52.813  0.00  0.00    -0.155 NA
ATOM      3  C   UNL d   1      53.219  33.153  53.604  0.00  0.00     0.098 A 
ATOM      4  C   UNL d   1      52.065  33.383  52.971  0.00  0.00     0.104 A 
ATOM      5  C   UNL d   1      52.640  33.716  53.459  0.00  0.00     0.041 A 
ENDROOT
BRANCH   4   6
ATOM      6  C   UNL d   1      51.389  33.757  52.694  0.00  0.00     0.019 A 
ATOM      7  C   UNL d   1      51.396  34.110  51.956  0.00  0.00     0.003 A 
ATOM      8  C   UNL d   1      50.716  34.488  51.676  0.00  0.00     0.020 A 
ATOM      9  C   UNL d   1      50.031  34.509  52.141  0.00  0.00     0.093 A 
ATOM     10  C   UNL d   1      50.033  34.150  52.883  0.00  0.00     0.020 A 
ATOM     11  C   UNL d   1      50.704  33.777  53.162  0.00  0.00     0.003 A 
BRANCH   9  12
ATOM     12  N   UNL d   1      49.358  34.887  51.854  0.00  0.00    -0.162 NA
BRANCH  12  13
ATOM     13  S   UNL d   1      48.873  34.522  51.307  0.00  0.00     0.266 S 
ATOM     14  O   UNL d   1      48.333  34.578  51.931  0.00  0.00    -0.203 OA
ATOM     15  O   UNL d   1      48.176  34.185  51.018  0.00  0.00    -0.203 OA
ATOM     16  C   UNL d   1      49.390  34.456  50.672  0.00  0.00     0.165 C 
ENDBRANCH  12  13
ENDBRANCH   9  12
ENDBRANCH   4   6
BRANCH   1  17
ATOM     17  S   UNL d   1      53.422  31.750  53.189  0.00  0.00     0.287 S 
ATOM     18  O   UNL d   1      53.654  32.374  52.703  0.00  0.00    -0.198 OA
ATOM     19  O   UNL d   1      54.036  31.288  52.895  0.00  0.00    -0.198 OA
BRANCH  17  20
ATOM     20  C   UNL d   1      53.141  31.173  53.693  0.00  0.00     0.117 C 
BRANCH  20  21
ATOM     21  C   UNL d   1      53.253  30.376  53.507  0.00  0.00     0.014 C 
ATOM     22  C   UNL d   1      53.021  29.793  54.045  0.00  0.00     0.001 C 
ENDBRANCH  20  21
ENDBRANCH  17  20
ENDBRANCH   1  17
BRANCH   3  23
ATOM     23  C   UNL d   1      53.889  33.249  54.060  0.00  0.00     0.046 A 
ATOM     24  C   UNL d   1      53.799  33.319  54.888  0.00  0.00     0.142 A 
ATOM     25  F   UNL d   1      53.046  33.290  55.223  0.00  0.00    -0.204 F 
ATOM     26  C   UNL d   1      54.474  33.416  55.361  0.00  0.00     0.030 A 
ATOM     27  C   UNL d   1      55.181  33.442  55.029  0.00  0.00     0.002 A 
ATOM     28  C   UNL d   1      55.272  33.372  54.201  0.00  0.00     0.000 A 
ATOM     29  C   UNL d   1      54.647  33.274  53.684  0.00  0.00     0.004 A 
ENDBRANCH   3  23
TORSDOF 7
ENDMDL
MODEL 2
REMARK VINA RESULT:      -8.7      0.958      2.186
REMARK  7 active torsions:
REMARK  status: ('A' for Active; 'I' for Inactive)
REMARK    1  A    between atoms: S_3  and  N_1 
REMARK    2  A    between atoms: C_18  and  S_3 
REMARK    3  A    between atoms: C_8  and  C_4 
REMARK    4  A    between atoms: S_5  and  N_9 
REMARK    5  A    between atoms: C_12  and  C_6 
REMARK    6  A    between atoms: N_9  and  C_19 
REMARK    7  A    between atoms: C_26  and  C_18 
ROOT
ATOM      1  N   UNL d   1      53.253  32.682  53.422  0.00  0.00    -0.152 N 
ATOM      2  N   UNL d   1      52.807  33.346  53.205  0.00  0.00    -0.155 NA
ATOM      3  C   UNL d   1      52.764  32.018  53.349  0.00  0.00     0.098 A 
ATOM      4  C   UNL d   1      52.052  33.093  53.001  0.00  0.00     0.104 A 
ATOM      5  C   UNL d   1      52.028  32.274  53.091  0.00  0.00     0.041 A 
ENDROOT
BRANCH   4   6
ATOM      6  C   UNL d   1      51.432  33.571  52.752  0.00  0.00     0.019 A 
ATOM      7  C   UNL d   1      51.488  33.969  52.040  0.00  0.00     0.003 A 
ATOM      8  C   UNL d   1      50.865  34.450  51.788  0.00  0.00     0.020 A 
ATOM      9  C   UNL d   1      50.187  34.528  52.256  0.00  0.00     0.093 A 
ATOM     10  C   UNL d   1      50.138  34.123  52.972  0.00  0.00     0.020 A 
ATOM     11  C   UNL d   1      50.753  33.647  53.222  0.00  0.00     0.003 A 
BRANCH   9  12
ATOM     12  N   UNL d   1      49.570  35.009  51.998  0.00  0.00    -0.162 NA
BRANCH  12  13
ATOM     13  S   UNL d   1      48.918  34.691  51.622  0.00  0.00     0.266 S 
ATOM     14  O   UNL d   1      48.545  34.951  52.313  0.00  0.00    -0.203 OA
ATOM     15  O   UNL d   1      48.124  34.482  51.529  0.00  0.00    -0.203 OA
ATOM     16  C   UNL d   1      49.265  34.424  50.927  0.00  0.00     0.165 C 
ENDBRANCH  12  13
ENDBRANCH   9  12
ENDBRANCH   4   6
BRANCH   1  17
ATOM     17  S   UNL d   1      54.040  32.691  53.665  0.00  0.00     0.287 S 
ATOM     18  O   UNL d   1      53.852  32.509  52.883  0.00  0.00    -0.198 OA
ATOM     19  O   UNL d   1      54.840  32.597  53.498  0.00  0.00    -0.198 OA
BRANCH  17  20
ATOM     20  C   UNL d   1      54.158  32.879  54.451  0.00  0.00     0.117 C 
BRANCH  20  21
ATOM     21  C   UNL d   1      54.822  33.318  54.672  0.00  0.00     0.014 C 
ATOM     22  C   UNL d   1      54.884  33.604  55.445  0.00  0.00     0.001 C 
ENDBRANCH  20  21
ENDBRANCH  17  20
ENDBRANCH   1  17
BRANCH   3  23
ATOM     23  C   UNL d   1      52.983  31.248  53.509  0.00  0.00     0.046 A 
ATOM     24  C   UNL d   1      52.991  30.699  52.879  0.00  0.00     0.142 A 
ATOM     25  F   UNL d   1      52.780  30.942  52.119  0.00  0.00    -0.204 F 
ATOM     26  C   UNL d   1      53.213  29.914  53.030  0.00  0.00     0.030 A 
ATOM     27  C   UNL d   1      53.410  29.697  53.755  0.00  0.00     0.002 A 
ATOM     28  C   UNL d   1      53.403  30.246  54.385  0.00  0.00     0.000 A 
ATOM     29  C   UNL d   1      53.194  31.031  54.300  0.00  0.00     0.004 A 
ENDBRANCH   3  23
TORSDOF 7
ENDMDL
MODEL 3
REMARK VINA RESULT:      -8.3      2.235      4.904
REMARK  7 active torsions:
REMARK  status: ('A' for Active; 'I' for Inactive)
REMARK    1  A    between atoms: S_3  and  N_1 
REMARK    2  A    between atoms: C_18  and  S_3 
REMARK    3  A    between atoms: C_8  and  C_4 
REMARK    4  A    between atoms: S_5  and  N_9 
REMARK    5  A    between atoms: C_12  and  C_6 
REMARK    6  A    between atoms: N_9  and  C_19 
REMARK    7  A    between atoms: C_26  and  C_18 
ROOT
ATOM      1  N   UNL d   1      52.522  33.720  53.143  0.00  0.00    -0.152 N 
ATOM      2  N   UNL d   1      53.016  33.098  53.376  0.00  0.00    -0.155 NA
ATOM      3  C   UNL d   1      51.809  33.389  52.880  0.00  0.00     0.098 A 
ATOM      4  C   UNL d   1      52.612  32.391  53.259  0.00  0.00     0.104 A 
ATOM      5  C   UNL d   1      51.869  32.573  52.953  0.00  0.00     0.041 A 
ENDROOT
BRANCH   4   6
ATOM      6  C   UNL d   1      52.898  31.638  53.417  0.00  0.00     0.019 A 
ATOM      7  C   UNL d   1      52.635  31.002  52.974  0.00  0.00     0.003 A 
ATOM      8  C   UNL d   1      52.923  30.244  53.133  0.00  0.00     0.020 A 
ATOM      9  C   UNL d   1      53.475  30.128  53.739  0.00  0.00     0.093 A 
ATOM     10  C   UNL d   1      53.735  30.774  54.180  0.00  0.00     0.020 A 
ATOM     11  C   UNL d   1      53.452  31.524  54.025  0.00  0.00     0.003 A 
BRANCH   9  12
ATOM     12  N   UNL d   1      53.756  29.370  53.891  0.00  0.00    -0.162 NA
BRANCH  12  13
ATOM     13  S   UNL d   1      53.430  28.912  54.484  0.00  0.00     0.266 S 
ATOM     14  O   UNL d   1      53.100  28.521  53.834  0.00  0.00    -0.203 OA
ATOM     15  O   UNL d   1      52.976  28.303  54.808  0.00  0.00    -0.203 OA
ATOM     16  C   UNL d   1      53.746  29.283  55.146  0.00  0.00     0.165 C 
ENDBRANCH  12  13
ENDBRANCH   9  12
ENDBRANCH   4   6
BRANCH   1  17
ATOM     17  S   UNL d   1      52.713  34.521  53.170  0.00  0.00     0.287 S 
ATOM     18  O   UNL d   1      52.797  34.100  52.466  0.00  0.00    -0.198 OA
ATOM     19  O   UNL d   1      52.981  35.204  52.799  0.00  0.00    -0.198 OA
BRANCH  17  20
ATOM     20  C   UNL d   1      52.607  34.877  53.896  0.00  0.00     0.117 C 
BRANCH  20  21
ATOM     21  C   UNL d   1      53.110  35.490  54.129  0.00  0.00     0.014 C 
ATOM     22  C   UNL d   1      53.003  35.850  54.866  0.00  0.00     0.001 C 
ENDBRANCH  20  21
ENDBRANCH  17  20
ENDBRANCH   1  17
BRANCH   3  23
ATOM     23  C   UNL d   1      51.167  33.808  52.600  0.00  0.00     0.046 A 
ATOM     24  C   UNL d   1      50.487  33.861  53.084  0.00  0.00     0.142 A 
ATOM     25  F   UNL d   1      50.478  33.495  53.823  0.00  0.00    -0.204 F 
ATOM     26  C   UNL d   1      49.828  34.284  52.809  0.00  0.00     0.030 A 
ATOM     27  C   UNL d   1      49.850  34.626  52.107  0.00  0.00     0.002 A 
ATOM     28  C   UNL d   1      50.529  34.573  51.623  0.00  0.00     0.000 A 
ATOM     29  C   UNL d   1      51.208  34.171  51.837  0.00  0.00     0.004 A 
ENDBRANCH   3  23
TORSDOF 7
ENDMDL
MODEL 4
REMARK VINA RESULT:      -7.8      1.835      4.510
REMARK  7 active torsions:
REMARK  status: ('A' for Active; 'I' for Inactive)
REMARK    1  A    between atoms: S_3  and  N_1 
REMARK    2  A    between atoms: C_18  and  S_3 
REMARK    3  A    between atoms: C_8  and  C_4 
REMARK    4  A    between atoms: S_5  and  N_9 
REMARK    5  A    between atoms: C_12  and  C_6 
REMARK    6  A    between atoms: N_9  and  C_19 
REMARK    7  A    between atoms: C_26  and  C_18 
ROOT
ATOM      1  N   UNL d   1      52.112  33.444  52.902  0.00  0.00    -0.152 N 
ATOM      2  N   UNL d   1      52.082  32.621  52.816  0.00  0.00    -0.155 NA
ATOM      3  C   UNL d   1      52.695  33.616  53.465  0.00  0.00     0.098 A 
ATOM      4  C   UNL d   1      52.640  32.289  53.321  0.00  0.00     0.104 A 
ATOM      5  C   UNL d   1      53.016  32.905  53.719  0.00  0.00     0.041 A 
ENDROOT
BRANCH   4   6
ATOM      6  C   UNL d   1      52.795  31.488  53.412  0.00  0.00     0.019 A 
ATOM      7  C   UNL d   1      52.205  30.942  53.261  0.00  0.00     0.003 A 
ATOM      8  C   UNL d   1      52.360  30.135  53.353  0.00  0.00     0.020 A 
ATOM      9  C   UNL d   1      53.109  29.882  53.597  0.00  0.00     0.093 A 
ATOM     10  C   UNL d   1      53.698  30.439  53.747  0.00  0.00     0.020 A 
ATOM     11  C   UNL d   1      53.546  31.237  53.657  0.00  0.00     0.003 A 
BRANCH   9  12
ATOM     12  N   UNL d   1      53.256  29.076  53.685  0.00  0.00    -0.162 NA
BRANCH  12  13
ATOM     13  S   UNL d   1      53.436  28.760  54.417  0.00  0.00     0.266 S 
ATOM     14  O   UNL d   1      52.612  28.705  54.460  0.00  0.00    -0.203 OA
ATOM     15  O   UNL d   1      53.282  28.426  55.157  0.00  0.00    -0.203 OA
ATOM     16  C   UNL d   1      54.256  28.805  54.399  0.00  0.00     0.165 C 
ENDBRANCH  12  13
ENDBRANCH   9  12
ENDBRANCH   4   6
BRANCH   1  17
ATOM     17  S   UNL d   1      51.643  33.986  52.495  0.00  0.00     0.287 S 
ATOM     18  O   UNL d   1      52.380  33.771  52.194  0.00  0.00    -0.198 OA
ATOM     19  O   UNL d   1      51.524  34.488  51.854  0.00  0.00    -0.198 OA
BRANCH  17  20
ATOM     20  C   UNL d   1      50.927  34.157  52.847  0.00  0.00     0.117 C 
BRANCH  20  21
ATOM     21  C   UNL d   1      50.281  34.369  52.378  0.00  0.00     0.014 C 
ATOM     22  C   UNL d   1      49.579  34.620  52.737  0.00  0.00     0.001 C 
ENDBRANCH  20  21
ENDBRANCH  17  20
ENDBRANCH   1  17
BRANCH   3  23
ATOM     23  C   UNL d   1      52.905  34.364  53.716  0.00  0.00     0.046 A 
ATOM     24  C   UNL d   1      52.755  34.572  54.511  0.00  0.00     0.142 A 
ATOM     25  F   UNL d   1      52.403  34.027  55.019  0.00  0.00    -0.204 F 
ATOM     26  C   UNL d   1      52.965  35.330  54.776  0.00  0.00     0.030 A 
ATOM     27  C   UNL d   1      53.299  35.837  54.284  0.00  0.00     0.002 A 
ATOM     28  C   UNL d   1      53.449  35.629  53.488  0.00  0.00     0.000 A 
ATOM     29  C   UNL d   1      53.265  34.900  53.168  0.00  0.00     0.004 A 
ENDBRANCH   3  23
TORSDOF 7
ENDMDL
MODEL 5
REMARK VINA RESULT:      -6.5      1.620      2.090
REMARK  7 active torsions:
REMARK  status: ('A' for Active; 'I' for Inactive)
REMARK    1  A    between atoms: S_3  and  N_1 
REMARK    2  A    between atoms: C_18  and  S_3 
REMARK    3  A    between atoms: C_8  and  C_4 
REMARK    4  A    between atoms: S_5  and  N_9 
REMARK    5  A    between atoms: C_12  and  C_6 
REMARK    6  A    between atoms: N_9  and  C_19 
REMARK    7  A    between atoms: C_26  and  C_18 
ROOT
ATOM      1  N   UNL d   1      51.510  33.419  53.208  0.00  0.00    -0.152 N 
ATOM      2  N   UNL d   1      50.782  33.433  52.815  0.00  0.00    -0.155 NA
ATOM      3  C   UNL d   1      51.740  34.204  53.337  0.00  0.00     0.098 A 
ATOM      4  C   UNL d   1      50.565  34.218  52.702  0.00  0.00     0.104 A 
ATOM      5  C   UNL d   1      51.157  34.691  53.025  0.00  0.00     0.041 A 
ENDROOT
BRANCH   4   6
ATOM      6  C   UNL d   1      49.881  34.484  52.334  0.00  0.00     0.019 A 
ATOM      7  C   UNL d   1      49.776  34.355  51.533  0.00  0.00     0.003 A 
ATOM      8  C   UNL d   1      49.087  34.622  51.161  0.00  0.00     0.020 A 
ATOM      9  C   UNL d   1      48.507  35.018  51.598  0.00  0.00     0.093 A 
ATOM     10  C   UNL d   1      48.621  35.144  52.405  0.00  0.00     0.020 A 
ATOM     11  C   UNL d   1      49.300  34.881  52.774  0.00  0.00     0.003 A 
BRANCH   9  12
ATOM     12  N   UNL d   1      47.824  35.281  51.220  0.00  0.00    -0.162 NA
BRANCH  12  13
ATOM     13  S   UNL d   1      47.199  35.589  51.648  0.00  0.00     0.266 S 
ATOM     14  O   UNL d   1      46.853  34.871  51.426  0.00  0.00    -0.203 OA
ATOM     15  O   UNL d   1      46.444  35.604  51.981  0.00  0.00    -0.203 OA
ATOM     16  C   UNL d   1      47.521  36.308  51.881  0.00  0.00     0.165 C 
ENDBRANCH  12  13
ENDBRANCH   9  12
ENDBRANCH   4   6
BRANCH   1  17
ATOM     17  S   UNL d   1      51.924  32.741  53.428  0.00  0.00     0.287 S 
ATOM     18  O   UNL d   1      51.462  33.141  53.983  0.00  0.00    -0.198 OA
ATOM     19  O   UNL d   1      52.136  32.188  53.999  0.00  0.00    -0.198 OA
BRANCH  17  20
ATOM     20  C   UNL d   1      52.361  32.394  52.834  0.00  0.00     0.117 C 
BRANCH  20  21
ATOM     21  C   UNL d   1      52.493  31.579  52.845  0.00  0.00     0.014 C 
ATOM     22  C   UNL d   1      53.148  31.264  52.449  0.00  0.00     0.001 C 
ENDBRANCH  20  21
ENDBRANCH  17  20
ENDBRANCH   1  17
BRANCH   3  23
ATOM     23  C   UNL d   1      52.426  34.442  53.710  0.00  0.00     0.046 A 
ATOM     24  C   UNL d   1      52.996  34.860  53.262  0.00  0.00     0.142 A 
ATOM     25  F   UNL d   1      52.855  35.021  52.466  0.00  0.00    -0.204 F 
ATOM     26  C   UNL d   1      53.697  35.106  53.631  0.00  0.00     0.030 A 
ATOM     27  C   UNL d   1      53.817  34.946  54.387  0.00  0.00     0.002 A 
ATOM     28  C   UNL d   1      53.248  34.529  54.834  0.00  0.00     0.000 A 
ATOM     29  C   UNL d   1      52.539  34.260  54.528  0.00  0.00     0.004 A 
ENDBRANCH   3  23
TORSDOF 7
ENDMDL
