MODEL 1
REMARK VINA RESULT:      34.0      0.000      0.000
REMARK  4 active torsions:
REMARK  status: ('A' for Active; 'I' for Inactive)
REMARK    1  A    between atoms: C_5  and  N_1 
REMARK    2  A    between atoms: C_7  and  C_3 
REMARK    3  A    between atoms: C_8  and  C_4 
REMARK    4  A    between atoms: N_10  and  C_5 
ROOT
ATOM      1  N   UNL d   1      14.332  12.698  -1.367  0.00  0.00    -0.203 N 
ATOM      2  N   UNL d   1      13.990  12.282  -1.996  0.00  0.00    -0.163 NA
ATOM      3  C   UNL d   1      14.025  12.723  -2.670  0.00  0.00     0.103 A 
ATOM      4  C   UNL d   1      14.596  13.435  -1.656  0.00  0.00     0.087 A 
ATOM      5  C   UNL d   1      14.409  13.458  -2.462  0.00  0.00     0.040 A 
ENDROOT
BRANCH   3   6
ATOM      6  C   UNL d   1      13.736  12.487  -3.415  0.00  0.00     0.019 A 
ATOM      7  C   UNL d   1      14.118  12.714  -4.108  0.00  0.00     0.002 A 
ATOM      8  C   UNL d   1      13.811  12.467  -4.846  0.00  0.00     0.000 A 
ATOM      9  C   UNL d   1      13.138  12.003  -4.875  0.00  0.00     0.000 A 
ATOM     10  C   UNL d   1      12.769  11.785  -4.171  0.00  0.00     0.000 A 
ATOM     11  C   UNL d   1      12.937  11.833  -5.514  0.00  0.00     0.000 C 
ATOM     12  C   UNL d   1      13.061  12.021  -3.453  0.00  0.00     0.002 A 
ENDBRANCH   3   6
BRANCH   1  13
ATOM     13  C   UNL d   1      14.406  12.431  -0.571  0.00  0.00     0.222 C 
ATOM     14  S   UNL d   1      15.156  12.142  -0.302  0.00  0.00    -0.037 SA
BRANCH  13  15
ATOM     15  N   UNL d   1      13.750  12.445  -0.037  0.00  0.00    -0.214 NA
ATOM     16  C   UNL d   1      13.135  11.889  -0.119  0.00  0.00     0.122 C 
ENDBRANCH  13  15
ENDBRANCH   1  13
BRANCH   4  17
ATOM     17  C   UNL d   1      14.974  14.046  -1.246  0.00  0.00     0.018 A 
ATOM     18  C   UNL d   1      14.678  14.811  -1.261  0.00  0.00     0.002 A 
ATOM     19  C   UNL d   1      15.054  15.419  -0.854  0.00  0.00     0.011 A 
ATOM     20  C   UNL d   1      15.737  15.257  -0.425  0.00  0.00     0.058 A 
ATOM     21  C   UNL d   1      16.037  14.513  -0.402  0.00  0.00     0.011 A 
ATOM     22 CL   UNL d   1      16.105  15.891  -0.016  0.00  0.00    -0.082 Cl
ATOM     23  C   UNL d   1      15.659  13.902  -0.811  0.00  0.00     0.002 A 
ENDBRANCH   4  17
TORSDOF 4
ENDMDL
