MODEL 1
REMARK VINA RESULT:      31.9      0.000      0.000
REMARK  8 active torsions:
REMARK  status: ('A' for Active; 'I' for Inactive)
REMARK    1  A    between atoms: C_2  and  S_1 
REMARK    2  A    between atoms: N_8  and  S_1 
REMARK    3  A    between atoms: C_13  and  N_8 
REMARK    4  A    between atoms: N_9  and  C_14 
REMARK    5  A    between atoms: O_15  and  C_10 
REMARK    6  A    between atoms: C_14  and  C_13 
REMARK    7  A    between atoms: C_22  and  O_15 
REMARK    8  A    between atoms: C_23  and  C_22 
ROOT
ATOM      1  C   UNL d   1      13.499  12.983  -3.309  0.00  0.00     0.105 A 
ATOM      2  C   UNL d   1      13.256  12.777  -4.070  0.00  0.00     0.014 A 
ATOM      3  C   UNL d   1      13.095  13.364  -4.628  0.00  0.00     0.024 A 
ATOM      4  C   UNL d   1      13.582  13.772  -3.106  0.00  0.00     0.015 A 
ATOM      5  C   UNL d   1      13.181  14.162  -4.417  0.00  0.00     0.100 A 
ATOM      6  C   UNL d   1      13.422  14.362  -3.661  0.00  0.00     0.025 A 
ATOM      7  C   UNL d   1      13.174  11.989  -4.273  0.00  0.00     0.001 A 
ATOM      8  C   UNL d   1      12.854  13.158  -5.384  0.00  0.00     0.002 A 
ATOM      9  C   UNL d   1      12.932  11.779  -5.028  0.00  0.00     0.000 A 
ATOM     10  C   UNL d   1      12.770  12.365  -5.591  0.00  0.00     0.000 A 
ENDROOT
BRANCH   1  11
ATOM     11  S   UNL d   1      13.659  12.393  -2.754  0.00  0.00     0.285 S 
ATOM     12  O   UNL d   1      14.416  12.692  -2.654  0.00  0.00    -0.198 OA
ATOM     13  O   UNL d   1      12.893  12.090  -2.856  0.00  0.00    -0.198 OA
BRANCH  11  14
ATOM     14  N   UNL d   1      13.818  11.804  -2.200  0.00  0.00    -0.155 NA
BRANCH  14  15
ATOM     15  C   UNL d   1      14.557  11.781  -1.830  0.00  0.00     0.131 C 
BRANCH  15  16
ATOM     16  C   UNL d   1      14.604  11.861  -1.009  0.00  0.00     0.102 C 
BRANCH  16  17
ATOM     17  N   UNL d   1      14.830  12.578  -0.679  0.00  0.00    -0.298 N 
ATOM     18  C   UNL d   1      15.628  12.766  -0.606  0.00  0.00     0.107 A 
ATOM     19  C   UNL d   1      15.858  13.487  -0.274  0.00  0.00     0.142 A 
ATOM     20  O   UNL d   1      15.284  14.021  -0.015  0.00  0.00    -0.300 OA
ATOM     21  C   UNL d   1      14.481  13.833  -0.087  0.00  0.00     0.142 A 
ATOM     22  C   UNL d   1      14.256  13.112  -0.419  0.00  0.00     0.107 A 
ENDBRANCH  16  17
ENDBRANCH  15  16
ENDBRANCH  14  15
ENDBRANCH  11  14
ENDBRANCH   1  11
BRANCH   5  23
ATOM     23  O   UNL d   1      13.022  14.751  -4.971  0.00  0.00    -0.305 OA
BRANCH  23  24
ATOM     24  C   UNL d   1      13.461  15.442  -4.975  0.00  0.00     0.123 C 
BRANCH  24  25
ATOM     25  C   UNL d   1      13.546  15.874  -5.671  0.00  0.00     0.027 C 
ATOM     26  C   UNL d   1      13.984  16.575  -5.671  0.00  0.00     0.002 C 
ENDBRANCH  24  25
ENDBRANCH  23  24
ENDBRANCH   5  23
TORSDOF 8
ENDMDL
