MODEL 1
REMARK VINA RESULT:      42.1      0.000      0.000
REMARK  6 active torsions:
REMARK  status: ('A' for Active; 'I' for Inactive)
REMARK    1  A    between atoms: C_3  and  C_1 
REMARK    2  A    between atoms: C_4  and  N_2 
REMARK       I    between atoms: N_14  and  C_3 
REMARK    3  A    between atoms: N_5  and  C_19 
REMARK    4  A    between atoms: O_18  and  C_13 
REMARK    5  A    between atoms: C_17  and  N_14 
REMARK    6  A    between atoms: C_19  and  C_17 
ROOT
ATOM      1  N   UNL d   1      13.676  14.553  -4.767  0.00  0.00    -0.300 N 
ATOM      2  N   UNL d   1      13.143  13.142  -4.102  0.00  0.00    -0.299 N 
ATOM      3  C   UNL d   1      14.060  13.844  -4.961  0.00  0.00     0.100 A 
ATOM      4  C   UNL d   1      13.033  14.561  -4.247  0.00  0.00     0.100 A 
ATOM      5  C   UNL d   1      13.787  13.134  -4.622  0.00  0.00     0.100 A 
ATOM      6  C   UNL d   1      12.772  13.856  -3.920  0.00  0.00     0.100 A 
ENDROOT
BRANCH   2   7
ATOM      7  C   UNL d   1      12.882  12.437  -3.775  0.00  0.00     0.101 C 
BRANCH   7   8
ATOM      8  C   UNL d   1      13.397  11.936  -3.384  0.00  0.00     0.121 C 
BRANCH   8   9
ATOM      9  N   UNL d   1      13.389  11.875  -2.574  0.00  0.00    -0.205 NA
ATOM     10  C   UNL d   1      14.096  11.941  -2.151  0.00  0.00     0.280 C 
ATOM     11  O   UNL d   1      14.801  12.069  -2.546  0.00  0.00    -0.265 OA
BRANCH  10  12
ATOM     12  C   UNL d   1      14.088  11.879  -1.328  0.00  0.00     0.065 A 
ATOM     13  C   UNL d   1      13.411  11.844  -0.851  0.00  0.00     0.040 A 
ATOM     14  S   UNL d   1      13.665  11.784  -0.068  0.00  0.00    -0.086 SA
ATOM     15  C   UNL d   1      14.473  11.782  -0.060  0.00  0.00     0.036 A 
ATOM     16  C   UNL d   1      14.741  11.841  -0.844  0.00  0.00     0.012 A 
ENDBRANCH  10  12
ENDBRANCH   8   9
ENDBRANCH   7   8
ENDBRANCH   2   7
BRANCH   1  17
ATOM     17  C   UNL d   1      13.948  15.256  -5.103  0.00  0.00     0.086 A 
ATOM     18  C   UNL d   1      14.341  15.820  -4.641  0.00  0.00     0.110 A 
ATOM     19  C   UNL d   1      14.606  16.515  -4.986  0.00  0.00     0.026 A 
ATOM     20  C   UNL d   1      14.488  16.660  -5.789  0.00  0.00     0.002 A 
ATOM     21  C   UNL d   1      14.095  16.096  -6.253  0.00  0.00     0.002 A 
ATOM     22  C   UNL d   1      13.825  15.397  -5.918  0.00  0.00     0.019 A 
BRANCH  18  23
ATOM     23  O   UNL d   1      14.464  15.686  -3.842  0.00  0.00    -0.327 OA
ATOM     24  C   UNL d   1      14.531  16.324  -3.316  0.00  0.00     0.181 C 
ENDBRANCH  18  23
ENDBRANCH   1  17
TORSDOF 6
ENDMDL
MODEL 2
REMARK VINA RESULT:      44.1      1.815      4.475
REMARK  6 active torsions:
REMARK  status: ('A' for Active; 'I' for Inactive)
REMARK    1  A    between atoms: C_3  and  C_1 
REMARK    2  A    between atoms: C_4  and  N_2 
REMARK       I    between atoms: N_14  and  C_3 
REMARK    3  A    between atoms: N_5  and  C_19 
REMARK    4  A    between atoms: O_18  and  C_13 
REMARK    5  A    between atoms: C_17  and  N_14 
REMARK    6  A    between atoms: C_19  and  C_17 
ROOT
ATOM      1  N   UNL d   1      14.206  12.279  -2.137  0.00  0.00    -0.300 N 
ATOM      2  N   UNL d   1      13.432  11.948  -3.555  0.00  0.00    -0.299 N 
ATOM      3  C   UNL d   1      14.635  11.945  -2.763  0.00  0.00     0.100 A 
ATOM      4  C   UNL d   1      13.399  12.447  -2.214  0.00  0.00     0.100 A 
ATOM      5  C   UNL d   1      14.239  11.780  -3.478  0.00  0.00     0.100 A 
ATOM      6  C   UNL d   1      13.020  12.280  -2.922  0.00  0.00     0.100 A 
ENDROOT
BRANCH   2   7
ATOM      7  C   UNL d   1      13.053  11.782  -4.263  0.00  0.00     0.101 C 
BRANCH   7   8
ATOM      8  C   UNL d   1      12.770  12.381  -4.742  0.00  0.00     0.121 C 
BRANCH   8   9
ATOM      9  N   UNL d   1      12.844  13.160  -4.528  0.00  0.00    -0.205 NA
ATOM     10  C   UNL d   1      13.285  13.675  -4.999  0.00  0.00     0.280 C 
ATOM     11  O   UNL d   1      13.648  13.401  -5.679  0.00  0.00    -0.265 OA
BRANCH  10  12
ATOM     12  C   UNL d   1      13.360  14.468  -4.781  0.00  0.00     0.065 A 
ATOM     13  C   UNL d   1      14.046  14.827  -4.486  0.00  0.00     0.040 A 
ATOM     14  S   UNL d   1      13.867  15.620  -4.344  0.00  0.00    -0.086 SA
ATOM     15  C   UNL d   1      13.095  15.748  -4.544  0.00  0.00     0.036 A 
ATOM     16  C   UNL d   1      12.775  15.033  -4.817  0.00  0.00     0.012 A 
ENDBRANCH  10  12
ENDBRANCH   8   9
ENDBRANCH   7   8
ENDBRANCH   2   7
BRANCH   1  17
ATOM     17  C   UNL d   1      14.599  12.442  -1.430  0.00  0.00     0.086 A 
ATOM     18  C   UNL d   1      14.181  12.482  -0.715  0.00  0.00     0.110 A 
ATOM     19  C   UNL d   1      14.583  12.645  -0.019  0.00  0.00     0.026 A 
ATOM     20  C   UNL d   1      15.398  12.769  -0.020  0.00  0.00     0.002 A 
ATOM     21  C   UNL d   1      15.816  12.729  -0.735  0.00  0.00     0.002 A 
ATOM     22  C   UNL d   1      15.425  12.567  -1.438  0.00  0.00     0.019 A 
BRANCH  18  23
ATOM     23  O   UNL d   1      13.371  12.360  -0.703  0.00  0.00    -0.327 OA
ATOM     24  C   UNL d   1      13.003  12.063  -0.021  0.00  0.00     0.181 C 
ENDBRANCH  18  23
ENDBRANCH   1  17
TORSDOF 6
ENDMDL
