MODEL 1
REMARK VINA RESULT:      -5.2      0.000      0.000
REMARK  4 active torsions:
REMARK  status: ('A' for Active; 'I' for Inactive)
REMARK    1  A    between atoms: N_3  and  S_1 
REMARK    2  A    between atoms: C_5  and  S_1 
REMARK    3  A    between atoms: C_2  and  C_9 
REMARK       I    between atoms: N_4  and  C_2 
REMARK    4  A    between atoms: C_11  and  N_3 
ROOT
ATOM      1  C   UNL d   1      59.501  -0.593  29.395  0.00  0.00     0.057 A 
ATOM      2  C   UNL d   1      58.359   0.257  30.223  0.00  0.00     0.094 A 
ATOM      3  C   UNL d   1      58.723  -0.567  29.116  0.00  0.00     0.006 A 
ATOM      4  C   UNL d   1      59.710  -0.195  30.086  0.00  0.00     0.006 A 
ATOM      5  C   UNL d   1      58.153  -0.140  29.533  0.00  0.00     0.020 A 
ATOM      6  C   UNL d   1      59.146   0.229  30.502  0.00  0.00     0.020 A 
ENDROOT
BRANCH   2   7
ATOM      7  N   UNL d   1      57.795   0.682  30.639  0.00  0.00    -0.158 NA
BRANCH   7   8
ATOM      8  S   UNL d   1      57.395   0.327  31.270  0.00  0.00     0.285 S 
ATOM      9  O   UNL d   1      56.790   0.091  30.761  0.00  0.00    -0.198 OA
ATOM     10  O   UNL d   1      58.003   0.564  31.778  0.00  0.00    -0.198 OA
BRANCH   8  11
ATOM     11  C   UNL d   1      57.000  -0.026  31.900  0.00  0.00     0.107 A 
ATOM     12  C   UNL d   1      56.701  -0.794  31.824  0.00  0.00     0.043 A 
ATOM     13  C   UNL d   1      56.304  -1.149  32.456  0.00  0.00     0.141 A 
ATOM     14  F   UNL d   1      56.000  -1.922  32.386  0.00  0.00    -0.204 F 
ATOM     15  C   UNL d   1      56.206  -0.735  33.163  0.00  0.00     0.030 A 
ATOM     16  C   UNL d   1      56.502   0.027  33.238  0.00  0.00     0.003 A 
ATOM     17  C   UNL d   1      56.900   0.385  32.609  0.00  0.00     0.013 A 
ENDBRANCH   8  11
ENDBRANCH   7   8
ENDBRANCH   2   7
BRANCH   1  18
ATOM     18  C   UNL d   1      60.085  -1.025  28.974  0.00  0.00     0.265 C 
ATOM     19  N   UNL d   1      60.029  -1.850  28.929  0.00  0.00    -0.272 N 
ATOM     20  C   UNL d   1      60.604  -2.277  28.515  0.00  0.00     0.083 A 
ATOM     21  C   UNL d   1      59.408  -2.245  29.291  0.00  0.00     0.083 A 
ATOM     22  C   UNL d   1      60.550  -3.099  28.468  0.00  0.00     0.019 A 
ATOM     23  C   UNL d   1      59.926  -3.479  28.834  0.00  0.00     0.003 A 
ATOM     24  C   UNL d   1      59.357  -3.058  29.243  0.00  0.00     0.019 A 
ATOM     25  O   UNL d   1      60.714  -0.622  28.608  0.00  0.00    -0.267 OA
ENDBRANCH   1  18
TORSDOF 4
ENDMDL
MODEL 2
REMARK VINA RESULT:      -4.9      1.883      5.135
REMARK  4 active torsions:
REMARK  status: ('A' for Active; 'I' for Inactive)
REMARK    1  A    between atoms: N_3  and  S_1 
REMARK    2  A    between atoms: C_5  and  S_1 
REMARK    3  A    between atoms: C_2  and  C_9 
REMARK       I    between atoms: N_4  and  C_2 
REMARK    4  A    between atoms: C_11  and  N_3 
ROOT
ATOM      1  C   UNL d   1      57.018   0.068  32.595  0.00  0.00     0.057 A 
ATOM      2  C   UNL d   1      57.247  -0.225  30.991  0.00  0.00     0.094 A 
ATOM      3  C   UNL d   1      56.867  -0.684  32.287  0.00  0.00     0.006 A 
ATOM      4  C   UNL d   1      57.284   0.675  32.104  0.00  0.00     0.006 A 
ATOM      5  C   UNL d   1      56.983  -0.828  31.483  0.00  0.00     0.020 A 
ATOM      6  C   UNL d   1      57.400   0.534  31.304  0.00  0.00     0.020 A 
ENDROOT
BRANCH   2   7
ATOM      7  N   UNL d   1      57.363  -0.366  30.191  0.00  0.00    -0.158 NA
BRANCH   7   8
ATOM      8  S   UNL d   1      58.129  -0.487  29.901  0.00  0.00     0.285 S 
ATOM      9  O   UNL d   1      58.102   0.240  29.512  0.00  0.00    -0.198 OA
ATOM     10  O   UNL d   1      58.152  -1.214  30.292  0.00  0.00    -0.198 OA
BRANCH   8  11
ATOM     11  C   UNL d   1      58.890  -0.611  29.614  0.00  0.00     0.107 A 
ATOM     12  C   UNL d   1      59.492  -0.070  29.790  0.00  0.00     0.043 A 
ATOM     13  C   UNL d   1      60.257  -0.193  29.502  0.00  0.00     0.141 A 
ATOM     14  F   UNL d   1      60.868   0.347  29.676  0.00  0.00    -0.204 F 
ATOM     15  C   UNL d   1      60.419  -0.856  29.039  0.00  0.00     0.030 A 
ATOM     16  C   UNL d   1      59.821  -1.392  28.865  0.00  0.00     0.003 A 
ATOM     17  C   UNL d   1      59.056  -1.273  29.151  0.00  0.00     0.013 A 
ENDBRANCH   8  11
ENDBRANCH   7   8
ENDBRANCH   2   7
BRANCH   1  18
ATOM     18  C   UNL d   1      56.902   0.220  33.412  0.00  0.00     0.265 C 
ATOM     19  N   UNL d   1      56.140   0.375  33.695  0.00  0.00    -0.272 N 
ATOM     20  C   UNL d   1      56.024   0.525  34.500  0.00  0.00     0.083 A 
ATOM     21  C   UNL d   1      55.499   0.380  33.182  0.00  0.00     0.083 A 
ATOM     22  C   UNL d   1      55.265   0.680  34.784  0.00  0.00     0.019 A 
ATOM     23  C   UNL d   1      54.637   0.682  34.262  0.00  0.00     0.003 A 
ATOM     24  C   UNL d   1      54.749   0.534  33.466  0.00  0.00     0.019 A 
ATOM     25  O   UNL d   1      57.554   0.214  33.931  0.00  0.00    -0.267 OA
ENDBRANCH   1  18
TORSDOF 4
ENDMDL
