MODEL 1
REMARK VINA RESULT:      11.1      0.000      0.000
REMARK  9 active torsions:
REMARK  status: ('A' for Active; 'I' for Inactive)
REMARK    1  A    between atoms: S_10  and  C_2 
REMARK    2  A    between atoms: C_7  and  C_5 
REMARK    3  A    between atoms: C_9  and  C_6 
REMARK    4  A    between atoms: O_19  and  C_9 
REMARK    5  A    between atoms: C_17  and  S_10 
REMARK    6  A    between atoms: C_13  and  C_17 
REMARK    7  A    between atoms: O_20  and  C_14 
REMARK    8  A    between atoms: C_23  and  O_19 
REMARK    9  A    between atoms: C_24  and  O_20 
ROOT
ATOM      1  C   UNL d   1     -41.953-122.257 -52.574  0.00  0.00     0.092 A 
ATOM      2  C   UNL d   1     -41.946-121.761 -53.248  0.00  0.00     0.124 A 
ATOM      3  C   UNL d   1     -41.520-120.671 -52.441  0.00  0.00     0.285 A 
ATOM      4  N   UNL d   1     -41.730-120.976 -53.174  0.00  0.00    -0.201 NA
ATOM      5  C   UNL d   1     -41.744-121.955 -51.843  0.00  0.00     0.023 A 
ATOM      6  C   UNL d   1     -41.527-121.167 -51.767  0.00  0.00     0.122 A 
ATOM      7  C   UNL d   1     -42.168-123.040 -52.645  0.00  0.00     0.103 C 
ATOM      8  N   UNL d   1     -42.382-123.817 -52.723  0.00  0.00    -0.191 NA
ATOM      9  O   UNL d   1     -41.276-119.818 -52.307  0.00  0.00    -0.265 OA
ENDROOT
BRANCH   2  10
ATOM     10  S   UNL d   1     -42.176-122.136 -53.992  0.00  0.00    -0.062 SA
BRANCH  10  11
ATOM     11  C   UNL d   1     -42.227-121.785 -54.788  0.00  0.00     0.101 C 
BRANCH  11  12
ATOM     12  C   UNL d   1     -42.064-122.277 -55.482  0.00  0.00     0.303 C 
ATOM     13  O   UNL d   1     -41.859-122.763 -55.451  0.00  0.00    -0.263 OA
ATOM     14  N   UNL d   1     -42.273-121.893 -56.255  0.00  0.00    -0.102 N 
ENDBRANCH  11  12
ENDBRANCH  10  11
ENDBRANCH   2  10
BRANCH   5  15
ATOM     15  C   UNL d   1     -41.751-122.439 -51.186  0.00  0.00     0.024 A 
ATOM     16  C   UNL d   1     -42.388-122.416 -50.669  0.00  0.00     0.100 A 
ATOM     17  C   UNL d   1     -42.395-122.906 -50.002  0.00  0.00     0.025 A 
ATOM     18  C   UNL d   1     -41.764-123.416 -49.858  0.00  0.00     0.002 A 
ATOM     19  C   UNL d   1     -41.130-123.435 -50.378  0.00  0.00     0.000 A 
ATOM     20  C   UNL d   1     -41.123-122.944 -51.045  0.00  0.00     0.002 A 
BRANCH  16  21
ATOM     21  O   UNL d   1     -42.957-122.016 -50.718  0.00  0.00    -0.305 OA
BRANCH  21  22
ATOM     22  C   UNL d   1     -43.487-122.258 -50.008  0.00  0.00     0.123 C 
ATOM     23  C   UNL d   1     -44.540-122.143 -50.222  0.00  0.00     0.029 C 
ENDBRANCH  21  22
ENDBRANCH  16  21
ENDBRANCH   5  15
BRANCH   6  24
ATOM     24  C   UNL d   1     -41.315-120.859 -51.031  0.00  0.00     0.305 C 
ATOM     25  O   UNL d   1     -41.299-121.097 -50.710  0.00  0.00    -0.259 OA
BRANCH  24  26
ATOM     26  O   UNL d   1     -41.123-120.052 -50.895  0.00  0.00    -0.271 OA
BRANCH  26  27
ATOM     27  C   UNL d   1     -41.628-119.508 -50.424  0.00  0.00     0.126 C 
ATOM     28  C   UNL d   1     -41.213-118.772 -50.634  0.00  0.00     0.029 C 
ENDBRANCH  26  27
ENDBRANCH  24  26
ENDBRANCH   6  24
TORSDOF 9
ENDMDL
MODEL 2
REMARK VINA RESULT:      13.3      1.711      3.538
REMARK  9 active torsions:
REMARK  status: ('A' for Active; 'I' for Inactive)
REMARK    1  A    between atoms: S_10  and  C_2 
REMARK    2  A    between atoms: C_7  and  C_5 
REMARK    3  A    between atoms: C_9  and  C_6 
REMARK    4  A    between atoms: O_19  and  C_9 
REMARK    5  A    between atoms: C_17  and  S_10 
REMARK    6  A    between atoms: C_13  and  C_17 
REMARK    7  A    between atoms: O_20  and  C_14 
REMARK    8  A    between atoms: C_23  and  O_19 
REMARK    9  A    between atoms: C_24  and  O_20 
ROOT
ATOM      1  C   UNL d   1     -41.812-122.266 -51.718  0.00  0.00     0.092 A 
ATOM      2  C   UNL d   1     -41.738-121.960 -50.942  0.00  0.00     0.124 A 
ATOM      3  C   UNL d   1     -41.379-120.692 -51.477  0.00  0.00     0.285 A 
ATOM      4  N   UNL d   1     -41.523-121.179 -50.831  0.00  0.00    -0.201 NA
ATOM      5  C   UNL d   1     -41.669-121.783 -52.362  0.00  0.00     0.023 A 
ATOM      6  C   UNL d   1     -41.453-120.998 -52.252  0.00  0.00     0.122 A 
ATOM      7  C   UNL d   1     -42.027-123.043 -51.831  0.00  0.00     0.103 C 
ATOM      8  N   UNL d   1     -42.240-123.817 -51.937  0.00  0.00    -0.191 NA
ATOM      9  O   UNL d   1     -41.140-119.830 -51.409  0.00  0.00    -0.265 OA
ENDROOT
BRANCH   2  10
ATOM     10  S   UNL d   1     -41.902-122.517 -50.302  0.00  0.00    -0.062 SA
BRANCH  10  11
ATOM     11  C   UNL d   1     -41.836-122.395 -49.441  0.00  0.00     0.101 C 
BRANCH  11  12
ATOM     12  C   UNL d   1     -42.470-122.675 -48.922  0.00  0.00     0.303 C 
ATOM     13  O   UNL d   1     -42.983-122.616 -49.034  0.00  0.00    -0.263 OA
ATOM     14  N   UNL d   1     -42.182-123.070 -48.180  0.00  0.00    -0.102 N 
ENDBRANCH  11  12
ENDBRANCH  10  11
ENDBRANCH   2  10
BRANCH   5  15
ATOM     15  C   UNL d   1     -41.742-122.081 -53.119  0.00  0.00     0.024 A 
ATOM     16  C   UNL d   1     -42.437-121.961 -53.540  0.00  0.00     0.100 A 
ATOM     17  C   UNL d   1     -42.510-122.264 -54.307  0.00  0.00     0.025 A 
ATOM     18  C   UNL d   1     -41.888-122.684 -54.645  0.00  0.00     0.002 A 
ATOM     19  C   UNL d   1     -41.196-122.801 -54.221  0.00  0.00     0.000 A 
ATOM     20  C   UNL d   1     -41.123-122.498 -53.454  0.00  0.00     0.002 A 
BRANCH  16  21
ATOM     21  O   UNL d   1     -43.006-121.619 -53.327  0.00  0.00    -0.305 OA
BRANCH  21  22
ATOM     22  C   UNL d   1     -43.627-121.745 -53.991  0.00  0.00     0.123 C 
ATOM     23  C   UNL d   1     -44.639-121.608 -53.637  0.00  0.00     0.029 C 
ENDBRANCH  21  22
ENDBRANCH  16  21
ENDBRANCH   5  15
BRANCH   6  24
ATOM     24  C   UNL d   1     -41.308-120.508 -52.900  0.00  0.00     0.305 C 
ATOM     25  O   UNL d   1     -41.323-120.656 -53.272  0.00  0.00    -0.259 OA
BRANCH  24  26
ATOM     26  O   UNL d   1     -41.123-119.690 -52.841  0.00  0.00    -0.271 OA
BRANCH  26  27
ATOM     27  C   UNL d   1     -41.381-119.092 -53.431  0.00  0.00     0.126 C 
ATOM     28  C   UNL d   1     -41.468-118.428 -52.876  0.00  0.00     0.029 C 
ENDBRANCH  26  27
ENDBRANCH  24  26
ENDBRANCH   6  24
TORSDOF 9
ENDMDL
