MODEL 1
REMARK VINA RESULT:      -2.7      0.000      0.000
REMARK  5 active torsions:
REMARK  status: ('A' for Active; 'I' for Inactive)
REMARK    1  A    between atoms: C_7  and  N_1 
REMARK    2  A    between atoms: C_12  and  C_3 
REMARK    3  A    between atoms: C_8  and  S_15 
REMARK    4  A    between atoms: C_16  and  C_12 
REMARK    5  A    between atoms: S_15  and  C_16 
ROOT
ATOM      1  N   UNL d   1     -41.765-122.363 -53.773  0.00  0.00    -0.304 N 
ATOM      2  C   UNL d   1     -41.893-121.858 -53.136  0.00  0.00     0.067 A 
ATOM      3  C   UNL d   1     -41.643-122.244 -52.449  0.00  0.00     0.057 A 
ATOM      4  C   UNL d   1     -41.439-123.056 -53.489  0.00  0.00     0.064 A 
ATOM      5  C   UNL d   1     -41.359-122.992 -52.672  0.00  0.00     0.022 A 
ATOM      6  C   UNL d   1     -42.215-121.102 -53.184  0.00  0.00     0.019 C 
ATOM      7  C   UNL d   1     -41.126-123.817 -53.527  0.00  0.00     0.019 C 
ENDROOT
BRANCH   3   8
ATOM      8  C   UNL d   1     -41.500-122.330 -51.631  0.00  0.00     0.204 C 
ATOM      9  O   UNL d   1     -41.135-121.712 -51.206  0.00  0.00    -0.286 OA
BRANCH   8  10
ATOM     10  C   UNL d   1     -41.549-122.785 -50.944  0.00  0.00     0.080 C 
BRANCH  10  11
ATOM     11  S   UNL d   1     -41.838-122.446 -50.245  0.00  0.00    -0.043 SA
BRANCH  11  12
ATOM     12  C   UNL d   1     -42.198-122.918 -49.673  0.00  0.00     0.233 A 
ATOM     13  N   UNL d   1     -41.966-122.980 -48.884  0.00  0.00    -0.029 NA
ATOM     14  C   UNL d   1     -42.476-123.509 -48.515  0.00  0.00     0.788 A 
ATOM     15  N   UNL d   1     -42.448-123.738 -47.722  0.00  0.00     0.064 N 
ATOM     16  N   UNL d   1     -43.019-123.769 -49.076  0.00  0.00     0.050 NA
ATOM     17  N   UNL d   1     -42.850-123.403 -49.802  0.00  0.00    -0.105 NA
ENDBRANCH  11  12
ENDBRANCH  10  11
ENDBRANCH   8  10
ENDBRANCH   3   8
BRANCH   1  18
ATOM     18  C   UNL d   1     -41.938-122.197 -54.568  0.00  0.00     0.094 A 
ATOM     19  C   UNL d   1     -41.474-121.692 -54.965  0.00  0.00     0.050 A 
ATOM     20  C   UNL d   1     -41.652-121.528 -55.765  0.00  0.00     0.142 A 
ATOM     21  F   UNL d   1     -41.173-121.001 -56.192  0.00  0.00    -0.204 F 
ATOM     22  C   UNL d   1     -42.297-121.886 -56.127  0.00  0.00     0.032 A 
ATOM     23  C   UNL d   1     -42.770-122.405 -55.710  0.00  0.00     0.034 A 
ATOM     24  C   UNL d   1     -42.591-122.566 -54.919  0.00  0.00     0.156 A 
ATOM     25  F   UNL d   1     -43.249-123.086 -54.874  0.00  0.00    -0.203 F 
ENDBRANCH   1  18
TORSDOF 5
ENDMDL
MODEL 2
REMARK VINA RESULT:      -1.3      0.678      1.209
REMARK  5 active torsions:
REMARK  status: ('A' for Active; 'I' for Inactive)
REMARK    1  A    between atoms: C_7  and  N_1 
REMARK    2  A    between atoms: C_12  and  C_3 
REMARK    3  A    between atoms: C_8  and  S_15 
REMARK    4  A    between atoms: C_16  and  C_12 
REMARK    5  A    between atoms: S_15  and  C_16 
ROOT
ATOM      1  N   UNL d   1     -41.987-122.413 -54.208  0.00  0.00    -0.304 N 
ATOM      2  C   UNL d   1     -42.104-121.924 -53.556  0.00  0.00     0.067 A 
ATOM      3  C   UNL d   1     -41.728-122.267 -52.906  0.00  0.00     0.057 A 
ATOM      4  C   UNL d   1     -41.543-123.055 -53.967  0.00  0.00     0.064 A 
ATOM      5  C   UNL d   1     -41.378-122.975 -53.165  0.00  0.00     0.022 A 
ATOM      6  C   UNL d   1     -42.525-121.215 -53.562  0.00  0.00     0.019 C 
ATOM      7  C   UNL d   1     -41.141-123.770 -54.046  0.00  0.00     0.019 C 
ENDROOT
BRANCH   3   8
ATOM      8  C   UNL d   1     -41.482-122.327 -52.110  0.00  0.00     0.204 C 
ATOM      9  O   UNL d   1     -41.128-121.672 -51.735  0.00  0.00    -0.286 OA
BRANCH   8  10
ATOM     10  C   UNL d   1     -41.406-122.774 -51.420  0.00  0.00     0.080 C 
BRANCH  10  11
ATOM     11  S   UNL d   1     -41.517-122.414 -50.682  0.00  0.00    -0.043 SA
BRANCH  11  12
ATOM     12  C   UNL d   1     -41.680-122.873 -50.017  0.00  0.00     0.233 A 
ATOM     13  N   UNL d   1     -41.153-123.038 -49.404  0.00  0.00    -0.029 NA
ATOM     14  C   UNL d   1     -41.545-123.512 -48.859  0.00  0.00     0.788 A 
ATOM     15  N   UNL d   1     -41.228-123.810 -48.157  0.00  0.00     0.064 N 
ATOM     16  N   UNL d   1     -42.310-123.637 -49.137  0.00  0.00     0.050 NA
ATOM     17  N   UNL d   1     -42.400-123.239 -49.861  0.00  0.00    -0.105 NA
ENDBRANCH  11  12
ENDBRANCH  10  11
ENDBRANCH   8  10
ENDBRANCH   3   8
BRANCH   1  18
ATOM     18  C   UNL d   1     -42.270-122.278 -54.976  0.00  0.00     0.094 A 
ATOM     19  C   UNL d   1     -42.969-122.587 -55.188  0.00  0.00     0.050 A 
ATOM     20  C   UNL d   1     -43.250-122.447 -55.962  0.00  0.00     0.142 A 
ATOM     21  F   UNL d   1     -43.980-122.766 -56.198  0.00  0.00    -0.204 F 
ATOM     22  C   UNL d   1     -42.807-121.998 -56.489  0.00  0.00     0.032 A 
ATOM     23  C   UNL d   1     -42.089-121.683 -56.262  0.00  0.00     0.034 A 
ATOM     24  C   UNL d   1     -41.813-121.822 -55.495  0.00  0.00     0.156 A 
ATOM     25  F   UNL d   1     -41.123-121.373 -55.659  0.00  0.00    -0.203 F 
ENDBRANCH   1  18
TORSDOF 5
ENDMDL
