MODEL 1
REMARK VINA RESULT:      56.2      0.000      0.000
REMARK  5 active torsions:
REMARK  status: ('A' for Active; 'I' for Inactive)
REMARK    1  A    between atoms: N_2  and  S_1 
REMARK    2  A    between atoms: C_8  and  S_1 
REMARK    3  A    between atoms: S_5  and  C_3 
REMARK    4  A    between atoms: C_13  and  S_5 
REMARK    5  A    between atoms: C_12  and  C_13 
ROOT
ATOM      1  N   UNL d   1     -49.867  26.720  33.533  0.00  0.00    -0.208 N 
ATOM      2  C   UNL d   1     -49.149  26.935  33.897  0.00  0.00     0.189 A 
ATOM      3  N   UNL d   1     -48.650  26.273  33.897  0.00  0.00    -0.219 NA
ATOM      4  C   UNL d   1     -49.808  25.918  33.307  0.00  0.00     0.114 A 
ATOM      5  C   UNL d   1     -49.059  25.649  33.533  0.00  0.00     0.121 A 
ENDROOT
BRANCH   1   6
ATOM      6  S   UNL d   1     -50.521  27.216  33.418  0.00  0.00     0.273 S 
ATOM      7  O   UNL d   1     -49.997  27.847  33.418  0.00  0.00    -0.200 OA
ATOM      8  O   UNL d   1     -50.993  27.890  33.306  0.00  0.00    -0.200 OA
BRANCH   6   9
ATOM      9  C   UNL d   1     -51.066  26.594  33.414  0.00  0.00     0.104 A 
ATOM     10  C   UNL d   1     -50.800  25.825  33.310  0.00  0.00     0.013 A 
ATOM     11  C   UNL d   1     -51.343  25.206  33.307  0.00  0.00     0.001 A 
ATOM     12  C   UNL d   1     -52.147  25.361  33.408  0.00  0.00     0.000 A 
ATOM     13  C   UNL d   1     -52.408  26.132  33.512  0.00  0.00     0.001 A 
ATOM     14  C   UNL d   1     -51.859  26.753  33.515  0.00  0.00     0.013 A 
ENDBRANCH   6   9
ENDBRANCH   1   6
BRANCH   2  15
ATOM     15  S   UNL d   1     -48.965  27.687  34.207  0.00  0.00    -0.049 SA
BRANCH  15  16
ATOM     16  C   UNL d   1     -48.254  27.801  34.612  0.00  0.00     0.040 C 
BRANCH  16  17
ATOM     17  C   UNL d   1     -48.155  28.471  35.083  0.00  0.00     0.026 A 
ATOM     18  C   UNL d   1     -47.698  29.120  34.800  0.00  0.00     0.099 A 
ATOM     19  N   UNL d   1     -47.590  29.795  35.258  0.00  0.00    -0.242 NA
ATOM     20  C   UNL d   1     -47.940  29.827  36.005  0.00  0.00     0.099 A 
ATOM     21  C   UNL d   1     -48.389  29.195  36.287  0.00  0.00     0.021 A 
ATOM     22  C   UNL d   1     -48.495  28.518  35.825  0.00  0.00     0.004 A 
ENDBRANCH  16  17
ENDBRANCH  15  16
ENDBRANCH   2  15
TORSDOF 5
ENDMDL
MODEL 2
REMARK VINA RESULT:      58.3      2.689      3.503
REMARK  5 active torsions:
REMARK  status: ('A' for Active; 'I' for Inactive)
REMARK    1  A    between atoms: N_2  and  S_1 
REMARK    2  A    between atoms: C_8  and  S_1 
REMARK    3  A    between atoms: S_5  and  C_3 
REMARK    4  A    between atoms: C_13  and  S_5 
REMARK    5  A    between atoms: C_12  and  C_13 
ROOT
ATOM      1  N   UNL d   1     -51.697  25.612  33.780  0.00  0.00    -0.208 N 
ATOM      2  C   UNL d   1     -52.016  25.677  34.546  0.00  0.00     0.189 A 
ATOM      3  N   UNL d   1     -52.752  25.295  34.554  0.00  0.00    -0.219 NA
ATOM      4  C   UNL d   1     -52.242  25.187  33.311  0.00  0.00     0.114 A 
ATOM      5  C   UNL d   1     -52.888  24.995  33.792  0.00  0.00     0.121 A 
ENDROOT
BRANCH   1   6
ATOM      6  S   UNL d   1     -50.967  25.917  33.529  0.00  0.00     0.273 S 
ATOM      7  O   UNL d   1     -51.300  26.665  33.589  0.00  0.00    -0.200 OA
ATOM      8  O   UNL d   1     -50.364  26.442  33.306  0.00  0.00    -0.200 OA
BRANCH   6   9
ATOM      9  C   UNL d   1     -50.613  25.172  33.463  0.00  0.00     0.104 A 
ATOM     10  C   UNL d   1     -51.085  24.508  33.372  0.00  0.00     0.013 A 
ATOM     11  C   UNL d   1     -50.732  23.767  33.306  0.00  0.00     0.001 A 
ATOM     12  C   UNL d   1     -49.911  23.697  33.331  0.00  0.00     0.000 A 
ATOM     13  C   UNL d   1     -49.443  24.365  33.423  0.00  0.00     0.001 A 
ATOM     14  C   UNL d   1     -49.801  25.110  33.489  0.00  0.00     0.013 A 
ENDBRANCH   6   9
ENDBRANCH   1   6
BRANCH   2  15
ATOM     15  S   UNL d   1     -51.656  26.060  35.194  0.00  0.00    -0.049 SA
BRANCH  15  16
ATOM     16  C   UNL d   1     -52.124  26.365  35.803  0.00  0.00     0.040 C 
BRANCH  16  17
ATOM     17  C   UNL d   1     -51.854  26.332  36.582  0.00  0.00     0.026 A 
ATOM     18  C   UNL d   1     -51.083  26.612  36.771  0.00  0.00     0.099 A 
ATOM     19  N   UNL d   1     -50.799  26.585  37.543  0.00  0.00    -0.242 NA
ATOM     20  C   UNL d   1     -51.287  26.277  38.133  0.00  0.00     0.099 A 
ATOM     21  C   UNL d   1     -52.044  26.002  37.954  0.00  0.00     0.021 A 
ATOM     22  C   UNL d   1     -52.325  26.030  37.178  0.00  0.00     0.004 A 
ENDBRANCH  16  17
ENDBRANCH  15  16
ENDBRANCH   2  15
TORSDOF 5
ENDMDL
