MODEL 1
REMARK VINA RESULT:      22.9      0.000      0.000
REMARK  5 active torsions:
REMARK  status: ('A' for Active; 'I' for Inactive)
REMARK    1  A    between atoms: C_7  and  N_1 
REMARK    2  A    between atoms: C_14  and  N_5 
REMARK    3  A    between atoms: C_8  and  C_7 
REMARK    4  A    between atoms: C_16  and  C_14 
REMARK    5  A    between atoms: O_15  and  C_16 
ROOT
ATOM      1  N   UNL d   1      13.292  13.190  -3.938  0.00  0.00    -0.273 N 
ATOM      2  C   UNL d   1      13.041  12.472  -4.289  0.00  0.00     0.153 A 
ATOM      3  S   UNL d   1      13.062  11.779  -3.857  0.00  0.00    -0.039 SA
ATOM      4  C   UNL d   1      13.559  13.202  -3.162  0.00  0.00     0.168 A 
ATOM      5  N   UNL d   1      13.579  12.498  -2.726  0.00  0.00    -0.280 N 
ATOM      6  C   UNL d   1      13.329  11.780  -3.077  0.00  0.00     0.120 A 
ATOM      7  S   UNL d   1      12.770  12.468  -5.079  0.00  0.00    -0.052 SA
ENDROOT
BRANCH   1   8
ATOM      8  C   UNL d   1      13.265  13.887  -4.386  0.00  0.00     0.107 C 
BRANCH   8   9
ATOM      9  C   UNL d   1      13.653  14.572  -4.130  0.00  0.00     0.118 A 
ATOM     10  O   UNL d   1      13.452  15.020  -3.462  0.00  0.00    -0.304 OA
ATOM     11  C   UNL d   1      13.985  15.650  -3.420  0.00  0.00     0.123 A 
ATOM     12  C   UNL d   1      14.503  15.593  -4.047  0.00  0.00     0.029 A 
ATOM     13  C   UNL d   1      14.300  14.926  -4.487  0.00  0.00     0.028 A 
ENDBRANCH   8   9
ENDBRANCH   1   8
BRANCH   5  14
ATOM     14  C   UNL d   1      13.844  12.495  -1.949  0.00  0.00     0.108 C 
BRANCH  14  15
ATOM     15  C   UNL d   1      14.399  11.933  -1.706  0.00  0.00     0.135 C 
BRANCH  15  16
ATOM     16  O   UNL d   1      15.061  12.173  -1.279  0.00  0.00    -0.325 OA
ATOM     17  C   UNL d   1      15.232  11.816  -0.563  0.00  0.00     0.182 C 
ENDBRANCH  15  16
ENDBRANCH  14  15
ENDBRANCH   5  14
TORSDOF 5
ENDMDL
MODEL 2
REMARK VINA RESULT:      23.2      1.575      2.307
REMARK  5 active torsions:
REMARK  status: ('A' for Active; 'I' for Inactive)
REMARK    1  A    between atoms: C_7  and  N_1 
REMARK    2  A    between atoms: C_14  and  N_5 
REMARK    3  A    between atoms: C_8  and  C_7 
REMARK    4  A    between atoms: C_16  and  C_14 
REMARK    5  A    between atoms: O_15  and  C_16 
ROOT
ATOM      1  N   UNL d   1      13.233  12.572  -3.462  0.00  0.00    -0.273 N 
ATOM      2  C   UNL d   1      13.450  13.380  -3.406  0.00  0.00     0.153 A 
ATOM      3  S   UNL d   1      13.899  13.638  -2.775  0.00  0.00    -0.039 SA
ATOM      4  C   UNL d   1      13.470  12.039  -2.885  0.00  0.00     0.168 A 
ATOM      5  N   UNL d   1      13.926  12.303  -2.246  0.00  0.00    -0.280 N 
ATOM      6  C   UNL d   1      14.142  13.111  -2.190  0.00  0.00     0.120 A 
ATOM      7  S   UNL d   1      13.205  13.917  -3.998  0.00  0.00    -0.052 SA
ENDROOT
BRANCH   1   8
ATOM      8  C   UNL d   1      12.776  12.322  -4.107  0.00  0.00     0.107 C 
BRANCH   8   9
ATOM      9  C   UNL d   1      13.130  12.139  -4.832  0.00  0.00     0.118 A 
ATOM     10  O   UNL d   1      13.918  11.905  -4.940  0.00  0.00    -0.304 OA
ATOM     11  C   UNL d   1      14.029  11.781  -5.749  0.00  0.00     0.123 A 
ATOM     12  C   UNL d   1      13.327  11.934  -6.132  0.00  0.00     0.029 A 
ATOM     13  C   UNL d   1      12.769  12.156  -5.567  0.00  0.00     0.028 A 
ENDBRANCH   8   9
ENDBRANCH   1   8
BRANCH   5  14
ATOM     14  C   UNL d   1      14.170  11.781  -1.661  0.00  0.00     0.108 C 
BRANCH  14  15
ATOM     15  C   UNL d   1      14.387  12.067  -0.918  0.00  0.00     0.135 C 
BRANCH  15  16
ATOM     16  O   UNL d   1      15.182  12.198  -0.748  0.00  0.00    -0.325 OA
ATOM     17  C   UNL d   1      15.493  11.933  -0.039  0.00  0.00     0.182 C 
ENDBRANCH  15  16
ENDBRANCH  14  15
ENDBRANCH   5  14
TORSDOF 5
ENDMDL
MODEL 3
REMARK VINA RESULT:      24.9      1.710      3.573
REMARK  5 active torsions:
REMARK  status: ('A' for Active; 'I' for Inactive)
REMARK    1  A    between atoms: C_7  and  N_1 
REMARK    2  A    between atoms: C_14  and  N_5 
REMARK    3  A    between atoms: C_8  and  C_7 
REMARK    4  A    between atoms: C_16  and  C_14 
REMARK    5  A    between atoms: O_15  and  C_16 
ROOT
ATOM      1  N   UNL d   1      14.288  13.558  -2.233  0.00  0.00    -0.273 N 
ATOM      2  C   UNL d   1      14.178  14.282  -2.641  0.00  0.00     0.153 A 
ATOM      3  S   UNL d   1      13.776  14.291  -3.351  0.00  0.00    -0.039 SA
ATOM      4  C   UNL d   1      13.994  12.858  -2.544  0.00  0.00     0.168 A 
ATOM      5  N   UNL d   1      13.586  12.870  -3.265  0.00  0.00    -0.280 N 
ATOM      6  C   UNL d   1      13.476  13.594  -3.673  0.00  0.00     0.120 A 
ATOM      7  S   UNL d   1      14.481  14.990  -2.318  0.00  0.00    -0.052 SA
ENDROOT
BRANCH   1   8
ATOM      8  C   UNL d   1      14.698  13.561  -1.512  0.00  0.00     0.107 C 
BRANCH   8   9
ATOM      9  C   UNL d   1      14.668  12.908  -1.004  0.00  0.00     0.118 A 
ATOM     10  O   UNL d   1      15.247  12.318  -0.941  0.00  0.00    -0.304 OA
ATOM     11  C   UNL d   1      14.988  11.781  -0.369  0.00  0.00     0.123 A 
ATOM     12  C   UNL d   1      14.267  12.033  -0.085  0.00  0.00     0.029 A 
ATOM     13  C   UNL d   1      14.067  12.731  -0.477  0.00  0.00     0.028 A 
ENDBRANCH   8   9
ENDBRANCH   1   8
BRANCH   5  14
ATOM     14  C   UNL d   1      13.286  12.177  -3.587  0.00  0.00     0.108 C 
BRANCH  14  15
ATOM     15  C   UNL d   1      12.878  12.201  -4.305  0.00  0.00     0.135 C 
BRANCH  15  16
ATOM     16  O   UNL d   1      13.167  11.780  -4.952  0.00  0.00    -0.325 OA
ATOM     17  C   UNL d   1      12.879  11.941  -5.700  0.00  0.00     0.182 C 
ENDBRANCH  15  16
ENDBRANCH  14  15
ENDBRANCH   5  14
TORSDOF 5
ENDMDL
