MODEL 1
REMARK VINA RESULT:      -8.2      0.000      0.000
REMARK  5 active torsions:
REMARK  status: ('A' for Active; 'I' for Inactive)
REMARK    1  A    between atoms: C_7  and  C_1 
REMARK    2  A    between atoms: N_6  and  C_3 
REMARK       I    between atoms: C_8  and  N_6 
REMARK    3  A    between atoms: C_9  and  C_8 
REMARK    4  A    between atoms: C_11  and  C_9 
REMARK    5  A    between atoms: C_16  and  C_11 
ROOT
ATOM      1  N   UNL d   1      50.694  33.913  53.139  0.00  0.00    -0.165 NA
ATOM      2  C   UNL d   1      51.464  34.057  52.918  0.00  0.00     0.282 C 
ATOM      3  O   UNL d   1      51.636  34.623  52.344  0.00  0.00    -0.265 OA
ENDROOT
BRANCH   1   4
ATOM      4  C   UNL d   1      50.077  34.331  52.791  0.00  0.00     0.297 A 
ATOM      5  O   UNL d   1      49.593  34.873  53.175  0.00  0.00    -0.252 OA
ATOM      6  C   UNL d   1      49.050  35.163  52.625  0.00  0.00     0.229 A 
ATOM      7  N   UNL d   1      49.205  34.798  51.909  0.00  0.00    -0.117 NA
ATOM      8  N   UNL d   1      49.838  34.285  52.012  0.00  0.00    -0.101 NA
BRANCH   6   9
ATOM      9  C   UNL d   1      48.462  35.720  52.779  0.00  0.00     0.143 A 
ATOM     10  O   UNL d   1      48.461  36.266  53.389  0.00  0.00    -0.301 OA
ATOM     11  C   UNL d   1      47.771  36.709  53.333  0.00  0.00     0.123 A 
ATOM     12  C   UNL d   1      47.341  36.434  52.683  0.00  0.00     0.029 A 
ATOM     13  C   UNL d   1      47.766  35.824  52.339  0.00  0.00     0.030 A 
ENDBRANCH   6   9
ENDBRANCH   1   4
BRANCH   2  14
ATOM     14  C   UNL d   1      52.082  33.637  53.269  0.00  0.00     0.063 C 
BRANCH  14  15
ATOM     15  C   UNL d   1      52.796  34.010  53.403  0.00  0.00     0.005 C 
BRANCH  15  16
ATOM     16  C   UNL d   1      53.370  33.642  53.875  0.00  0.00     0.000 A 
ATOM     17  C   UNL d   1      53.641  34.022  54.556  0.00  0.00     0.000 A 
ATOM     18  C   UNL d   1      54.212  33.656  55.025  0.00  0.00     0.000 A 
ATOM     19  C   UNL d   1      54.509  32.914  54.812  0.00  0.00     0.000 A 
ATOM     20  C   UNL d   1      54.230  32.551  54.133  0.00  0.00     0.000 A 
ATOM     21  C   UNL d   1      53.665  32.909  53.666  0.00  0.00     0.000 A 
ENDBRANCH  15  16
ENDBRANCH  14  15
ENDBRANCH   2  14
TORSDOF 5
ENDMDL
MODEL 2
REMARK VINA RESULT:      -8.0      1.346      5.381
REMARK  5 active torsions:
REMARK  status: ('A' for Active; 'I' for Inactive)
REMARK    1  A    between atoms: C_7  and  C_1 
REMARK    2  A    between atoms: N_6  and  C_3 
REMARK       I    between atoms: C_8  and  N_6 
REMARK    3  A    between atoms: C_9  and  C_8 
REMARK    4  A    between atoms: C_11  and  C_9 
REMARK    5  A    between atoms: C_16  and  C_11 
ROOT
ATOM      1  N   UNL d   1      51.559  34.098  52.535  0.00  0.00    -0.165 NA
ATOM      2  C   UNL d   1      50.792  34.021  52.795  0.00  0.00     0.282 C 
ATOM      3  O   UNL d   1      50.602  33.476  53.384  0.00  0.00    -0.265 OA
ENDROOT
BRANCH   1   4
ATOM      4  C   UNL d   1      52.155  33.632  52.857  0.00  0.00     0.297 A 
ATOM      5  O   UNL d   1      52.637  33.844  53.489  0.00  0.00    -0.252 OA
ATOM      6  C   UNL d   1      53.156  33.219  53.633  0.00  0.00     0.229 A 
ATOM      7  N   UNL d   1      52.991  32.630  53.090  0.00  0.00    -0.117 NA
ATOM      8  N   UNL d   1      52.373  32.884  52.612  0.00  0.00    -0.101 NA
BRANCH   6   9
ATOM      9  C   UNL d   1      53.736  33.202  54.220  0.00  0.00     0.143 A 
ATOM     10  O   UNL d   1      53.646  32.904  54.978  0.00  0.00    -0.301 OA
ATOM     11  C   UNL d   1      54.360  32.999  55.374  0.00  0.00     0.123 A 
ATOM     12  C   UNL d   1      54.895  33.358  54.857  0.00  0.00     0.029 A 
ATOM     13  C   UNL d   1      54.511  33.484  54.144  0.00  0.00     0.030 A 
ENDBRANCH   6   9
ENDBRANCH   1   4
BRANCH   2  14
ATOM     14  C   UNL d   1      50.194  34.490  52.471  0.00  0.00     0.063 C 
BRANCH  14  15
ATOM     15  C   UNL d   1      49.498  34.595  52.885  0.00  0.00     0.005 C 
BRANCH  15  16
ATOM     16  C   UNL d   1      48.882  35.037  52.548  0.00  0.00     0.000 A 
ATOM     17  C   UNL d   1      48.540  35.652  52.979  0.00  0.00     0.000 A 
ATOM     18  C   UNL d   1      47.927  36.091  52.643  0.00  0.00     0.000 A 
ATOM     19  C   UNL d   1      47.660  35.913  51.881  0.00  0.00     0.000 A 
ATOM     20  C   UNL d   1      48.011  35.298  51.467  0.00  0.00     0.000 A 
ATOM     21  C   UNL d   1      48.617  34.862  51.794  0.00  0.00     0.000 A 
ENDBRANCH  15  16
ENDBRANCH  14  15
ENDBRANCH   2  14
TORSDOF 5
ENDMDL
MODEL 3
REMARK VINA RESULT:      -7.1      1.880      2.493
REMARK  5 active torsions:
REMARK  status: ('A' for Active; 'I' for Inactive)
REMARK    1  A    between atoms: C_7  and  C_1 
REMARK    2  A    between atoms: N_6  and  C_3 
REMARK       I    between atoms: C_8  and  N_6 
REMARK    3  A    between atoms: C_9  and  C_8 
REMARK    4  A    between atoms: C_11  and  C_9 
REMARK    5  A    between atoms: C_16  and  C_11 
ROOT
ATOM      1  N   UNL d   1      51.891  33.091  53.544  0.00  0.00    -0.165 NA
ATOM      2  C   UNL d   1      52.385  32.685  53.040  0.00  0.00     0.282 C 
ATOM      3  O   UNL d   1      52.466  32.920  52.254  0.00  0.00    -0.265 OA
ENDROOT
BRANCH   1   4
ATOM      4  C   UNL d   1      51.467  33.741  53.274  0.00  0.00     0.297 A 
ATOM      5  O   UNL d   1      50.668  33.740  53.077  0.00  0.00    -0.252 OA
ATOM      6  C   UNL d   1      50.466  34.502  52.834  0.00  0.00     0.229 A 
ATOM      7  N   UNL d   1      51.139  34.964  52.883  0.00  0.00    -0.117 NA
ATOM      8  N   UNL d   1      51.755  34.495  53.155  0.00  0.00    -0.101 NA
BRANCH   6   9
ATOM      9  C   UNL d   1      49.716  34.744  52.587  0.00  0.00     0.143 A 
ATOM     10  O   UNL d   1      49.179  35.176  53.028  0.00  0.00    -0.301 OA
ATOM     11  C   UNL d   1      48.508  35.293  52.567  0.00  0.00     0.123 A 
ATOM     12  C   UNL d   1      48.632  34.930  51.835  0.00  0.00     0.029 A 
ATOM     13  C   UNL d   1      49.378  34.591  51.846  0.00  0.00     0.030 A 
ENDBRANCH   6   9
ENDBRANCH   1   4
BRANCH   2  14
ATOM     14  C   UNL d   1      52.811  32.033  53.312  0.00  0.00     0.063 C 
BRANCH  14  15
ATOM     15  C   UNL d   1      52.808  31.341  52.877  0.00  0.00     0.005 C 
BRANCH  15  16
ATOM     16  C   UNL d   1      52.989  30.622  53.247  0.00  0.00     0.000 A 
ATOM     17  C   UNL d   1      53.687  30.552  53.681  0.00  0.00     0.000 A 
ATOM     18  C   UNL d   1      53.867  29.835  54.049  0.00  0.00     0.000 A 
ATOM     19  C   UNL d   1      53.349  29.194  53.981  0.00  0.00     0.000 A 
ATOM     20  C   UNL d   1      52.660  29.281  53.546  0.00  0.00     0.000 A 
ATOM     21  C   UNL d   1      52.478  29.986  53.181  0.00  0.00     0.000 A 
ENDBRANCH  15  16
ENDBRANCH  14  15
ENDBRANCH   2  14
TORSDOF 5
ENDMDL
MODEL 4
REMARK VINA RESULT:      -5.5     10.224     10.914
REMARK  5 active torsions:
REMARK  status: ('A' for Active; 'I' for Inactive)
REMARK    1  A    between atoms: C_7  and  C_1 
REMARK    2  A    between atoms: N_6  and  C_3 
REMARK       I    between atoms: C_8  and  N_6 
REMARK    3  A    between atoms: C_9  and  C_8 
REMARK    4  A    between atoms: C_11  and  C_9 
REMARK    5  A    between atoms: C_16  and  C_11 
ROOT
ATOM      1  N   UNL d   1      45.409  27.032  56.734  0.00  0.00    -0.165 NA
ATOM      2  C   UNL d   1      44.888  26.407  56.707  0.00  0.00     0.282 C 
ATOM      3  O   UNL d   1      44.314  26.314  57.291  0.00  0.00    -0.265 OA
ENDROOT
BRANCH   1   4
ATOM      4  C   UNL d   1      45.367  27.580  57.346  0.00  0.00     0.297 A 
ATOM      5  O   UNL d   1      45.158  28.371  57.264  0.00  0.00    -0.252 OA
ATOM      6  C   UNL d   1      45.186  28.720  58.011  0.00  0.00     0.229 A 
ATOM      7  N   UNL d   1      45.412  28.143  58.545  0.00  0.00    -0.117 NA
ATOM      8  N   UNL d   1      45.523  27.440  58.135  0.00  0.00    -0.101 NA
BRANCH   6   9
ATOM      9  C   UNL d   1      45.016  29.510  58.180  0.00  0.00     0.143 A 
ATOM     10  O   UNL d   1      44.489  29.987  57.774  0.00  0.00    -0.301 OA
ATOM     11  C   UNL d   1      44.493  30.729  58.128  0.00  0.00     0.123 A 
ATOM     12  C   UNL d   1      45.028  30.710  58.758  0.00  0.00     0.029 A 
ATOM     13  C   UNL d   1      45.351  29.958  58.791  0.00  0.00     0.030 A 
ENDBRANCH   6   9
ENDBRANCH   1   4
BRANCH   2  14
ATOM     14  C   UNL d   1      44.931  25.858  56.092  0.00  0.00     0.063 C 
BRANCH  14  15
ATOM     15  C   UNL d   1      44.605  25.115  56.193  0.00  0.00     0.005 C 
BRANCH  15  16
ATOM     16  C   UNL d   1      44.665  24.553  55.587  0.00  0.00     0.000 A 
ATOM     17  C   UNL d   1      45.057  23.841  55.730  0.00  0.00     0.000 A 
ATOM     18  C   UNL d   1      45.117  23.282  55.126  0.00  0.00     0.000 A 
ATOM     19  C   UNL d   1      44.786  23.437  54.384  0.00  0.00     0.000 A 
ATOM     20  C   UNL d   1      44.400  24.150  54.259  0.00  0.00     0.000 A 
ATOM     21  C   UNL d   1      44.338  24.705  54.853  0.00  0.00     0.000 A 
ENDBRANCH  15  16
ENDBRANCH  14  15
ENDBRANCH   2  14
TORSDOF 5
ENDMDL
MODEL 5
REMARK VINA RESULT:      -5.4     10.824     11.751
REMARK  5 active torsions:
REMARK  status: ('A' for Active; 'I' for Inactive)
REMARK    1  A    between atoms: C_7  and  C_1 
REMARK    2  A    between atoms: N_6  and  C_3 
REMARK       I    between atoms: C_8  and  N_6 
REMARK    3  A    between atoms: C_9  and  C_8 
REMARK    4  A    between atoms: C_11  and  C_9 
REMARK    5  A    between atoms: C_16  and  C_11 
ROOT
ATOM      1  N   UNL d   1      44.376  26.065  56.626  0.00  0.00    -0.165 NA
ATOM      2  C   UNL d   1      44.942  26.646  56.699  0.00  0.00     0.282 C 
ATOM      3  O   UNL d   1      45.698  26.536  56.389  0.00  0.00    -0.265 OA
ENDROOT
BRANCH   1   4
ATOM      4  C   UNL d   1      44.553  25.360  56.241  0.00  0.00     0.297 A 
ATOM      5  O   UNL d   1      44.778  24.660  56.611  0.00  0.00    -0.252 OA
ATOM      6  C   UNL d   1      44.902  24.093  56.024  0.00  0.00     0.229 A 
ATOM      7  N   UNL d   1      44.754  24.447  55.302  0.00  0.00    -0.117 NA
ATOM      8  N   UNL d   1      44.539  25.228  55.436  0.00  0.00    -0.101 NA
BRANCH   6   9
ATOM      9  C   UNL d   1      45.135  23.312  56.154  0.00  0.00     0.143 A 
ATOM     10  O   UNL d   1      45.081  22.903  56.861  0.00  0.00    -0.301 OA
ATOM     11  C   UNL d   1      45.374  22.145  56.739  0.00  0.00     0.123 A 
ATOM     12  C   UNL d   1      45.611  22.085  55.949  0.00  0.00     0.029 A 
ATOM     13  C   UNL d   1      45.464  22.804  55.587  0.00  0.00     0.030 A 
ENDBRANCH   6   9
ENDBRANCH   1   4
BRANCH   2  14
ATOM     14  C   UNL d   1      44.763  27.354  57.084  0.00  0.00     0.063 C 
BRANCH  14  15
ATOM     15  C   UNL d   1      45.308  27.963  57.079  0.00  0.00     0.005 C 
BRANCH  15  16
ATOM     16  C   UNL d   1      45.125  28.681  57.452  0.00  0.00     0.000 A 
ATOM     17  C   UNL d   1      45.221  28.751  58.268  0.00  0.00     0.000 A 
ATOM     18  C   UNL d   1      45.040  29.465  58.639  0.00  0.00     0.000 A 
ATOM     19  C   UNL d   1      44.765  30.104  58.193  0.00  0.00     0.000 A 
ATOM     20  C   UNL d   1      44.675  30.018  57.382  0.00  0.00     0.000 A 
ATOM     21  C   UNL d   1      44.853  29.314  57.012  0.00  0.00     0.000 A 
ENDBRANCH  15  16
ENDBRANCH  14  15
ENDBRANCH   2  14
TORSDOF 5
ENDMDL
