MODEL 1
REMARK VINA RESULT:      -4.5      0.000      0.000
REMARK  3 active torsions:
REMARK  status: ('A' for Active; 'I' for Inactive)
REMARK    1  A    between atoms: C_12  and  C_4 
REMARK    2  A    between atoms: S_8  and  C_12 
REMARK    3  A    between atoms: C_11  and  S_8 
ROOT
ATOM      1  N   UNL d   1      56.287  -0.525  32.472  0.00  0.00    -0.289 N 
ATOM      2  C   UNL d   1      56.287   0.317  32.550  0.00  0.00     0.148 A 
ATOM      3  N   UNL d   1      56.737   0.634  31.912  0.00  0.00    -0.226 NA
ATOM      4  C   UNL d   1      56.992  -0.013  31.474  0.00  0.00     0.107 A 
ATOM      5  C   UNL d   1      56.737  -0.693  31.790  0.00  0.00     0.101 A 
ATOM      6  C   UNL d   1      55.889  -0.969  33.023  0.00  0.00     0.066 A 
ATOM      7  C   UNL d   1      55.888   0.681  33.174  0.00  0.00     0.037 A 
ATOM      8  C   UNL d   1      55.487   0.209  33.726  0.00  0.00     0.005 A 
ATOM      9  C   UNL d   1      55.487  -0.599  33.652  0.00  0.00     0.018 A 
ATOM     10  C   UNL d   1      55.889  -1.808  32.946  0.00  0.00     0.019 C 
ENDROOT
BRANCH   4  11
ATOM     11  C   UNL d   1      57.464   0.086  30.783  0.00  0.00     0.056 C 
BRANCH  11  12
ATOM     12  S   UNL d   1      58.242   0.328  30.893  0.00  0.00    -0.083 SA
BRANCH  12  13
ATOM     13  C   UNL d   1      58.754   0.404  30.223  0.00  0.00     0.049 A 
ATOM     14  C   UNL d   1      59.549   0.577  30.332  0.00  0.00     0.109 A 
ATOM     15  N   UNL d   1      59.863   0.682  31.131  0.00  0.00    -0.148 N 
ATOM     16  C   UNL d   1      60.048   0.651  29.680  0.00  0.00     0.021 A 
ATOM     17  C   UNL d   1      59.746   0.551  28.926  0.00  0.00     0.002 A 
ATOM     18  C   UNL d   1      58.991   0.386  28.815  0.00  0.00     0.001 A 
ATOM     19  C   UNL d   1      58.452   0.304  29.462  0.00  0.00     0.008 A 
ENDBRANCH  12  13
ENDBRANCH  11  12
ENDBRANCH   4  11
TORSDOF 3
ENDMDL
MODEL 2
REMARK VINA RESULT:      -2.5     10.014     10.459
REMARK  3 active torsions:
REMARK  status: ('A' for Active; 'I' for Inactive)
REMARK    1  A    between atoms: C_12  and  C_4 
REMARK    2  A    between atoms: S_8  and  C_12 
REMARK    3  A    between atoms: C_11  and  S_8 
ROOT
ATOM      1  N   UNL d   1      58.225  -9.815  30.722  0.00  0.00    -0.289 N 
ATOM      2  C   UNL d   1      57.431  -9.817  31.012  0.00  0.00     0.148 A 
ATOM      3  N   UNL d   1      57.464  -9.817  31.853  0.00  0.00    -0.226 NA
ATOM      4  C   UNL d   1      58.264  -9.815  32.046  0.00  0.00     0.107 A 
ATOM      5  C   UNL d   1      58.716  -9.814  31.396  0.00  0.00     0.101 A 
ATOM      6  C   UNL d   1      58.350  -9.814  29.919  0.00  0.00     0.066 A 
ATOM      7  C   UNL d   1      56.793  -9.818  30.488  0.00  0.00     0.037 A 
ATOM      8  C   UNL d   1      56.941  -9.817  29.671  0.00  0.00     0.005 A 
ATOM      9  C   UNL d   1      57.703  -9.815  29.393  0.00  0.00     0.018 A 
ATOM     10  C   UNL d   1      59.141  -9.812  29.631  0.00  0.00     0.019 C 
ENDROOT
BRANCH   4  11
ATOM     11  C   UNL d   1      58.519  -9.815  32.849  0.00  0.00     0.056 C 
BRANCH  11  12
ATOM     12  S   UNL d   1      59.310  -9.640  32.990  0.00  0.00    -0.083 SA
BRANCH  12  13
ATOM     13  C   UNL d   1      59.579  -9.540  33.787  0.00  0.00     0.049 A 
ATOM     14  C   UNL d   1      60.339  -9.266  33.932  0.00  0.00     0.109 A 
ATOM     15  N   UNL d   1      60.864  -9.081  33.271  0.00  0.00    -0.148 N 
ATOM     16  C   UNL d   1      60.601  -9.168  34.707  0.00  0.00     0.021 A 
ATOM     17  C   UNL d   1      60.100  -9.344  35.329  0.00  0.00     0.002 A 
ATOM     18  C   UNL d   1      59.375  -9.605  35.199  0.00  0.00     0.001 A 
ATOM     19  C   UNL d   1      59.075  -9.717  34.416  0.00  0.00     0.008 A 
ENDBRANCH  12  13
ENDBRANCH  11  12
ENDBRANCH   4  11
TORSDOF 3
ENDMDL
MODEL 3
REMARK VINA RESULT:      -1.6      9.698      9.935
REMARK  3 active torsions:
REMARK  status: ('A' for Active; 'I' for Inactive)
REMARK    1  A    between atoms: C_12  and  C_4 
REMARK    2  A    between atoms: S_8  and  C_12 
REMARK    3  A    between atoms: C_11  and  S_8 
ROOT
ATOM      1  N   UNL d   1      59.764  -8.563  35.199  0.00  0.00    -0.289 N 
ATOM      2  C   UNL d   1      60.515  -8.466  34.822  0.00  0.00     0.148 A 
ATOM      3  N   UNL d   1      60.500  -8.906  34.104  0.00  0.00    -0.226 NA
ATOM      4  C   UNL d   1      59.755  -9.251  34.068  0.00  0.00     0.107 A 
ATOM      5  C   UNL d   1      59.317  -9.059  34.699  0.00  0.00     0.101 A 
ATOM      6  C   UNL d   1      59.632  -8.192  35.909  0.00  0.00     0.066 A 
ATOM      7  C   UNL d   1      61.102  -8.001  35.169  0.00  0.00     0.037 A 
ATOM      8  C   UNL d   1      60.947  -7.630  35.895  0.00  0.00     0.005 A 
ATOM      9  C   UNL d   1      60.227  -7.723  36.257  0.00  0.00     0.018 A 
ATOM     10  C   UNL d   1      58.884  -8.288  36.285  0.00  0.00     0.019 C 
ENDROOT
BRANCH   4  11
ATOM     11  C   UNL d   1      59.532  -9.740  33.418  0.00  0.00     0.056 C 
BRANCH  11  12
ATOM     12  S   UNL d   1      58.843  -9.538  33.017  0.00  0.00    -0.083 SA
BRANCH  12  13
ATOM     13  C   UNL d   1      58.806  -9.634  32.176  0.00  0.00     0.049 A 
ATOM     14  C   UNL d   1      58.078  -9.677  31.800  0.00  0.00     0.109 A 
ATOM     15  N   UNL d   1      57.350  -9.625  32.262  0.00  0.00    -0.148 N 
ATOM     16  C   UNL d   1      58.043  -9.770  30.982  0.00  0.00     0.021 A 
ATOM     17  C   UNL d   1      58.736  -9.818  30.549  0.00  0.00     0.002 A 
ATOM     18  C   UNL d   1      59.432  -9.777  30.900  0.00  0.00     0.001 A 
ATOM     19  C   UNL d   1      59.504  -9.682  31.739  0.00  0.00     0.008 A 
ENDBRANCH  12  13
ENDBRANCH  11  12
ENDBRANCH   4  11
TORSDOF 3
ENDMDL
