MODEL 1
REMARK VINA RESULT:      -9.8      0.000      0.000
REMARK  2 active torsions:
REMARK  status: ('A' for Active; 'I' for Inactive)
REMARK    1  A    between atoms: C_6  and  C_1 
REMARK    2  A    between atoms: C_9  and  C_2 
ROOT
ATOM      1  C   UNL d   1      53.271  31.936  53.334  0.00  0.00     0.039 A 
ATOM      2  C   UNL d   1      52.498  32.126  53.137  0.00  0.00     0.120 A 
ATOM      3  N   UNL d   1      52.057  31.427  53.106  0.00  0.00    -0.164 NA
ATOM      4  N   UNL d   1      52.565  30.810  53.285  0.00  0.00    -0.228 N 
ATOM      5  C   UNL d   1      53.317  31.123  53.426  0.00  0.00     0.085 A 
ATOM      6  C   UNL d   1      52.612  29.988  53.379  0.00  0.00     0.101 A 
ATOM      7  C   UNL d   1      53.827  30.491  53.607  0.00  0.00     0.021 A 
ATOM      8  C   UNL d   1      53.389  29.795  53.577  0.00  0.00     0.022 A 
ENDROOT
BRANCH   1   9
ATOM      9  C   UNL d   1      53.896  32.466  53.424  0.00  0.00     0.006 A 
ATOM     10  C   UNL d   1      54.123  32.712  54.167  0.00  0.00     0.018 A 
ATOM     11  C   UNL d   1      54.748  33.242  54.258  0.00  0.00     0.085 A 
ATOM     12  C   UNL d   1      53.724  32.428  54.836  0.00  0.00     0.005 A 
ATOM     13  C   UNL d   1      54.980  33.493  55.017  0.00  0.00     0.061 A 
ATOM     14  N   UNL d   1      55.147  33.525  53.592  0.00  0.00    -0.244 NA
ATOM     15  C   UNL d   1      54.575  33.204  55.678  0.00  0.00     0.197 A 
ATOM     16  C   UNL d   1      53.956  32.680  55.588  0.00  0.00     0.042 A 
ATOM     17  O   UNL d   1      54.808  33.455  56.429  0.00  0.00    -0.286 OA
ATOM     18  C   UNL d   1      54.920  33.279  52.841  0.00  0.00     0.099 A 
ATOM     19  C   UNL d   1      54.292  32.747  52.755  0.00  0.00     0.021 A 
ENDBRANCH   1   9
BRANCH   2  20
ATOM     20  C   UNL d   1      52.205  32.883  52.993  0.00  0.00     0.101 A 
ATOM     21  N   UNL d   1      52.344  33.249  52.271  0.00  0.00    -0.242 NA
ATOM     22  C   UNL d   1      52.057  33.997  52.124  0.00  0.00     0.099 A 
ATOM     23  C   UNL d   1      51.619  34.395  52.708  0.00  0.00     0.021 A 
ATOM     24  C   UNL d   1      51.478  34.027  53.436  0.00  0.00     0.003 A 
ATOM     25  C   UNL d   1      51.775  33.271  53.571  0.00  0.00     0.021 A 
ENDBRANCH   2  20
TORSDOF 2
ENDMDL
MODEL 2
REMARK VINA RESULT:      -9.7      0.672      2.519
REMARK  2 active torsions:
REMARK  status: ('A' for Active; 'I' for Inactive)
REMARK    1  A    between atoms: C_6  and  C_1 
REMARK    2  A    between atoms: C_9  and  C_2 
ROOT
ATOM      1  C   UNL d   1      52.895  32.829  53.312  0.00  0.00     0.039 A 
ATOM      2  C   UNL d   1      52.461  32.133  53.304  0.00  0.00     0.120 A 
ATOM      3  N   UNL d   1      51.665  32.321  53.180  0.00  0.00    -0.164 NA
ATOM      4  N   UNL d   1      51.617  33.136  53.112  0.00  0.00    -0.228 N 
ATOM      5  C   UNL d   1      52.375  33.452  53.194  0.00  0.00     0.085 A 
ATOM      6  C   UNL d   1      51.092  33.767  52.993  0.00  0.00     0.101 A 
ATOM      7  C   UNL d   1      52.317  34.279  53.124  0.00  0.00     0.021 A 
ATOM      8  C   UNL d   1      51.526  34.469  53.001  0.00  0.00     0.022 A 
ENDROOT
BRANCH   1   9
ATOM      9  C   UNL d   1      53.709  32.896  53.420  0.00  0.00     0.006 A 
ATOM     10  C   UNL d   1      54.010  33.156  54.132  0.00  0.00     0.018 A 
ATOM     11  C   UNL d   1      54.824  33.223  54.239  0.00  0.00     0.085 A 
ATOM     12  C   UNL d   1      53.495  33.355  54.750  0.00  0.00     0.005 A 
ATOM     13  C   UNL d   1      55.132  33.489  54.966  0.00  0.00     0.061 A 
ATOM     14  N   UNL d   1      55.339  33.025  53.624  0.00  0.00    -0.244 NA
ATOM     15  C   UNL d   1      54.610  33.685  55.576  0.00  0.00     0.197 A 
ATOM     16  C   UNL d   1      53.803  33.619  55.470  0.00  0.00     0.042 A 
ATOM     17  O   UNL d   1      54.918  33.949  56.296  0.00  0.00    -0.286 OA
ATOM     18  C   UNL d   1      55.039  32.762  52.906  0.00  0.00     0.099 A 
ATOM     19  C   UNL d   1      54.220  32.696  52.801  0.00  0.00     0.021 A 
ENDBRANCH   1   9
BRANCH   2  20
ATOM     20  C   UNL d   1      52.762  31.372  53.402  0.00  0.00     0.101 A 
ATOM     21  N   UNL d   1      52.827  31.047  54.155  0.00  0.00    -0.242 NA
ATOM     22  C   UNL d   1      53.124  30.296  54.257  0.00  0.00     0.099 A 
ATOM     23  C   UNL d   1      53.364  29.851  53.597  0.00  0.00     0.021 A 
ATOM     24  C   UNL d   1      53.299  30.177  52.838  0.00  0.00     0.003 A 
ATOM     25  C   UNL d   1      52.997  30.938  52.750  0.00  0.00     0.021 A 
ENDBRANCH   2  20
TORSDOF 2
ENDMDL
MODEL 3
REMARK VINA RESULT:      -9.6      1.481      2.894
REMARK  2 active torsions:
REMARK  status: ('A' for Active; 'I' for Inactive)
REMARK    1  A    between atoms: C_6  and  C_1 
REMARK    2  A    between atoms: C_9  and  C_2 
ROOT
ATOM      1  C   UNL d   1      53.279  32.307  53.448  0.00  0.00     0.039 A 
ATOM      2  C   UNL d   1      53.722  32.215  54.132  0.00  0.00     0.120 A 
ATOM      3  N   UNL d   1      53.795  31.406  54.290  0.00  0.00    -0.164 NA
ATOM      4  N   UNL d   1      53.394  31.006  53.698  0.00  0.00    -0.228 N 
ATOM      5  C   UNL d   1      53.074  31.561  53.176  0.00  0.00     0.085 A 
ATOM      6  C   UNL d   1      53.187  30.252  53.422  0.00  0.00     0.101 A 
ATOM      7  C   UNL d   1      52.670  31.147  52.578  0.00  0.00     0.021 A 
ATOM      8  C   UNL d   1      52.742  30.343  52.734  0.00  0.00     0.022 A 
ENDROOT
BRANCH   1   9
ATOM      9  C   UNL d   1      53.073  33.021  53.092  0.00  0.00     0.006 A 
ATOM     10  C   UNL d   1      52.305  33.293  53.128  0.00  0.00     0.018 A 
ATOM     11  C   UNL d   1      52.099  34.007  52.772  0.00  0.00     0.085 A 
ATOM     12  C   UNL d   1      51.728  32.848  53.524  0.00  0.00     0.005 A 
ATOM     13  C   UNL d   1      51.314  34.284  52.809  0.00  0.00     0.061 A 
ATOM     14  N   UNL d   1      52.673  34.451  52.377  0.00  0.00    -0.244 NA
ATOM     15  C   UNL d   1      50.746  33.833  53.206  0.00  0.00     0.197 A 
ATOM     16  C   UNL d   1      50.950  33.126  53.558  0.00  0.00     0.042 A 
ATOM     17  O   UNL d   1      49.969  34.111  53.240  0.00  0.00    -0.286 OA
ATOM     18  C   UNL d   1      53.448  34.181  52.340  0.00  0.00     0.099 A 
ATOM     19  C   UNL d   1      53.651  33.462  52.698  0.00  0.00     0.021 A 
ENDBRANCH   1   9
BRANCH   2  20
ATOM     20  C   UNL d   1      54.042  32.822  54.589  0.00  0.00     0.101 A 
ATOM     21  N   UNL d   1      53.611  33.141  55.212  0.00  0.00    -0.242 NA
ATOM     22  C   UNL d   1      53.922  33.740  55.667  0.00  0.00     0.099 A 
ATOM     23  C   UNL d   1      54.682  34.034  55.501  0.00  0.00     0.021 A 
ATOM     24  C   UNL d   1      55.118  33.714  54.874  0.00  0.00     0.003 A 
ATOM     25  C   UNL d   1      54.790  33.107  54.423  0.00  0.00     0.021 A 
ENDBRANCH   2  20
TORSDOF 2
ENDMDL
MODEL 4
REMARK VINA RESULT:      -7.8      1.516      3.297
REMARK  2 active torsions:
REMARK  status: ('A' for Active; 'I' for Inactive)
REMARK    1  A    between atoms: C_6  and  C_1 
REMARK    2  A    between atoms: C_9  and  C_2 
ROOT
ATOM      1  C   UNL d   1      53.036  33.243  53.454  0.00  0.00     0.039 A 
ATOM      2  C   UNL d   1      53.149  33.722  54.110  0.00  0.00     0.120 A 
ATOM      3  N   UNL d   1      52.581  34.324  54.096  0.00  0.00    -0.164 NA
ATOM      4  N   UNL d   1      52.122  34.208  53.428  0.00  0.00    -0.228 N 
ATOM      5  C   UNL d   1      52.401  33.540  53.029  0.00  0.00     0.085 A 
ATOM      6  C   UNL d   1      51.479  34.508  52.998  0.00  0.00     0.101 A 
ATOM      7  C   UNL d   1      51.929  33.430  52.353  0.00  0.00     0.021 A 
ATOM      8  C   UNL d   1      51.364  34.027  52.338  0.00  0.00     0.022 A 
ENDROOT
BRANCH   1   9
ATOM      9  C   UNL d   1      53.479  32.578  53.253  0.00  0.00     0.006 A 
ATOM     10  C   UNL d   1      53.153  31.833  53.310  0.00  0.00     0.018 A 
ATOM     11  C   UNL d   1      53.597  31.168  53.109  0.00  0.00     0.085 A 
ATOM     12  C   UNL d   1      52.372  31.743  53.572  0.00  0.00     0.005 A 
ATOM     13  C   UNL d   1      53.263  30.407  53.167  0.00  0.00     0.061 A 
ATOM     14  N   UNL d   1      54.376  31.256  52.848  0.00  0.00    -0.244 NA
ATOM     15  C   UNL d   1      52.483  30.328  53.429  0.00  0.00     0.197 A 
ATOM     16  C   UNL d   1      52.044  30.986  53.628  0.00  0.00     0.042 A 
ATOM     17  O   UNL d   1      52.156  29.572  53.486  0.00  0.00    -0.286 OA
ATOM     18  C   UNL d   1      54.707  32.005  52.789  0.00  0.00     0.099 A 
ATOM     19  C   UNL d   1      54.258  32.671  52.992  0.00  0.00     0.021 A 
ENDBRANCH   1   9
BRANCH   2  20
ATOM     20  C   UNL d   1      53.729  33.626  54.688  0.00  0.00     0.101 A 
ATOM     21  N   UNL d   1      53.581  33.156  55.346  0.00  0.00    -0.242 NA
ATOM     22  C   UNL d   1      54.151  33.057  55.920  0.00  0.00     0.099 A 
ATOM     23  C   UNL d   1      54.888  33.434  55.842  0.00  0.00     0.021 A 
ATOM     24  C   UNL d   1      55.038  33.908  55.179  0.00  0.00     0.003 A 
ATOM     25  C   UNL d   1      54.452  33.999  54.607  0.00  0.00     0.021 A 
ENDBRANCH   2  20
TORSDOF 2
ENDMDL
MODEL 5
REMARK VINA RESULT:      -7.4      1.410      2.724
REMARK  2 active torsions:
REMARK  status: ('A' for Active; 'I' for Inactive)
REMARK    1  A    between atoms: C_6  and  C_1 
REMARK    2  A    between atoms: C_9  and  C_2 
ROOT
ATOM      1  C   UNL d   1      53.409  33.037  53.915  0.00  0.00     0.039 A 
ATOM      2  C   UNL d   1      52.843  33.622  54.019  0.00  0.00     0.120 A 
ATOM      3  N   UNL d   1      53.136  34.176  54.558  0.00  0.00    -0.164 NA
ATOM      4  N   UNL d   1      53.883  33.925  54.783  0.00  0.00    -0.228 N 
ATOM      5  C   UNL d   1      54.054  33.221  54.387  0.00  0.00     0.085 A 
ATOM      6  C   UNL d   1      54.535  34.111  55.260  0.00  0.00     0.101 A 
ATOM      7  C   UNL d   1      54.813  32.974  54.620  0.00  0.00     0.021 A 
ATOM      8  C   UNL d   1      55.105  33.524  55.157  0.00  0.00     0.022 A 
ENDROOT
BRANCH   1   9
ATOM      9  C   UNL d   1      53.345  32.378  53.425  0.00  0.00     0.006 A 
ATOM     10  C   UNL d   1      53.278  31.631  53.745  0.00  0.00     0.018 A 
ATOM     11  C   UNL d   1      53.214  30.972  53.254  0.00  0.00     0.085 A 
ATOM     12  C   UNL d   1      53.273  31.534  54.568  0.00  0.00     0.005 A 
ATOM     13  C   UNL d   1      53.145  30.209  53.582  0.00  0.00     0.061 A 
ATOM     14  N   UNL d   1      53.219  31.067  52.434  0.00  0.00    -0.244 NA
ATOM     15  C   UNL d   1      53.141  30.123  54.404  0.00  0.00     0.197 A 
ATOM     16  C   UNL d   1      53.204  30.775  54.890  0.00  0.00     0.042 A 
ATOM     17  O   UNL d   1      53.072  29.365  54.726  0.00  0.00    -0.286 OA
ATOM     18  C   UNL d   1      53.287  31.818  52.108  0.00  0.00     0.099 A 
ATOM     19  C   UNL d   1      53.351  32.478  52.604  0.00  0.00     0.021 A 
ENDBRANCH   1   9
BRANCH   2  20
ATOM     20  C   UNL d   1      52.107  33.656  53.650  0.00  0.00     0.101 A 
ATOM     21  N   UNL d   1      51.457  33.286  53.990  0.00  0.00    -0.242 NA
ATOM     22  C   UNL d   1      50.727  33.318  53.630  0.00  0.00     0.099 A 
ATOM     23  C   UNL d   1      50.637  33.726  52.911  0.00  0.00     0.021 A 
ATOM     24  C   UNL d   1      51.291  34.099  52.567  0.00  0.00     0.003 A 
ATOM     25  C   UNL d   1      52.023  34.059  52.943  0.00  0.00     0.021 A 
ENDBRANCH   2  20
TORSDOF 2
ENDMDL
