MODEL 1
REMARK VINA RESULT:     107.1      0.000      0.000
REMARK  7 active torsions:
REMARK  status: ('A' for Active; 'I' for Inactive)
REMARK    1  A    between atoms: C_7  and  C_1 
REMARK    2  A    between atoms: N_5  and  C_2 
REMARK       I    between atoms: C_8  and  N_5 
REMARK    3  A    between atoms: N_9  and  C_7 
REMARK    4  A    between atoms: C_11  and  C_7 
REMARK    5  A    between atoms: C_15  and  C_8 
REMARK    6  A    between atoms: O_25  and  C_20 
REMARK    7  A    between atoms: C_29  and  O_25 
ROOT
ATOM      1  C   UNL d   1     -50.371  27.016  35.127  0.00  0.00     0.066 C 
ENDROOT
BRANCH   1   2
ATOM      2  C   UNL d   1     -50.791  26.760  34.469  0.00  0.00     0.041 A 
ATOM      3  C   UNL d   1     -50.567  26.285  33.835  0.00  0.00     0.115 A 
ATOM      4  S   UNL d   1     -51.223  26.214  33.336  0.00  0.00    -0.068 SA
ATOM      5  C   UNL d   1     -51.836  26.645  33.671  0.00  0.00     0.031 A 
ATOM      6  C   UNL d   1     -51.573  26.986  34.374  0.00  0.00     0.009 A 
ATOM      7  C   UNL d   1     -52.613  26.705  33.312  0.00  0.00     0.007 C 
ATOM      8  C   UNL d   1     -52.004  27.477  34.911  0.00  0.00     0.001 C 
BRANCH   3   9
ATOM      9  N   UNL d   1     -49.836  25.932  33.696  0.00  0.00    -0.201 NA
ATOM     10  C   UNL d   1     -49.781  25.130  33.506  0.00  0.00     0.280 C 
ATOM     11  O   UNL d   1     -49.028  24.785  33.367  0.00  0.00    -0.265 OA
BRANCH  10  12
ATOM     12  C   UNL d   1     -50.462  24.682  33.455  0.00  0.00     0.058 A 
ATOM     13  C   UNL d   1     -51.183  25.050  33.358  0.00  0.00     0.005 A 
ATOM     14  C   UNL d   1     -51.862  24.607  33.308  0.00  0.00     0.000 A 
ATOM     15  C   UNL d   1     -51.828  23.798  33.353  0.00  0.00     0.000 A 
ATOM     16  C   UNL d   1     -51.104  23.419  33.451  0.00  0.00     0.000 A 
ATOM     17  C   UNL d   1     -50.415  23.860  33.503  0.00  0.00     0.005 A 
ENDBRANCH  10  12
ENDBRANCH   3   9
ENDBRANCH   1   2
BRANCH   1  18
ATOM     18  N   UNL d   1     -50.584  26.756  35.885  0.00  0.00    -0.301 N 
ATOM     19  C   UNL d   1     -51.381  26.833  36.158  0.00  0.00     0.100 A 
ATOM     20  C   UNL d   1     -51.568  26.559  36.932  0.00  0.00     0.100 A 
ATOM     21  N   UNL d   1     -51.004  26.221  37.430  0.00  0.00    -0.299 N 
ATOM     22  C   UNL d   1     -50.208  26.145  37.158  0.00  0.00     0.100 A 
ATOM     23  C   UNL d   1     -51.217  25.959  38.193  0.00  0.00     0.100 C 
ATOM     24  C   UNL d   1     -50.013  26.410  36.400  0.00  0.00     0.100 A 
ENDBRANCH   1  18
BRANCH   1  25
ATOM     25  C   UNL d   1     -49.731  27.536  35.048  0.00  0.00     0.016 A 
ATOM     26  C   UNL d   1     -49.167  27.396  34.472  0.00  0.00     0.004 A 
ATOM     27  C   UNL d   1     -48.529  27.894  34.376  0.00  0.00     0.025 A 
ATOM     28  C   UNL d   1     -48.435  28.563  34.865  0.00  0.00     0.100 A 
ATOM     29  C   UNL d   1     -49.013  28.725  35.470  0.00  0.00     0.025 A 
ATOM     30  C   UNL d   1     -49.668  28.199  35.556  0.00  0.00     0.004 A 
BRANCH  28  31
ATOM     31  O   UNL d   1     -47.792  29.065  34.768  0.00  0.00    -0.305 OA
BRANCH  31  32
ATOM     32  C   UNL d   1     -47.248  29.180  35.387  0.00  0.00     0.123 C 
ATOM     33  C   UNL d   1     -46.609  29.697  35.295  0.00  0.00     0.029 C 
ENDBRANCH  31  32
ENDBRANCH  28  31
ENDBRANCH   1  25
TORSDOF 7
ENDMDL
MODEL 2
REMARK VINA RESULT:     108.1      1.657      3.345
REMARK  7 active torsions:
REMARK  status: ('A' for Active; 'I' for Inactive)
REMARK    1  A    between atoms: C_7  and  C_1 
REMARK    2  A    between atoms: N_5  and  C_2 
REMARK       I    between atoms: C_8  and  N_5 
REMARK    3  A    between atoms: N_9  and  C_7 
REMARK    4  A    between atoms: C_11  and  C_7 
REMARK    5  A    between atoms: C_15  and  C_8 
REMARK    6  A    between atoms: O_25  and  C_20 
REMARK    7  A    between atoms: C_29  and  O_25 
ROOT
ATOM      1  C   UNL d   1     -50.124  26.925  34.891  0.00  0.00     0.066 C 
ENDROOT
BRANCH   1   2
ATOM      2  C   UNL d   1     -50.175  26.336  34.321  0.00  0.00     0.041 A 
ATOM      3  C   UNL d   1     -50.764  26.162  33.772  0.00  0.00     0.115 A 
ATOM      4  S   UNL d   1     -50.513  25.504  33.339  0.00  0.00    -0.068 SA
ATOM      5  C   UNL d   1     -49.775  25.285  33.629  0.00  0.00     0.031 A 
ATOM      6  C   UNL d   1     -49.562  25.798  34.237  0.00  0.00     0.009 A 
ATOM      7  C   UNL d   1     -49.332  24.621  33.317  0.00  0.00     0.007 C 
ATOM      8  C   UNL d   1     -48.855  25.795  34.702  0.00  0.00     0.001 C 
BRANCH   3   9
ATOM      9  N   UNL d   1     -51.480  26.551  33.653  0.00  0.00    -0.201 NA
ATOM     10  C   UNL d   1     -52.173  26.129  33.496  0.00  0.00     0.280 C 
ATOM     11  O   UNL d   1     -52.895  26.539  33.376  0.00  0.00    -0.265 OA
BRANCH  10  12
ATOM     12  C   UNL d   1     -52.144  25.313  33.459  0.00  0.00     0.058 A 
ATOM     13  C   UNL d   1     -51.431  24.936  33.343  0.00  0.00     0.005 A 
ATOM     14  C   UNL d   1     -51.400  24.126  33.306  0.00  0.00     0.000 A 
ATOM     15  C   UNL d   1     -52.077  23.686  33.383  0.00  0.00     0.000 A 
ATOM     16  C   UNL d   1     -52.802  24.058  33.500  0.00  0.00     0.000 A 
ATOM     17  C   UNL d   1     -52.839  24.876  33.539  0.00  0.00     0.005 A 
ENDBRANCH  10  12
ENDBRANCH   3   9
ENDBRANCH   1   2
BRANCH   1  18
ATOM     18  N   UNL d   1     -49.742  27.641  34.719  0.00  0.00    -0.301 N 
ATOM     19  C   UNL d   1     -49.916  28.061  34.006  0.00  0.00     0.100 A 
ATOM     20  C   UNL d   1     -49.513  28.784  33.858  0.00  0.00     0.100 A 
ATOM     21  N   UNL d   1     -48.956  29.096  34.381  0.00  0.00    -0.299 N 
ATOM     22  C   UNL d   1     -48.782  28.676  35.094  0.00  0.00     0.100 A 
ATOM     23  C   UNL d   1     -48.571  29.815  34.209  0.00  0.00     0.100 C 
ATOM     24  C   UNL d   1     -49.173  27.965  35.249  0.00  0.00     0.100 A 
ENDBRANCH   1  18
BRANCH   1  25
ATOM     25  C   UNL d   1     -50.452  26.817  35.644  0.00  0.00     0.016 A 
ATOM     26  C   UNL d   1     -50.864  26.131  35.809  0.00  0.00     0.004 A 
ATOM     27  C   UNL d   1     -51.195  26.003  36.544  0.00  0.00     0.025 A 
ATOM     28  C   UNL d   1     -51.119  26.572  37.148  0.00  0.00     0.100 A 
ATOM     29  C   UNL d   1     -50.693  27.294  36.994  0.00  0.00     0.025 A 
ATOM     30  C   UNL d   1     -50.357  27.411  36.228  0.00  0.00     0.004 A 
BRANCH  28  31
ATOM     31  O   UNL d   1     -51.452  26.444  37.888  0.00  0.00    -0.305 OA
BRANCH  31  32
ATOM     32  C   UNL d   1     -51.952  25.791  38.020  0.00  0.00     0.123 C 
ATOM     33  C   UNL d   1     -52.669  25.886  38.421  0.00  0.00     0.029 C 
ENDBRANCH  31  32
ENDBRANCH  28  31
ENDBRANCH   1  25
TORSDOF 7
ENDMDL
