MODEL 1
REMARK VINA RESULT:      -3.3      0.000      0.000
REMARK  2 active torsions:
REMARK  status: ('A' for Active; 'I' for Inactive)
REMARK    1  A    between atoms: C_11  and  C_1 
REMARK    2  A    between atoms: C_13  and  C_11 
ROOT
ATOM      1  C   UNL d   1      32.708  23.033 -19.792  0.00  0.00     0.058 A 
ATOM      2  C   UNL d   1      32.501  21.988 -20.630  0.00  0.00    -0.008 A 
ATOM      3  C   UNL d   1      32.307  22.269 -20.973  0.00  0.00    -0.008 A 
ATOM      4  C   UNL d   1      32.141  23.523 -20.914  0.00  0.00     0.045 A 
ATOM      5  C   UNL d   1      32.575  22.465 -20.294  0.00  0.00    -0.019 A 
ATOM      6  C   UNL d   1      32.794  22.172 -19.897  0.00  0.00    -0.019 A 
ATOM      7  C   UNL d   1      32.432  23.702 -20.188  0.00  0.00     0.021 A 
ATOM      8  C   UNL d   1      32.372  21.347 -21.146  0.00  0.00    -0.001 A 
ATOM      9  C   UNL d   1      32.042  22.905 -21.354  0.00  0.00    -0.022 A 
ATOM     10  C   UNL d   1      32.218  22.672 -21.034  0.00  0.00    -0.022 A 
ENDROOT
BRANCH   1  11
ATOM     11  C   UNL d   1      32.906  23.533 -19.165  0.00  0.00     0.004 C 
BRANCH  11  12
ATOM     12  C   UNL d   1      33.010  23.211 -18.413  0.00  0.00     0.118 C 
ATOM     13  N   UNL d   1      33.240  23.701 -17.784  0.00  0.00    -0.147 N 
ENDBRANCH  11  12
ENDBRANCH   1  11
TORSDOF 2
ENDMDL
MODEL 2
REMARK VINA RESULT:      -3.3      1.648      2.489
REMARK  2 active torsions:
REMARK  status: ('A' for Active; 'I' for Inactive)
REMARK    1  A    between atoms: C_11  and  C_1 
REMARK    2  A    between atoms: C_13  and  C_11 
ROOT
ATOM      1  C   UNL d   1      32.747  21.774 -20.836  0.00  0.00     0.058 A 
ATOM      2  C   UNL d   1      32.132  22.967 -21.023  0.00  0.00    -0.008 A 
ATOM      3  C   UNL d   1      32.315  23.153 -20.615  0.00  0.00    -0.008 A 
ATOM      4  C   UNL d   1      33.081  22.565 -19.796  0.00  0.00     0.045 A 
ATOM      5  C   UNL d   1      32.414  22.463 -20.909  0.00  0.00    -0.019 A 
ATOM      6  C   UNL d   1      32.223  22.234 -21.358  0.00  0.00    -0.019 A 
ATOM      7  C   UNL d   1      33.169  21.841 -20.130  0.00  0.00     0.021 A 
ATOM      8  C   UNL d   1      31.755  23.702 -21.136  0.00  0.00    -0.001 A 
ATOM      9  C   UNL d   1      32.716  23.221 -19.941  0.00  0.00    -0.022 A 
ATOM     10  C   UNL d   1      32.564  23.036 -20.301  0.00  0.00    -0.022 A 
ENDROOT
BRANCH   1  11
ATOM     11  C   UNL d   1      33.034  21.001 -20.889  0.00  0.00     0.004 C 
BRANCH  11  12
ATOM     12  C   UNL d   1      32.813  20.534 -21.532  0.00  0.00     0.118 C 
ATOM     13  N   UNL d   1      33.135  19.774 -21.619  0.00  0.00    -0.147 N 
ENDBRANCH  11  12
ENDBRANCH   1  11
TORSDOF 2
ENDMDL
MODEL 3
REMARK VINA RESULT:      -3.0      7.849      8.159
REMARK  2 active torsions:
REMARK  status: ('A' for Active; 'I' for Inactive)
REMARK    1  A    between atoms: C_11  and  C_1 
REMARK    2  A    between atoms: C_13  and  C_11 
ROOT
ATOM      1  C   UNL d   1      30.036  16.126 -23.724  0.00  0.00     0.058 A 
ATOM      2  C   UNL d   1      29.235  17.030 -24.339  0.00  0.00    -0.008 A 
ATOM      3  C   UNL d   1      28.839  16.873 -24.109  0.00  0.00    -0.008 A 
ATOM      4  C   UNL d   1      28.783  15.932 -23.264  0.00  0.00     0.045 A 
ATOM      5  C   UNL d   1      29.551  16.624 -24.053  0.00  0.00    -0.019 A 
ATOM      6  C   UNL d   1      30.006  16.782 -24.297  0.00  0.00    -0.019 A 
ATOM      7  C   UNL d   1      29.546  15.688 -23.224  0.00  0.00     0.021 A 
ATOM      8  C   UNL d   1      28.741  17.585 -24.716  0.00  0.00    -0.001 A 
ATOM      9  C   UNL d   1      28.369  16.457 -23.634  0.00  0.00    -0.022 A 
ATOM     10  C   UNL d   1      28.734  16.582 -23.828  0.00  0.00    -0.022 A 
ENDROOT
BRANCH   1  11
ATOM     11  C   UNL d   1      30.662  15.659 -23.455  0.00  0.00     0.004 C 
BRANCH  11  12
ATOM     12  C   UNL d   1      31.436  15.909 -23.592  0.00  0.00     0.118 C 
ATOM     13  N   UNL d   1      32.072  15.454 -23.312  0.00  0.00    -0.147 N 
ENDBRANCH  11  12
ENDBRANCH   1  11
TORSDOF 2
ENDMDL
MODEL 4
REMARK VINA RESULT:      -2.8      7.180      7.940
REMARK  2 active torsions:
REMARK  status: ('A' for Active; 'I' for Inactive)
REMARK    1  A    between atoms: C_11  and  C_1 
REMARK    2  A    between atoms: C_13  and  C_11 
ROOT
ATOM      1  C   UNL d   1      30.102  16.294 -23.842  0.00  0.00     0.058 A 
ATOM      2  C   UNL d   1      30.973  17.212 -24.327  0.00  0.00    -0.008 A 
ATOM      3  C   UNL d   1      31.351  17.008 -24.103  0.00  0.00    -0.008 A 
ATOM      4  C   UNL d   1      31.324  15.978 -23.366  0.00  0.00     0.045 A 
ATOM      5  C   UNL d   1      30.625  16.797 -24.098  0.00  0.00    -0.019 A 
ATOM      6  C   UNL d   1      30.189  17.006 -24.337  0.00  0.00    -0.019 A 
ATOM      7  C   UNL d   1      30.547  15.777 -23.379  0.00  0.00     0.021 A 
ATOM      8  C   UNL d   1      31.510  17.775 -24.623  0.00  0.00    -0.001 A 
ATOM      9  C   UNL d   1      31.779  16.517 -23.662  0.00  0.00    -0.022 A 
ATOM     10  C   UNL d   1      31.429  16.683 -23.853  0.00  0.00    -0.022 A 
ENDROOT
BRANCH   1  11
ATOM     11  C   UNL d   1      29.441  15.838 -23.647  0.00  0.00     0.004 C 
BRANCH  11  12
ATOM     12  C   UNL d   1      28.688  16.151 -23.766  0.00  0.00     0.118 C 
ATOM     13  N   UNL d   1      28.018  15.688 -23.603  0.00  0.00    -0.147 N 
ENDBRANCH  11  12
ENDBRANCH   1  11
TORSDOF 2
ENDMDL
MODEL 5
REMARK VINA RESULT:      -2.7      5.823      7.081
REMARK  2 active torsions:
REMARK  status: ('A' for Active; 'I' for Inactive)
REMARK    1  A    between atoms: C_11  and  C_1 
REMARK    2  A    between atoms: C_13  and  C_11 
ROOT
ATOM      1  C   UNL d   1      31.673  17.371 -23.964  0.00  0.00     0.058 A 
ATOM      2  C   UNL d   1      31.163  16.183 -23.558  0.00  0.00    -0.008 A 
ATOM      3  C   UNL d   1      30.759  16.239 -23.818  0.00  0.00    -0.008 A 
ATOM      4  C   UNL d   1      30.470  17.227 -24.556  0.00  0.00     0.045 A 
ATOM      5  C   UNL d   1      31.352  16.704 -23.755  0.00  0.00    -0.019 A 
ATOM      6  C   UNL d   1      31.810  16.663 -23.474  0.00  0.00    -0.019 A 
ATOM      7  C   UNL d   1      31.112  17.700 -24.472  0.00  0.00     0.021 A 
ATOM      8  C   UNL d   1      30.848  15.453 -23.310  0.00  0.00    -0.001 A 
ATOM      9  C   UNL d   1      30.221  16.550 -24.302  0.00  0.00    -0.022 A 
ATOM     10  C   UNL d   1      30.589  16.519 -24.077  0.00  0.00    -0.022 A 
ENDROOT
BRANCH   1  11
ATOM     11  C   UNL d   1      32.133  18.044 -24.098  0.00  0.00     0.004 C 
BRANCH  11  12
ATOM     12  C   UNL d   1      32.715  18.247 -23.551  0.00  0.00     0.118 C 
ATOM     13  N   UNL d   1      33.190  18.916 -23.684  0.00  0.00    -0.147 N 
ENDBRANCH  11  12
ENDBRANCH   1  11
TORSDOF 2
ENDMDL
MODEL 6
REMARK VINA RESULT:      -1.6      6.091      7.202
REMARK  2 active torsions:
REMARK  status: ('A' for Active; 'I' for Inactive)
REMARK    1  A    between atoms: C_11  and  C_1 
REMARK    2  A    between atoms: C_13  and  C_11 
ROOT
ATOM      1  C   UNL d   1      31.143  17.287 -24.291  0.00  0.00     0.058 A 
ATOM      2  C   UNL d   1      32.209  18.047 -23.937  0.00  0.00    -0.008 A 
ATOM      3  C   UNL d   1      32.420  17.683 -23.697  0.00  0.00    -0.008 A 
ATOM      4  C   UNL d   1      31.970  16.507 -23.565  0.00  0.00     0.045 A 
ATOM      5  C   UNL d   1      31.763  17.687 -24.071  0.00  0.00    -0.019 A 
ATOM      6  C   UNL d   1      31.508  18.077 -24.344  0.00  0.00    -0.019 A 
ATOM      7  C   UNL d   1      31.277  16.539 -23.968  0.00  0.00     0.021 A 
ATOM      8  C   UNL d   1      32.864  18.512 -23.718  0.00  0.00    -0.001 A 
ATOM      9  C   UNL d   1      32.551  16.971 -23.388  0.00  0.00    -0.022 A 
ATOM     10  C   UNL d   1      32.346  17.282 -23.607  0.00  0.00    -0.022 A 
ENDROOT
BRANCH   1  11
ATOM     11  C   UNL d   1      30.436  16.987 -24.594  0.00  0.00     0.004 C 
BRANCH  11  12
ATOM     12  C   UNL d   1      29.827  17.510 -24.782  0.00  0.00     0.118 C 
ATOM     13  N   UNL d   1      29.116  17.218 -25.097  0.00  0.00    -0.147 N 
ENDBRANCH  11  12
ENDBRANCH   1  11
TORSDOF 2
ENDMDL
