MODEL 1
REMARK VINA RESULT:      62.0      0.000      0.000
REMARK  8 active torsions:
REMARK  status: ('A' for Active; 'I' for Inactive)
REMARK    1  A    between atoms: C_9  and  N_1 
REMARK    2  A    between atoms: C_13  and  C_5 
REMARK    3  A    between atoms: C_8  and  C_6 
REMARK    4  A    between atoms: C_7  and  N_11 
REMARK    5  A    between atoms: C_10  and  C_9 
REMARK       I    between atoms: N_11  and  C_10 
REMARK    6  A    between atoms: C_15  and  C_13 
REMARK    7  A    between atoms: C_18  and  C_15 
REMARK    8  A    between atoms: C_20  and  C_18 
ROOT
ATOM      1  N   UNL d   1     -49.350  27.736  34.847  0.00  0.00    -0.230 N 
ATOM      2  C   UNL d   1     -49.439  27.810  35.668  0.00  0.00     0.299 A 
ATOM      3  C   UNL d   1     -48.775  28.273  34.601  0.00  0.00     0.274 A 
ATOM      4  S   UNL d   1     -48.914  28.398  35.928  0.00  0.00    -0.022 SA
ATOM      5  C   UNL d   1     -48.509  28.679  35.270  0.00  0.00     0.090 A 
ATOM      6  O   UNL d   1     -49.959  27.375  36.144  0.00  0.00    -0.259 OA
ATOM      7  O   UNL d   1     -48.512  28.387  33.829  0.00  0.00    -0.266 OA
ENDROOT
BRANCH   1   8
ATOM      8  C   UNL d   1     -49.768  27.213  34.367  0.00  0.00     0.149 C 
BRANCH   8   9
ATOM      9  C   UNL d   1     -49.355  26.720  33.842  0.00  0.00     0.297 C 
ATOM     10  N   UNL d   1     -49.770  26.242  33.314  0.00  0.00    -0.206 NA
ATOM     11  O   UNL d   1     -48.527  26.712  33.853  0.00  0.00    -0.264 OA
BRANCH  10  12
ATOM     12  C   UNL d   1     -50.592  26.258  33.311  0.00  0.00     0.090 A 
ATOM     13  C   UNL d   1     -51.013  25.554  33.309  0.00  0.00     0.082 A 
ATOM     14  C   UNL d   1     -51.835  25.566  33.306  0.00  0.00     0.008 A 
ATOM     15  C   UNL d   1     -52.236  26.291  33.306  0.00  0.00     0.000 A 
ATOM     16  C   UNL d   1     -51.803  26.997  33.308  0.00  0.00     0.002 A 
ATOM     17  C   UNL d   1     -50.985  26.976  33.311  0.00  0.00     0.019 A 
BRANCH  13  18
ATOM     18  C   UNL d   1     -50.611  24.833  33.309  0.00  0.00     0.212 C 
ATOM     19  O   UNL d   1     -51.036  24.120  33.312  0.00  0.00    -0.644 OA
ATOM     20  O   UNL d   1     -49.790  24.820  33.306  0.00  0.00    -0.644 OA
ENDBRANCH  13  18
ENDBRANCH  10  12
ENDBRANCH   8   9
ENDBRANCH   1   8
BRANCH   5  21
ATOM     21  C   UNL d   1     -47.930  29.271  35.274  0.00  0.00     0.011 C 
BRANCH  21  22
ATOM     22  C   UNL d   1     -48.149  30.066  35.204  0.00  0.00     0.001 C 
BRANCH  22  23
ATOM     23  C   UNL d   1     -47.610  30.660  35.375  0.00  0.00     0.000 C 
BRANCH  23  24
ATOM     24  C   UNL d   1     -47.642  31.378  34.966  0.00  0.00     0.000 A 
ATOM     25  C   UNL d   1     -46.948  31.763  34.768  0.00  0.00     0.000 A 
ATOM     26  C   UNL d   1     -46.974  32.479  34.361  0.00  0.00     0.000 A 
ATOM     27  C   UNL d   1     -47.705  32.810  34.150  0.00  0.00     0.000 A 
ATOM     28  C   UNL d   1     -48.406  32.415  34.353  0.00  0.00     0.000 A 
ATOM     29  C   UNL d   1     -48.371  31.702  34.760  0.00  0.00     0.000 A 
ENDBRANCH  23  24
ENDBRANCH  22  23
ENDBRANCH  21  22
ENDBRANCH   5  21
TORSDOF 8
ENDMDL
MODEL 2
REMARK VINA RESULT:      62.1      1.267      2.040
REMARK  8 active torsions:
REMARK  status: ('A' for Active; 'I' for Inactive)
REMARK    1  A    between atoms: C_9  and  N_1 
REMARK    2  A    between atoms: C_13  and  C_5 
REMARK    3  A    between atoms: C_8  and  C_6 
REMARK    4  A    between atoms: C_7  and  N_11 
REMARK    5  A    between atoms: C_10  and  C_9 
REMARK       I    between atoms: N_11  and  C_10 
REMARK    6  A    between atoms: C_15  and  C_13 
REMARK    7  A    between atoms: C_18  and  C_15 
REMARK    8  A    between atoms: C_20  and  C_18 
ROOT
ATOM      1  N   UNL d   1     -50.186  26.780  34.549  0.00  0.00    -0.230 N 
ATOM      2  C   UNL d   1     -50.149  26.960  35.358  0.00  0.00     0.299 A 
ATOM      3  C   UNL d   1     -49.681  27.295  34.147  0.00  0.00     0.274 A 
ATOM      4  S   UNL d   1     -49.617  27.590  35.454  0.00  0.00    -0.022 SA
ATOM      5  C   UNL d   1     -49.332  27.792  34.709  0.00  0.00     0.090 A 
ATOM      6  O   UNL d   1     -50.568  26.579  35.961  0.00  0.00    -0.259 OA
ATOM      7  O   UNL d   1     -49.547  27.312  33.335  0.00  0.00    -0.266 OA
ENDROOT
BRANCH   1   8
ATOM      8  C   UNL d   1     -50.649  26.189  34.211  0.00  0.00     0.149 C 
BRANCH   8   9
ATOM      9  C   UNL d   1     -51.298  26.397  33.737  0.00  0.00     0.297 C 
ATOM     10  N   UNL d   1     -51.696  25.818  33.307  0.00  0.00    -0.206 NA
ATOM     11  O   UNL d   1     -51.541  27.189  33.700  0.00  0.00    -0.264 OA
BRANCH  10  12
ATOM     12  C   UNL d   1     -51.446  25.036  33.350  0.00  0.00     0.090 A 
ATOM     13  C   UNL d   1     -51.998  24.436  33.438  0.00  0.00     0.082 A 
ATOM     14  C   UNL d   1     -51.753  23.653  33.483  0.00  0.00     0.008 A 
ATOM     15  C   UNL d   1     -50.945  23.472  33.438  0.00  0.00     0.000 A 
ATOM     16  C   UNL d   1     -50.394  24.084  33.349  0.00  0.00     0.002 A 
ATOM     17  C   UNL d   1     -50.648  24.861  33.306  0.00  0.00     0.019 A 
BRANCH  13  18
ATOM     18  C   UNL d   1     -52.802  24.619  33.483  0.00  0.00     0.212 C 
ATOM     19  O   UNL d   1     -53.371  24.041  33.306  0.00  0.00    -0.644 OA
ATOM     20  O   UNL d   1     -53.040  25.374  33.702  0.00  0.00    -0.644 OA
ENDBRANCH  13  18
ENDBRANCH  10  12
ENDBRANCH   8   9
ENDBRANCH   1   8
BRANCH   5  21
ATOM     21  C   UNL d   1     -48.787  28.393  34.546  0.00  0.00     0.011 C 
BRANCH  21  22
ATOM     22  C   UNL d   1     -48.252  28.637  35.128  0.00  0.00     0.001 C 
BRANCH  22  23
ATOM     23  C   UNL d   1     -48.398  29.316  35.565  0.00  0.00     0.000 C 
BRANCH  23  24
ATOM     24  C   UNL d   1     -47.836  29.921  35.588  0.00  0.00     0.000 A 
ATOM     25  C   UNL d   1     -47.791  30.457  34.971  0.00  0.00     0.000 A 
ATOM     26  C   UNL d   1     -47.233  31.062  34.989  0.00  0.00     0.000 A 
ATOM     27  C   UNL d   1     -46.715  31.131  35.634  0.00  0.00     0.000 A 
ATOM     28  C   UNL d   1     -46.765  30.585  36.257  0.00  0.00     0.000 A 
ATOM     29  C   UNL d   1     -47.324  29.984  36.231  0.00  0.00     0.000 A 
ENDBRANCH  23  24
ENDBRANCH  22  23
ENDBRANCH  21  22
ENDBRANCH   5  21
TORSDOF 8
ENDMDL
