MODEL 1
REMARK VINA RESULT:      -2.0      0.000      0.000
REMARK  4 active torsions:
REMARK  status: ('A' for Active; 'I' for Inactive)
REMARK    1  A    between atoms: C_2  and  C_1 
REMARK    2  A    between atoms: C_13  and  N_5 
REMARK    3  A    between atoms: C_16  and  C_13 
REMARK    4  A    between atoms: C_17  and  C_16 
ROOT
ATOM      1  C   UNL d   1      32.899  18.861 -23.361  0.00  0.00     0.112 A 
ATOM      2  C   UNL d   1      32.981  19.090 -22.575  0.00  0.00     0.176 A 
ATOM      3  N   UNL d   1      33.125  19.907 -22.556  0.00  0.00    -0.285 N 
ATOM      4  C   UNL d   1      32.993  19.539 -23.828  0.00  0.00     0.219 A 
ATOM      5  C   UNL d   1      33.131  20.176 -23.331  0.00  0.00     0.124 A 
ATOM      6  O   UNL d   1      32.954  19.569 -24.660  0.00  0.00    -0.285 OA
ATOM      7  N   UNL d   1      32.927  18.583 -21.917  0.00  0.00    -0.128 N 
ENDROOT
BRANCH   1   8
ATOM      8  C   UNL d   1      32.751  18.087 -23.609  0.00  0.00     0.169 A 
ATOM      9  N   UNL d   1      33.241  17.423 -23.575  0.00  0.00    -0.225 NA
ATOM     10  C   UNL d   1      32.831  16.787 -23.893  0.00  0.00     0.101 A 
ATOM     11  C   UNL d   1      33.040  15.997 -24.002  0.00  0.00     0.021 A 
ATOM     12  C   UNL d   1      32.085  17.054 -24.126  0.00  0.00     0.101 A 
ATOM     13  C   UNL d   1      32.501  15.467 -24.347  0.00  0.00     0.002 A 
ATOM     14  C   UNL d   1      31.755  15.734 -24.580  0.00  0.00     0.002 A 
ATOM     15  C   UNL d   1      31.548  16.531 -24.468  0.00  0.00     0.021 A 
ATOM     16  N   UNL d   1      32.039  17.853 -23.950  0.00  0.00    -0.225 NA
ENDBRANCH   1   8
BRANCH   3  17
ATOM     17  C   UNL d   1      33.241  20.365 -21.874  0.00  0.00     0.082 C 
BRANCH  17  18
ATOM     18  C   UNL d   1      32.870  21.086 -21.809  0.00  0.00     0.019 C 
BRANCH  18  19
ATOM     19  C   UNL d   1      32.949  21.528 -21.116  0.00  0.00     0.002 C 
ATOM     20  C   UNL d   1      32.541  22.233 -21.036  0.00  0.00     0.000 C 
ENDBRANCH  18  19
ENDBRANCH  17  18
ENDBRANCH   3  17
TORSDOF 4
ENDMDL
MODEL 2
REMARK VINA RESULT:      -1.9      4.332      6.588
REMARK  4 active torsions:
REMARK  status: ('A' for Active; 'I' for Inactive)
REMARK    1  A    between atoms: C_2  and  C_1 
REMARK    2  A    between atoms: C_13  and  N_5 
REMARK    3  A    between atoms: C_16  and  C_13 
REMARK    4  A    between atoms: C_17  and  C_16 
ROOT
ATOM      1  C   UNL d   1      32.448  22.577 -20.289  0.00  0.00     0.112 A 
ATOM      2  C   UNL d   1      32.798  23.004 -20.900  0.00  0.00     0.176 A 
ATOM      3  N   UNL d   1      32.630  22.616 -21.615  0.00  0.00    -0.285 N 
ATOM      4  C   UNL d   1      32.064  21.926 -20.628  0.00  0.00     0.219 A 
ATOM      5  C   UNL d   1      32.178  21.954 -21.439  0.00  0.00     0.124 A 
ATOM      6  O   UNL d   1      31.636  21.342 -20.216  0.00  0.00    -0.285 OA
ATOM      7  N   UNL d   1      33.241  23.702 -20.809  0.00  0.00    -0.128 N 
ENDROOT
BRANCH   1   8
ATOM      8  C   UNL d   1      32.490  22.786 -19.491  0.00  0.00     0.169 A 
ATOM      9  N   UNL d   1      33.094  22.649 -18.944  0.00  0.00    -0.225 NA
ATOM     10  C   UNL d   1      32.864  22.968 -18.224  0.00  0.00     0.101 A 
ATOM     11  C   UNL d   1      33.238  22.997 -17.490  0.00  0.00     0.021 A 
ATOM     12  C   UNL d   1      32.116  23.305 -18.320  0.00  0.00     0.101 A 
ATOM     13  C   UNL d   1      32.864  23.364 -16.846  0.00  0.00     0.002 A 
ATOM     14  C   UNL d   1      32.116  23.701 -16.942  0.00  0.00     0.002 A 
ATOM     15  C   UNL d   1      31.742  23.670 -17.684  0.00  0.00     0.021 A 
ATOM     16  N   UNL d   1      31.889  23.191 -19.099  0.00  0.00    -0.225 NA
ENDBRANCH   1   8
BRANCH   3  17
ATOM     17  C   UNL d   1      32.877  22.860 -22.369  0.00  0.00     0.082 C 
BRANCH  17  18
ATOM     18  C   UNL d   1      32.787  22.355 -23.001  0.00  0.00     0.019 C 
BRANCH  18  19
ATOM     19  C   UNL d   1      32.976  22.612 -23.762  0.00  0.00     0.002 C 
ATOM     20  C   UNL d   1      33.139  22.063 -24.347  0.00  0.00     0.000 C 
ENDBRANCH  18  19
ENDBRANCH  17  18
ENDBRANCH   3  17
TORSDOF 4
ENDMDL
MODEL 3
REMARK VINA RESULT:      -1.7      2.150      4.782
REMARK  4 active torsions:
REMARK  status: ('A' for Active; 'I' for Inactive)
REMARK    1  A    between atoms: C_2  and  C_1 
REMARK    2  A    between atoms: C_13  and  N_5 
REMARK    3  A    between atoms: C_16  and  C_13 
REMARK    4  A    between atoms: C_17  and  C_16 
ROOT
ATOM      1  C   UNL d   1      30.961  16.767 -24.605  0.00  0.00     0.112 A 
ATOM      2  C   UNL d   1      30.145  16.857 -24.669  0.00  0.00     0.176 A 
ATOM      3  N   UNL d   1      29.811  16.106 -24.790  0.00  0.00    -0.285 N 
ATOM      4  C   UNL d   1      31.130  15.960 -24.687  0.00  0.00     0.219 A 
ATOM      5  C   UNL d   1      30.423  15.560 -24.800  0.00  0.00     0.124 A 
ATOM      6  O   UNL d   1      31.887  15.614 -24.659  0.00  0.00    -0.285 OA
ATOM      7  N   UNL d   1      29.734  17.578 -24.620  0.00  0.00    -0.128 N 
ENDROOT
BRANCH   1   8
ATOM      8  C   UNL d   1      31.490  17.389 -24.481  0.00  0.00     0.169 A 
ATOM      9  N   UNL d   1      31.843  17.894 -25.032  0.00  0.00    -0.225 NA
ATOM     10  C   UNL d   1      32.326  18.419 -24.625  0.00  0.00     0.101 A 
ATOM     11  C   UNL d   1      32.806  19.037 -24.882  0.00  0.00     0.021 A 
ATOM     12  C   UNL d   1      32.274  18.242 -23.820  0.00  0.00     0.101 A 
ATOM     13  C   UNL d   1      33.241  19.483 -24.332  0.00  0.00     0.002 A 
ATOM     14  C   UNL d   1      33.189  19.306 -23.527  0.00  0.00     0.002 A 
ATOM     15  C   UNL d   1      32.703  18.682 -23.272  0.00  0.00     0.021 A 
ATOM     16  N   UNL d   1      31.760  17.609 -23.735  0.00  0.00    -0.225 NA
ENDBRANCH   1   8
BRANCH   3  17
ATOM     17  C   UNL d   1      29.003  15.944 -24.884  0.00  0.00     0.082 C 
BRANCH  17  18
ATOM     18  C   UNL d   1      28.629  15.458 -24.350  0.00  0.00     0.019 C 
BRANCH  18  19
ATOM     19  C   UNL d   1      27.804  15.453 -24.305  0.00  0.00     0.002 C 
ATOM     20  C   UNL d   1      27.437  15.484 -23.574  0.00  0.00     0.000 C 
ENDBRANCH  18  19
ENDBRANCH  17  18
ENDBRANCH   3  17
TORSDOF 4
ENDMDL
MODEL 4
REMARK VINA RESULT:      -1.4      3.671      4.929
REMARK  4 active torsions:
REMARK  status: ('A' for Active; 'I' for Inactive)
REMARK    1  A    between atoms: C_2  and  C_1 
REMARK    2  A    between atoms: C_13  and  N_5 
REMARK    3  A    between atoms: C_16  and  C_13 
REMARK    4  A    between atoms: C_17  and  C_16 
ROOT
ATOM      1  C   UNL d   1      32.715  22.345 -21.096  0.00  0.00     0.112 A 
ATOM      2  C   UNL d   1      32.910  22.982 -20.613  0.00  0.00     0.176 A 
ATOM      3  N   UNL d   1      32.721  22.780 -19.830  0.00  0.00    -0.285 N 
ATOM      4  C   UNL d   1      32.405  21.750 -20.611  0.00  0.00     0.219 A 
ATOM      5  C   UNL d   1      32.411  22.020 -19.837  0.00  0.00     0.124 A 
ATOM      6  O   UNL d   1      32.133  21.004 -20.865  0.00  0.00    -0.285 OA
ATOM      7  N   UNL d   1      33.240  23.701 -20.871  0.00  0.00    -0.128 N 
ENDROOT
BRANCH   1   8
ATOM      8  C   UNL d   1      32.820  22.332 -21.916  0.00  0.00     0.169 A 
ATOM      9  N   UNL d   1      32.799  22.956 -22.457  0.00  0.00    -0.225 NA
ATOM     10  C   UNL d   1      32.938  22.649 -23.205  0.00  0.00     0.101 A 
ATOM     11  C   UNL d   1      32.980  23.007 -23.947  0.00  0.00     0.021 A 
ATOM     12  C   UNL d   1      33.046  21.834 -23.132  0.00  0.00     0.101 A 
ATOM     13  C   UNL d   1      33.132  22.548 -24.623  0.00  0.00     0.002 A 
ATOM     14  C   UNL d   1      33.240  21.732 -24.549  0.00  0.00     0.002 A 
ATOM     15  C   UNL d   1      33.197  21.375 -23.800  0.00  0.00     0.021 A 
ATOM     16  N   UNL d   1      32.973  21.643 -22.339  0.00  0.00    -0.225 NA
ENDBRANCH   1   8
BRANCH   3  17
ATOM     17  C   UNL d   1      32.829  23.263 -19.164  0.00  0.00     0.082 C 
BRANCH  17  18
ATOM     18  C   UNL d   1      32.825  22.928 -18.422  0.00  0.00     0.019 C 
BRANCH  18  19
ATOM     19  C   UNL d   1      32.810  23.411 -17.753  0.00  0.00     0.002 C 
ATOM     20  C   UNL d   1      32.831  23.072 -17.008  0.00  0.00     0.000 C 
ENDBRANCH  18  19
ENDBRANCH  17  18
ENDBRANCH   3  17
TORSDOF 4
ENDMDL
MODEL 5
REMARK VINA RESULT:      -1.3      1.302      2.060
REMARK  4 active torsions:
REMARK  status: ('A' for Active; 'I' for Inactive)
REMARK    1  A    between atoms: C_2  and  C_1 
REMARK    2  A    between atoms: C_13  and  N_5 
REMARK    3  A    between atoms: C_16  and  C_13 
REMARK    4  A    between atoms: C_17  and  C_16 
ROOT
ATOM      1  C   UNL d   1      33.078  20.146 -22.508  0.00  0.00     0.112 A 
ATOM      2  C   UNL d   1      33.096  20.948 -22.687  0.00  0.00     0.176 A 
ATOM      3  N   UNL d   1      33.192  21.370 -21.978  0.00  0.00    -0.285 N 
ATOM      4  C   UNL d   1      33.162  20.072 -21.687  0.00  0.00     0.219 A 
ATOM      5  C   UNL d   1      33.232  20.823 -21.367  0.00  0.00     0.124 A 
ATOM      6  O   UNL d   1      33.174  19.356 -21.260  0.00  0.00    -0.285 OA
ATOM      7  N   UNL d   1      33.030  21.275 -23.450  0.00  0.00    -0.128 N 
ENDROOT
BRANCH   1   8
ATOM      8  C   UNL d   1      32.990  19.545 -23.068  0.00  0.00     0.169 A 
ATOM      9  N   UNL d   1      33.212  19.533 -23.864  0.00  0.00    -0.225 NA
ATOM     10  C   UNL d   1      33.001  18.805 -24.178  0.00  0.00     0.101 A 
ATOM     11  C   UNL d   1      33.085  18.486 -24.933  0.00  0.00     0.021 A 
ATOM     12  C   UNL d   1      32.648  18.361 -23.578  0.00  0.00     0.101 A 
ATOM     13  C   UNL d   1      32.814  17.717 -25.093  0.00  0.00     0.002 A 
ATOM     14  C   UNL d   1      32.461  17.273 -24.493  0.00  0.00     0.002 A 
ATOM     15  C   UNL d   1      32.378  17.598 -23.733  0.00  0.00     0.021 A 
ATOM     16  N   UNL d   1      32.643  18.818 -22.898  0.00  0.00    -0.225 NA
ENDBRANCH   1   8
BRANCH   3  17
ATOM     17  C   UNL d   1      33.238  22.195 -21.906  0.00  0.00     0.082 C 
BRANCH  17  18
ATOM     18  C   UNL d   1      33.168  22.536 -21.170  0.00  0.00     0.019 C 
BRANCH  18  19
ATOM     19  C   UNL d   1      33.171  23.358 -21.097  0.00  0.00     0.002 C 
ATOM     20  C   UNL d   1      32.954  23.702 -20.386  0.00  0.00     0.000 C 
ENDBRANCH  18  19
ENDBRANCH  17  18
ENDBRANCH   3  17
TORSDOF 4
ENDMDL
MODEL 6
REMARK VINA RESULT:      -1.3      0.822      4.626
REMARK  4 active torsions:
REMARK  status: ('A' for Active; 'I' for Inactive)
REMARK    1  A    between atoms: C_2  and  C_1 
REMARK    2  A    between atoms: C_13  and  N_5 
REMARK    3  A    between atoms: C_16  and  C_13 
REMARK    4  A    between atoms: C_17  and  C_16 
ROOT
ATOM      1  C   UNL d   1      32.928  19.990 -22.882  0.00  0.00     0.112 A 
ATOM      2  C   UNL d   1      33.034  19.196 -22.695  0.00  0.00     0.176 A 
ATOM      3  N   UNL d   1      33.118  18.772 -23.404  0.00  0.00    -0.285 N 
ATOM      4  C   UNL d   1      32.946  20.056 -23.707  0.00  0.00     0.219 A 
ATOM      5  C   UNL d   1      33.063  19.309 -24.022  0.00  0.00     0.124 A 
ATOM      6  O   UNL d   1      32.860  20.762 -24.143  0.00  0.00    -0.285 OA
ATOM      7  N   UNL d   1      33.054  18.879 -21.926  0.00  0.00    -0.128 N 
ENDROOT
BRANCH   1   8
ATOM      8  C   UNL d   1      32.824  20.590 -22.323  0.00  0.00     0.169 A 
ATOM      9  N   UNL d   1      32.318  20.617 -21.670  0.00  0.00    -0.225 NA
ATOM     10  C   UNL d   1      32.426  21.337 -21.293  0.00  0.00     0.101 A 
ATOM     11  C   UNL d   1      32.077  21.665 -20.622  0.00  0.00     0.021 A 
ATOM     12  C   UNL d   1      32.999  21.761 -21.710  0.00  0.00     0.101 A 
ATOM     13  C   UNL d   1      32.301  22.422 -20.363  0.00  0.00     0.002 A 
ATOM     14  C   UNL d   1      32.874  22.846 -20.780  0.00  0.00     0.002 A 
ATOM     15  C   UNL d   1      33.223  22.513 -21.457  0.00  0.00     0.021 A 
ATOM     16  N   UNL d   1      33.241  21.300 -22.342  0.00  0.00    -0.225 NA
ENDBRANCH   1   8
BRANCH   3  17
ATOM     17  C   UNL d   1      33.237  17.953 -23.470  0.00  0.00     0.082 C 
BRANCH  17  18
ATOM     18  C   UNL d   1      32.750  17.517 -23.954  0.00  0.00     0.019 C 
BRANCH  18  19
ATOM     19  C   UNL d   1      32.846  16.699 -24.004  0.00  0.00     0.002 C 
ATOM     20  C   UNL d   1      32.206  16.226 -24.196  0.00  0.00     0.000 C 
ENDBRANCH  18  19
ENDBRANCH  17  18
ENDBRANCH   3  17
TORSDOF 4
ENDMDL
MODEL 7
REMARK VINA RESULT:      -1.2      2.394      5.974
REMARK  4 active torsions:
REMARK  status: ('A' for Active; 'I' for Inactive)
REMARK    1  A    between atoms: C_2  and  C_1 
REMARK    2  A    between atoms: C_13  and  N_5 
REMARK    3  A    between atoms: C_16  and  C_13 
REMARK    4  A    between atoms: C_17  and  C_16 
ROOT
ATOM      1  C   UNL d   1      32.779  21.706 -20.736  0.00  0.00     0.112 A 
ATOM      2  C   UNL d   1      33.008  20.918 -20.796  0.00  0.00     0.176 A 
ATOM      3  N   UNL d   1      32.967  20.697 -21.595  0.00  0.00    -0.285 N 
ATOM      4  C   UNL d   1      32.596  21.971 -21.499  0.00  0.00     0.219 A 
ATOM      5  C   UNL d   1      32.712  21.350 -22.022  0.00  0.00     0.124 A 
ATOM      6  O   UNL d   1      32.337  22.737 -21.702  0.00  0.00    -0.285 OA
ATOM      7  N   UNL d   1      33.241  20.433 -20.161  0.00  0.00    -0.128 N 
ENDROOT
BRANCH   1   8
ATOM      8  C   UNL d   1      32.747  22.130 -20.028  0.00  0.00     0.169 A 
ATOM      9  N   UNL d   1      32.342  22.828 -19.852  0.00  0.00    -0.225 NA
ATOM     10  C   UNL d   1      32.492  23.021 -19.069  0.00  0.00     0.101 A 
ATOM     11  C   UNL d   1      32.239  23.648 -18.599  0.00  0.00     0.021 A 
ATOM     12  C   UNL d   1      32.991  22.443 -18.755  0.00  0.00     0.101 A 
ATOM     13  C   UNL d   1      32.485  23.702 -17.807  0.00  0.00     0.002 A 
ATOM     14  C   UNL d   1      32.985  23.124 -17.493  0.00  0.00     0.002 A 
ATOM     15  C   UNL d   1      33.238  22.493 -17.970  0.00  0.00     0.021 A 
ATOM     16  N   UNL d   1      33.146  21.898 -19.346  0.00  0.00    -0.225 NA
ENDBRANCH   1   8
BRANCH   3  17
ATOM     17  C   UNL d   1      33.151  19.948 -21.902  0.00  0.00     0.082 C 
BRANCH  17  18
ATOM     18  C   UNL d   1      32.818  19.712 -22.606  0.00  0.00     0.019 C 
BRANCH  18  19
ATOM     19  C   UNL d   1      33.030  18.987 -22.938  0.00  0.00     0.002 C 
ATOM     20  C   UNL d   1      32.718  18.766 -23.662  0.00  0.00     0.000 C 
ENDBRANCH  18  19
ENDBRANCH  17  18
ENDBRANCH   3  17
TORSDOF 4
ENDMDL
MODEL 8
REMARK VINA RESULT:      -0.8      2.950      4.903
REMARK  4 active torsions:
REMARK  status: ('A' for Active; 'I' for Inactive)
REMARK    1  A    between atoms: C_2  and  C_1 
REMARK    2  A    between atoms: C_13  and  N_5 
REMARK    3  A    between atoms: C_16  and  C_13 
REMARK    4  A    between atoms: C_17  and  C_16 
ROOT
ATOM      1  C   UNL d   1      29.743  16.723 -24.143  0.00  0.00     0.112 A 
ATOM      2  C   UNL d   1      29.395  16.186 -23.626  0.00  0.00     0.176 A 
ATOM      3  N   UNL d   1      28.571  16.267 -23.684  0.00  0.00    -0.285 N 
ATOM      4  C   UNL d   1      29.132  17.136 -24.521  0.00  0.00     0.219 A 
ATOM      5  C   UNL d   1      28.417  16.854 -24.237  0.00  0.00     0.124 A 
ATOM      6  O   UNL d   1      29.228  17.735 -25.093  0.00  0.00    -0.285 OA
ATOM      7  N   UNL d   1      29.805  15.657 -23.132  0.00  0.00    -0.128 N 
ENDROOT
BRANCH   1   8
ATOM      8  C   UNL d   1      30.558  16.812 -24.245  0.00  0.00     0.169 A 
ATOM      9  N   UNL d   1      31.072  17.364 -23.908  0.00  0.00    -0.225 NA
ATOM     10  C   UNL d   1      31.828  17.215 -24.189  0.00  0.00     0.101 A 
ATOM     11  C   UNL d   1      32.551  17.583 -24.045  0.00  0.00     0.021 A 
ATOM     12  C   UNL d   1      31.787  16.569 -24.703  0.00  0.00     0.101 A 
ATOM     13  C   UNL d   1      33.241  17.306 -24.417  0.00  0.00     0.002 A 
ATOM     14  C   UNL d   1      33.200  16.661 -24.930  0.00  0.00     0.002 A 
ATOM     15  C   UNL d   1      32.469  16.292 -25.073  0.00  0.00     0.021 A 
ATOM     16  N   UNL d   1      31.006  16.325 -24.735  0.00  0.00    -0.225 NA
ENDBRANCH   1   8
BRANCH   3  17
ATOM     17  C   UNL d   1      28.008  15.831 -23.257  0.00  0.00     0.082 C 
BRANCH  17  18
ATOM     18  C   UNL d   1      27.225  15.866 -23.477  0.00  0.00     0.019 C 
BRANCH  18  19
ATOM     19  C   UNL d   1      26.652  15.491 -23.017  0.00  0.00     0.002 C 
ATOM     20  C   UNL d   1      25.879  15.453 -23.283  0.00  0.00     0.000 C 
ENDBRANCH  18  19
ENDBRANCH  17  18
ENDBRANCH   3  17
TORSDOF 4
ENDMDL
MODEL 9
REMARK VINA RESULT:      -0.3      1.533      2.155
REMARK  4 active torsions:
REMARK  status: ('A' for Active; 'I' for Inactive)
REMARK    1  A    between atoms: C_2  and  C_1 
REMARK    2  A    between atoms: C_13  and  N_5 
REMARK    3  A    between atoms: C_16  and  C_13 
REMARK    4  A    between atoms: C_17  and  C_16 
ROOT
ATOM      1  C   UNL d   1      31.924  17.828 -23.601  0.00  0.00     0.112 A 
ATOM      2  C   UNL d   1      31.964  18.645 -23.689  0.00  0.00     0.176 A 
ATOM      3  N   UNL d   1      32.656  18.912 -23.315  0.00  0.00    -0.285 N 
ATOM      4  C   UNL d   1      32.591  17.590 -23.173  0.00  0.00     0.219 A 
ATOM      5  C   UNL d   1      33.037  18.256 -23.000  0.00  0.00     0.124 A 
ATOM      6  O   UNL d   1      32.779  16.808 -22.955  0.00  0.00    -0.285 OA
ATOM      7  N   UNL d   1      31.404  19.117 -24.085  0.00  0.00    -0.128 N 
ENDROOT
BRANCH   1   8
ATOM      8  C   UNL d   1      31.313  17.357 -23.899  0.00  0.00     0.169 A 
ATOM      9  N   UNL d   1      31.335  16.786 -24.495  0.00  0.00    -0.225 NA
ATOM     10  C   UNL d   1      30.580  16.476 -24.581  0.00  0.00     0.101 A 
ATOM     11  C   UNL d   1      30.276  15.898 -25.083  0.00  0.00     0.021 A 
ATOM     12  C   UNL d   1      30.086  16.854 -24.037  0.00  0.00     0.101 A 
ATOM     13  C   UNL d   1      29.472  15.694 -25.045  0.00  0.00     0.002 A 
ATOM     14  C   UNL d   1      28.977  16.072 -24.501  0.00  0.00     0.002 A 
ATOM     15  C   UNL d   1      29.288  16.654 -23.996  0.00  0.00     0.021 A 
ATOM     16  N   UNL d   1      30.539  17.394 -23.620  0.00  0.00    -0.225 NA
ENDBRANCH   1   8
BRANCH   3  17
ATOM     17  C   UNL d   1      32.912  19.700 -23.271  0.00  0.00     0.082 C 
BRANCH  17  18
ATOM     18  C   UNL d   1      33.241  19.975 -22.579  0.00  0.00     0.019 C 
BRANCH  18  19
ATOM     19  C   UNL d   1      33.146  20.766 -22.366  0.00  0.00     0.002 C 
ATOM     20  C   UNL d   1      33.182  20.980 -21.576  0.00  0.00     0.000 C 
ENDBRANCH  18  19
ENDBRANCH  17  18
ENDBRANCH   3  17
TORSDOF 4
ENDMDL
