MODEL 1
REMARK VINA RESULT:       3.7      0.000      0.000
REMARK  3 active torsions:
REMARK  status: ('A' for Active; 'I' for Inactive)
REMARK    1  A    between atoms: C_4  and  C_1 
REMARK       I    between atoms: C_5  and  N_6 
REMARK    2  A    between atoms: C_8  and  C_5 
REMARK    3  A    between atoms: N_6  and  C_7 
ROOT
ATOM      1  C   UNL d   1     -41.485-121.032 -51.329  0.00  0.00     0.042 A 
ATOM      2  C   UNL d   1     -41.438-121.119 -52.150  0.00  0.00     0.087 A 
ATOM      3  C   UNL d   1     -41.351-120.291 -50.993  0.00  0.00     0.004 A 
ATOM      4  C   UNL d   1     -41.259-120.475 -52.631  0.00  0.00     0.019 A 
ATOM      5  C   UNL d   1     -41.171-119.642 -51.463  0.00  0.00     0.000 A 
ATOM      6  C   UNL d   1     -41.125-119.736 -52.290  0.00  0.00     0.002 A 
ENDROOT
BRANCH   1   7
ATOM      7  C   UNL d   1     -41.665-121.679 -50.850  0.00  0.00     0.112 A 
ATOM      8  N   UNL d   1     -42.333-122.147 -50.806  0.00  0.00    -0.238 NA
ATOM      9  C   UNL d   1     -42.204-122.716 -50.224  0.00  0.00     0.088 A 
ATOM     10  C   UNL d   1     -42.670-123.327 -49.939  0.00  0.00     0.020 A 
ATOM     11  C   UNL d   1     -41.456-122.592 -49.914  0.00  0.00     0.049 A 
ATOM     12  C   UNL d   1     -42.385-123.817 -49.338  0.00  0.00     0.002 A 
ATOM     13  C   UNL d   1     -41.636-123.693 -49.028  0.00  0.00     0.001 A 
ATOM     14  C   UNL d   1     -41.172-123.083 -49.314  0.00  0.00     0.008 A 
ATOM     15  S   UNL d   1     -41.123-121.944 -50.307  0.00  0.00    -0.066 SA
ENDBRANCH   1   7
BRANCH   2  16
ATOM     16  N   UNL d   1     -41.573-121.860 -52.487  0.00  0.00    -0.206 NA
ATOM     17  C   UNL d   1     -41.688-121.927 -53.310  0.00  0.00     0.302 C 
ATOM     18  O   UNL d   1     -41.666-121.254 -53.783  0.00  0.00    -0.263 OA
BRANCH  17  19
ATOM     19  C   UNL d   1     -41.822-122.667 -53.652  0.00  0.00     0.158 A 
ATOM     20  O   UNL d   1     -42.501-123.138 -53.705  0.00  0.00    -0.300 OA
ATOM     21  C   UNL d   1     -42.299-123.817 -54.109  0.00  0.00     0.123 A 
ATOM     22  C   UNL d   1     -41.501-123.784 -54.313  0.00  0.00     0.029 A 
ATOM     23  C   UNL d   1     -41.208-123.067 -54.027  0.00  0.00     0.032 A 
ENDBRANCH  17  19
ENDBRANCH   2  16
TORSDOF 3
ENDMDL
MODEL 2
REMARK VINA RESULT:       4.8      1.682      4.286
REMARK  3 active torsions:
REMARK  status: ('A' for Active; 'I' for Inactive)
REMARK    1  A    between atoms: C_4  and  C_1 
REMARK       I    between atoms: C_5  and  N_6 
REMARK    2  A    between atoms: C_8  and  C_5 
REMARK    3  A    between atoms: N_6  and  C_7 
ROOT
ATOM      1  C   UNL d   1     -41.507-122.774 -52.630  0.00  0.00     0.042 A 
ATOM      2  C   UNL d   1     -41.350-122.212 -52.045  0.00  0.00     0.087 A 
ATOM      3  C   UNL d   1     -41.530-123.573 -52.427  0.00  0.00     0.004 A 
ATOM      4  C   UNL d   1     -41.218-122.443 -51.265  0.00  0.00     0.019 A 
ATOM      5  C   UNL d   1     -41.399-123.815 -51.653  0.00  0.00     0.000 A 
ATOM      6  C   UNL d   1     -41.242-123.243 -51.067  0.00  0.00     0.002 A 
ENDROOT
BRANCH   1   7
ATOM      7  C   UNL d   1     -41.639-122.539 -53.410  0.00  0.00     0.112 A 
ATOM      8  N   UNL d   1     -41.124-122.275 -53.987  0.00  0.00    -0.238 NA
ATOM      9  C   UNL d   1     -41.565-122.119 -54.665  0.00  0.00     0.088 A 
ATOM     10  C   UNL d   1     -41.354-121.845 -55.408  0.00  0.00     0.020 A 
ATOM     11  C   UNL d   1     -42.349-122.289 -54.499  0.00  0.00     0.049 A 
ATOM     12  C   UNL d   1     -41.932-121.741 -55.989  0.00  0.00     0.002 A 
ATOM     13  C   UNL d   1     -42.716-121.912 -55.823  0.00  0.00     0.001 A 
ATOM     14  C   UNL d   1     -42.926-122.185 -55.080  0.00  0.00     0.008 A 
ATOM     15  S   UNL d   1     -42.391-122.551 -53.715  0.00  0.00    -0.066 SA
ENDBRANCH   1   7
BRANCH   2  16
ATOM     16  N   UNL d   1     -41.327-121.412 -52.246  0.00  0.00    -0.206 NA
ATOM     17  C   UNL d   1     -41.224-120.836 -51.652  0.00  0.00     0.302 C 
ATOM     18  O   UNL d   1     -41.146-121.069 -50.866  0.00  0.00    -0.263 OA
BRANCH  17  19
ATOM     19  C   UNL d   1     -41.200-120.036 -51.849  0.00  0.00     0.158 A 
ATOM     20  O   UNL d   1     -41.198-119.644 -52.579  0.00  0.00    -0.300 OA
ATOM     21  C   UNL d   1     -41.169-118.842 -52.429  0.00  0.00     0.123 A 
ATOM     22  C   UNL d   1     -41.153-118.720 -51.614  0.00  0.00     0.029 A 
ATOM     23  C   UNL d   1     -41.173-119.464 -51.256  0.00  0.00     0.032 A 
ENDBRANCH  17  19
ENDBRANCH   2  16
TORSDOF 3
ENDMDL
