MODEL 1
REMARK VINA RESULT:      -3.2      0.000      0.000
REMARK  8 active torsions:
REMARK  status: ('A' for Active; 'I' for Inactive)
REMARK    1  A    between atoms: N_5  and  C_1 
REMARK    2  A    between atoms: C_2  and  N_5 
REMARK    3  A    between atoms: N_3  and  C_2 
REMARK       I    between atoms: C_6  and  N_3 
REMARK    4  A    between atoms: C_13  and  C_6 
REMARK    5  A    between atoms: C_9  and  C_7 
REMARK    6  A    between atoms: C_11  and  C_9 
REMARK    7  A    between atoms: O_18  and  C_11 
REMARK    8  A    between atoms: C_22  and  O_18 
ROOT
ATOM      1  C   UNL d   1      32.132  17.870 -24.041  0.00  0.00     0.225 C 
ATOM      2  S   UNL d   1      32.271  18.172 -24.798  0.00  0.00    -0.037 SA
ENDROOT
BRANCH   1   3
ATOM      3  N   UNL d   1      32.705  17.875 -23.452  0.00  0.00    -0.192 NA
BRANCH   3   4
ATOM      4  C   UNL d   1      32.870  18.572 -23.072  0.00  0.00     0.196 A 
ATOM      5  N   UNL d   1      32.896  18.824 -22.292  0.00  0.00    -0.220 NA
ATOM      6  C   UNL d   1      33.097  19.589 -22.256  0.00  0.00     0.095 A 
ATOM      7  C   UNL d   1      33.214  19.880 -23.001  0.00  0.00     0.058 A 
ATOM      8  S   UNL d   1      33.080  19.270 -23.529  0.00  0.00    -0.046 SA
BRANCH   6   9
ATOM      9  C   UNL d   1      33.184  20.064 -21.527  0.00  0.00     0.088 C 
BRANCH   9  10
ATOM     10  C   UNL d   1      32.682  20.682 -21.377  0.00  0.00     0.302 C 
ATOM     11  O   UNL d   1      31.870  20.562 -21.332  0.00  0.00    -0.259 OA
BRANCH  10  12
ATOM     12  O   UNL d   1      32.993  21.453 -21.266  0.00  0.00    -0.271 OA
BRANCH  12  13
ATOM     13  C   UNL d   1      32.860  21.855 -20.550  0.00  0.00     0.126 C 
ATOM     14  C   UNL d   1      32.861  22.669 -20.526  0.00  0.00     0.029 C 
ENDBRANCH  12  13
ENDBRANCH  10  12
ENDBRANCH   9  10
ENDBRANCH   6   9
ENDBRANCH   3   4
ENDBRANCH   1   3
BRANCH   1  15
ATOM     15  N   UNL d   1      31.375  17.545 -23.869  0.00  0.00    -0.179 NA
ATOM     16  C   UNL d   1      31.148  16.884 -24.249  0.00  0.00     0.281 C 
ATOM     17  O   UNL d   1      31.644  16.515 -24.808  0.00  0.00    -0.265 OA
BRANCH  16  18
ATOM     18  C   UNL d   1      30.384  16.543 -24.085  0.00  0.00     0.058 A 
ATOM     19  C   UNL d   1      30.293  16.003 -23.468  0.00  0.00     0.005 A 
ATOM     20  C   UNL d   1      29.577  15.665 -23.292  0.00  0.00     0.000 A 
ATOM     21  C   UNL d   1      28.910  15.874 -23.755  0.00  0.00     0.000 A 
ATOM     22  C   UNL d   1      29.000  16.407 -24.363  0.00  0.00     0.000 A 
ATOM     23  C   UNL d   1      28.163  15.552 -23.608  0.00  0.00     0.000 C 
ATOM     24  C   UNL d   1      29.726  16.757 -24.550  0.00  0.00     0.005 A 
ENDBRANCH  16  18
ENDBRANCH   1  15
TORSDOF 8
ENDMDL
MODEL 2
REMARK VINA RESULT:      -1.7      2.831      4.144
REMARK  8 active torsions:
REMARK  status: ('A' for Active; 'I' for Inactive)
REMARK    1  A    between atoms: N_5  and  C_1 
REMARK    2  A    between atoms: C_2  and  N_5 
REMARK    3  A    between atoms: N_3  and  C_2 
REMARK       I    between atoms: C_6  and  N_3 
REMARK    4  A    between atoms: C_13  and  C_6 
REMARK    5  A    between atoms: C_9  and  C_7 
REMARK    6  A    between atoms: C_11  and  C_9 
REMARK    7  A    between atoms: O_18  and  C_11 
REMARK    8  A    between atoms: C_22  and  O_18 
ROOT
ATOM      1  C   UNL d   1      32.854  20.935 -21.797  0.00  0.00     0.225 C 
ATOM      2  S   UNL d   1      33.241  20.699 -21.106  0.00  0.00    -0.037 SA
ENDROOT
BRANCH   1   3
ATOM      3  N   UNL d   1      32.428  21.637 -21.845  0.00  0.00    -0.192 NA
BRANCH   3   4
ATOM      4  C   UNL d   1      32.543  22.205 -21.278  0.00  0.00     0.196 A 
ATOM      5  N   UNL d   1      32.980  22.264 -20.587  0.00  0.00    -0.220 NA
ATOM      6  C   UNL d   1      32.872  22.974 -20.253  0.00  0.00     0.095 A 
ATOM      7  C   UNL d   1      32.365  23.417 -20.700  0.00  0.00     0.058 A 
ATOM      8  S   UNL d   1      32.144  22.964 -21.344  0.00  0.00    -0.046 SA
BRANCH   6   9
ATOM      9  C   UNL d   1      33.240  23.254 -19.510  0.00  0.00     0.088 C 
BRANCH   9  10
ATOM     10  C   UNL d   1      32.780  23.465 -18.878  0.00  0.00     0.302 C 
ATOM     11  O   UNL d   1      31.969  23.570 -18.966  0.00  0.00    -0.259 OA
BRANCH  10  12
ATOM     12  O   UNL d   1      33.132  23.579 -18.126  0.00  0.00    -0.271 OA
BRANCH  12  13
ATOM     13  C   UNL d   1      32.719  23.363 -17.437  0.00  0.00     0.126 C 
ATOM     14  C   UNL d   1      33.052  23.475 -16.702  0.00  0.00     0.029 C 
ENDBRANCH  12  13
ENDBRANCH  10  12
ENDBRANCH   9  10
ENDBRANCH   6   9
ENDBRANCH   3   4
ENDBRANCH   1   3
BRANCH   1  15
ATOM     15  N   UNL d   1      32.898  20.439 -22.476  0.00  0.00    -0.179 NA
ATOM     16  C   UNL d   1      32.893  19.650 -22.372  0.00  0.00     0.281 C 
ATOM     17  O   UNL d   1      32.846  19.315 -21.611  0.00  0.00    -0.265 OA
BRANCH  16  18
ATOM     18  C   UNL d   1      32.938  19.135 -23.049  0.00  0.00     0.058 A 
ATOM     19  C   UNL d   1      33.190  19.427 -23.778  0.00  0.00     0.005 A 
ATOM     20  C   UNL d   1      33.241  18.958 -24.438  0.00  0.00     0.000 A 
ATOM     21  C   UNL d   1      33.029  18.149 -24.373  0.00  0.00     0.000 A 
ATOM     22  C   UNL d   1      32.780  17.861 -23.654  0.00  0.00     0.000 A 
ATOM     23  C   UNL d   1      33.067  17.638 -25.020  0.00  0.00     0.000 C 
ATOM     24  C   UNL d   1      32.725  18.332 -22.975  0.00  0.00     0.005 A 
ENDBRANCH  16  18
ENDBRANCH   1  15
TORSDOF 8
ENDMDL
MODEL 3
REMARK VINA RESULT:      -1.4      1.162      5.380
REMARK  8 active torsions:
REMARK  status: ('A' for Active; 'I' for Inactive)
REMARK    1  A    between atoms: N_5  and  C_1 
REMARK    2  A    between atoms: C_2  and  N_5 
REMARK    3  A    between atoms: N_3  and  C_2 
REMARK       I    between atoms: C_6  and  N_3 
REMARK    4  A    between atoms: C_13  and  C_6 
REMARK    5  A    between atoms: C_9  and  C_7 
REMARK    6  A    between atoms: C_11  and  C_9 
REMARK    7  A    between atoms: O_18  and  C_11 
REMARK    8  A    between atoms: C_22  and  O_18 
ROOT
ATOM      1  C   UNL d   1      32.910  18.485 -23.021  0.00  0.00     0.225 C 
ATOM      2  S   UNL d   1      32.989  17.935 -22.409  0.00  0.00    -0.037 SA
ENDROOT
BRANCH   1   3
ATOM      3  N   UNL d   1      32.893  18.265 -23.813  0.00  0.00    -0.192 NA
BRANCH   3   4
ATOM      4  C   UNL d   1      32.209  17.954 -24.118  0.00  0.00     0.196 A 
ATOM      5  N   UNL d   1      31.579  17.519 -23.824  0.00  0.00    -0.220 NA
ATOM      6  C   UNL d   1      31.056  17.369 -24.398  0.00  0.00     0.095 A 
ATOM      7  C   UNL d   1      31.307  17.693 -25.095  0.00  0.00     0.058 A 
ATOM      8  S   UNL d   1      32.023  18.064 -24.950  0.00  0.00    -0.046 SA
BRANCH   6   9
ATOM      9  C   UNL d   1      30.310  16.921 -24.310  0.00  0.00     0.088 C 
BRANCH   9  10
ATOM     10  C   UNL d   1      29.595  17.294 -24.391  0.00  0.00     0.302 C 
ATOM     11  O   UNL d   1      29.511  18.088 -24.195  0.00  0.00    -0.259 OA
BRANCH  10  12
ATOM     12  O   UNL d   1      28.933  16.867 -24.677  0.00  0.00    -0.271 OA
BRANCH  12  13
ATOM     13  C   UNL d   1      28.705  16.158 -24.307  0.00  0.00     0.126 C 
ATOM     14  C   UNL d   1      28.673  15.461 -24.728  0.00  0.00     0.029 C 
ENDBRANCH  12  13
ENDBRANCH  10  12
ENDBRANCH   9  10
ENDBRANCH   6   9
ENDBRANCH   3   4
ENDBRANCH   1   3
BRANCH   1  15
ATOM     15  N   UNL d   1      32.845  19.301 -22.824  0.00  0.00    -0.179 NA
ATOM     16  C   UNL d   1      33.006  19.528 -22.078  0.00  0.00     0.281 C 
ATOM     17  O   UNL d   1      33.234  18.975 -21.499  0.00  0.00    -0.265 OA
BRANCH  16  18
ATOM     18  C   UNL d   1      32.944  20.350 -21.865  0.00  0.00     0.058 A 
ATOM     19  C   UNL d   1      33.234  20.935 -22.370  0.00  0.00     0.005 A 
ATOM     20  C   UNL d   1      33.187  21.724 -22.190  0.00  0.00     0.000 A 
ATOM     21  C   UNL d   1      32.833  21.950 -21.465  0.00  0.00     0.000 A 
ATOM     22  C   UNL d   1      32.547  21.374 -20.966  0.00  0.00     0.000 A 
ATOM     23  C   UNL d   1      32.766  22.743 -21.244  0.00  0.00     0.000 C 
ATOM     24  C   UNL d   1      32.590  20.566 -21.141  0.00  0.00     0.005 A 
ENDBRANCH  16  18
ENDBRANCH   1  15
TORSDOF 8
ENDMDL
MODEL 4
REMARK VINA RESULT:      -0.3      1.921      2.815
REMARK  8 active torsions:
REMARK  status: ('A' for Active; 'I' for Inactive)
REMARK    1  A    between atoms: N_5  and  C_1 
REMARK    2  A    between atoms: C_2  and  N_5 
REMARK    3  A    between atoms: N_3  and  C_2 
REMARK       I    between atoms: C_6  and  N_3 
REMARK    4  A    between atoms: C_13  and  C_6 
REMARK    5  A    between atoms: C_9  and  C_7 
REMARK    6  A    between atoms: C_11  and  C_9 
REMARK    7  A    between atoms: O_18  and  C_11 
REMARK    8  A    between atoms: C_22  and  O_18 
ROOT
ATOM      1  C   UNL d   1      33.037  19.537 -22.514  0.00  0.00     0.225 C 
ATOM      2  S   UNL d   1      33.190  20.133 -23.066  0.00  0.00    -0.037 SA
ENDROOT
BRANCH   1   3
ATOM      3  N   UNL d   1      32.924  19.695 -21.715  0.00  0.00    -0.192 NA
BRANCH   3   4
ATOM      4  C   UNL d   1      32.972  20.462 -21.457  0.00  0.00     0.196 A 
ATOM      5  N   UNL d   1      32.834  21.201 -21.784  0.00  0.00    -0.220 NA
ATOM      6  C   UNL d   1      32.979  21.769 -21.252  0.00  0.00     0.095 A 
ATOM      7  C   UNL d   1      33.218  21.441 -20.553  0.00  0.00     0.058 A 
ATOM      8  S   UNL d   1      33.223  20.628 -20.651  0.00  0.00    -0.046 SA
BRANCH   6   9
ATOM      9  C   UNL d   1      32.898  22.630 -21.384  0.00  0.00     0.088 C 
BRANCH   9  10
ATOM     10  C   UNL d   1      32.409  23.073 -20.913  0.00  0.00     0.302 C 
ATOM     11  O   UNL d   1      31.596  23.072 -21.035  0.00  0.00    -0.259 OA
BRANCH  10  12
ATOM     12  O   UNL d   1      32.734  23.538 -20.297  0.00  0.00    -0.271 OA
BRANCH  12  13
ATOM     13  C   UNL d   1      32.294  23.675 -19.604  0.00  0.00     0.126 C 
ATOM     14  C   UNL d   1      32.662  23.702 -18.878  0.00  0.00     0.029 C 
ENDBRANCH  12  13
ENDBRANCH  10  12
ENDBRANCH   9  10
ENDBRANCH   6   9
ENDBRANCH   3   4
ENDBRANCH   1   3
BRANCH   1  15
ATOM     15  N   UNL d   1      32.997  18.739 -22.780  0.00  0.00    -0.179 NA
ATOM     16  C   UNL d   1      32.675  18.592 -23.493  0.00  0.00     0.281 C 
ATOM     17  O   UNL d   1      32.382  19.207 -23.971  0.00  0.00    -0.265 OA
BRANCH  16  18
ATOM     18  C   UNL d   1      32.627  17.789 -23.777  0.00  0.00     0.058 A 
ATOM     19  C   UNL d   1      31.978  17.318 -23.584  0.00  0.00     0.005 A 
ATOM     20  C   UNL d   1      31.909  16.552 -23.841  0.00  0.00     0.000 A 
ATOM     21  C   UNL d   1      32.519  16.231 -24.318  0.00  0.00     0.000 A 
ATOM     22  C   UNL d   1      33.159  16.696 -24.508  0.00  0.00     0.000 A 
ATOM     23  C   UNL d   1      32.486  15.456 -24.599  0.00  0.00     0.000 C 
ATOM     24  C   UNL d   1      33.238  17.479 -24.251  0.00  0.00     0.005 A 
ENDBRANCH  16  18
ENDBRANCH   1  15
TORSDOF 8
ENDMDL
MODEL 5
REMARK VINA RESULT:      -0.3      2.381      3.167
REMARK  8 active torsions:
REMARK  status: ('A' for Active; 'I' for Inactive)
REMARK    1  A    between atoms: N_5  and  C_1 
REMARK    2  A    between atoms: C_2  and  N_5 
REMARK    3  A    between atoms: N_3  and  C_2 
REMARK       I    between atoms: C_6  and  N_3 
REMARK    4  A    between atoms: C_13  and  C_6 
REMARK    5  A    between atoms: C_9  and  C_7 
REMARK    6  A    between atoms: C_11  and  C_9 
REMARK    7  A    between atoms: O_18  and  C_11 
REMARK    8  A    between atoms: C_22  and  O_18 
ROOT
ATOM      1  C   UNL d   1      32.896  20.374 -23.076  0.00  0.00     0.225 C 
ATOM      2  S   UNL d   1      32.881  20.452 -22.254  0.00  0.00    -0.037 SA
ENDROOT
BRANCH   1   3
ATOM      3  N   UNL d   1      32.987  21.018 -23.579  0.00  0.00    -0.192 NA
BRANCH   3   4
ATOM      4  C   UNL d   1      33.071  21.758 -23.257  0.00  0.00     0.196 A 
ATOM      5  N   UNL d   1      33.091  22.069 -22.499  0.00  0.00    -0.220 NA
ATOM      6  C   UNL d   1      33.190  22.853 -22.525  0.00  0.00     0.095 A 
ATOM      7  C   UNL d   1      33.241  23.101 -23.293  0.00  0.00     0.058 A 
ATOM      8  S   UNL d   1      33.170  22.440 -23.771  0.00  0.00    -0.046 SA
BRANCH   6   9
ATOM      9  C   UNL d   1      33.240  23.389 -21.836  0.00  0.00     0.088 C 
BRANCH   9  10
ATOM     10  C   UNL d   1      32.701  23.335 -21.233  0.00  0.00     0.302 C 
ATOM     11  O   UNL d   1      31.896  23.409 -21.382  0.00  0.00    -0.259 OA
BRANCH  10  12
ATOM     12  O   UNL d   1      32.966  23.201 -20.449  0.00  0.00    -0.271 OA
BRANCH  12  13
ATOM     13  C   UNL d   1      32.533  23.507 -19.808  0.00  0.00     0.126 C 
ATOM     14  C   UNL d   1      32.753  23.340 -19.041  0.00  0.00     0.029 C 
ENDBRANCH  12  13
ENDBRANCH  10  12
ENDBRANCH   9  10
ENDBRANCH   6   9
ENDBRANCH   3   4
ENDBRANCH   1   3
BRANCH   1  15
ATOM     15  N   UNL d   1      32.817  19.605 -23.411  0.00  0.00    -0.179 NA
ATOM     16  C   UNL d   1      32.919  18.972 -22.939  0.00  0.00     0.281 C 
ATOM     17  O   UNL d   1      33.101  19.060 -22.132  0.00  0.00    -0.265 OA
BRANCH  16  18
ATOM     18  C   UNL d   1      32.842  18.188 -23.264  0.00  0.00     0.058 A 
ATOM     19  C   UNL d   1      33.239  17.553 -22.917  0.00  0.00     0.005 A 
ATOM     20  C   UNL d   1      33.182  16.797 -23.207  0.00  0.00     0.000 A 
ATOM     21  C   UNL d   1      32.702  16.661 -23.880  0.00  0.00     0.000 A 
ATOM     22  C   UNL d   1      32.310  17.287 -24.222  0.00  0.00     0.000 A 
ATOM     23  C   UNL d   1      32.618  15.906 -24.206  0.00  0.00     0.000 C 
ATOM     24  C   UNL d   1      32.363  18.061 -23.934  0.00  0.00     0.005 A 
ENDBRANCH  16  18
ENDBRANCH   1  15
TORSDOF 8
ENDMDL
