MODEL 1
REMARK VINA RESULT:       0.1      0.000      0.000
REMARK  1 active torsions:
REMARK  status: ('A' for Active; 'I' for Inactive)
REMARK    1  A    between atoms: C_6  and  C_1 
ROOT
ATOM      1  C   UNL d   1      46.511 -19.036  42.507  0.00  0.00     0.085 A 
ATOM      2  C   UNL d   1      46.573 -19.791  42.166  0.00  0.00     0.137 A 
ATOM      3  S   UNL d   1      46.603 -20.325  42.744  0.00  0.00    -0.066 SA
ATOM      4  C   UNL d   1      46.503 -19.136  43.322  0.00  0.00     0.013 A 
ATOM      5  C   UNL d   1      46.561 -19.939  43.470  0.00  0.00     0.031 A 
ATOM      6  N   UNL d   1      46.601 -19.963  41.343  0.00  0.00    -0.141 N 
ATOM      7  C   UNL d   1      46.452 -18.606  43.953  0.00  0.00     0.001 A 
ATOM      8  C   UNL d   1      46.567 -20.213  44.249  0.00  0.00     0.006 A 
ATOM      9  C   UNL d   1      46.458 -18.880  44.731  0.00  0.00     0.000 A 
ATOM     10  C   UNL d   1      46.516 -19.682  44.879  0.00  0.00     0.001 A 
ENDROOT
BRANCH   1  11
ATOM     11  C   UNL d   1      46.462 -18.283  42.090  0.00  0.00     0.299 C 
ATOM     12  O   UNL d   1      46.381 -17.573  42.523  0.00  0.00    -0.264 OA
ATOM     13  N   UNL d   1      46.494 -18.257  41.261  0.00  0.00    -0.102 N 
ENDBRANCH   1  11
TORSDOF 1
ENDMDL
MODEL 2
REMARK VINA RESULT:       0.4      1.491      2.325
REMARK  1 active torsions:
REMARK  status: ('A' for Active; 'I' for Inactive)
REMARK    1  A    between atoms: C_6  and  C_1 
ROOT
ATOM      1  C   UNL d   1      46.409 -19.113  43.600  0.00  0.00     0.085 A 
ATOM      2  C   UNL d   1      46.442 -19.921  43.787  0.00  0.00     0.137 A 
ATOM      3  S   UNL d   1      46.529 -20.330  43.119  0.00  0.00    -0.066 SA
ATOM      4  C   UNL d   1      46.481 -19.048  42.785  0.00  0.00     0.013 A 
ATOM      5  C   UNL d   1      46.555 -19.805  42.485  0.00  0.00     0.031 A 
ATOM      6  N   UNL d   1      46.390 -20.255  44.557  0.00  0.00    -0.141 N 
ATOM      7  C   UNL d   1      46.489 -18.401  42.271  0.00  0.00     0.001 A 
ATOM      8  C   UNL d   1      46.638 -19.918  41.671  0.00  0.00     0.006 A 
ATOM      9  C   UNL d   1      46.571 -18.514  41.458  0.00  0.00     0.000 A 
ATOM     10  C   UNL d   1      46.646 -19.271  41.158  0.00  0.00     0.001 A 
ENDROOT
BRANCH   1  11
ATOM     11  C   UNL d   1      46.318 -18.457  44.153  0.00  0.00     0.299 C 
ATOM     12  O   UNL d   1      45.945 -17.752  43.903  0.00  0.00    -0.264 OA
ATOM     13  N   UNL d   1      46.597 -18.522  44.932  0.00  0.00    -0.102 N 
ENDBRANCH   1  11
TORSDOF 1
ENDMDL
MODEL 3
REMARK VINA RESULT:       2.4      0.986      1.602
REMARK  1 active torsions:
REMARK  status: ('A' for Active; 'I' for Inactive)
REMARK    1  A    between atoms: C_6  and  C_1 
ROOT
ATOM      1  C   UNL d   1      46.547 -19.062  42.264  0.00  0.00     0.085 A 
ATOM      2  C   UNL d   1      46.475 -18.240  42.355  0.00  0.00     0.137 A 
ATOM      3  S   UNL d   1      46.456 -18.074  43.125  0.00  0.00    -0.066 SA
ATOM      4  C   UNL d   1      46.570 -19.390  43.016  0.00  0.00     0.013 A 
ATOM      5  C   UNL d   1      46.513 -18.775  43.552  0.00  0.00     0.031 A 
ATOM      6  N   UNL d   1      46.430 -17.674  41.734  0.00  0.00    -0.141 N 
ATOM      7  C   UNL d   1      46.636 -20.167  43.289  0.00  0.00     0.001 A 
ATOM      8  C   UNL d   1      46.522 -18.935  44.363  0.00  0.00     0.006 A 
ATOM      9  C   UNL d   1      46.644 -20.327  44.098  0.00  0.00     0.000 A 
ATOM     10  C   UNL d   1      46.587 -19.712  44.635  0.00  0.00     0.001 A 
ENDROOT
BRANCH   1  11
ATOM     11  C   UNL d   1      46.590 -19.499  41.521  0.00  0.00     0.299 C 
ATOM     12  O   UNL d   1      46.645 -19.085  40.798  0.00  0.00    -0.264 OA
ATOM     13  N   UNL d   1      46.576 -20.330  41.520  0.00  0.00    -0.102 N 
ENDBRANCH   1  11
TORSDOF 1
ENDMDL
MODEL 4
REMARK VINA RESULT:       3.0      5.375      6.018
REMARK  1 active torsions:
REMARK  status: ('A' for Active; 'I' for Inactive)
REMARK    1  A    between atoms: C_6  and  C_1 
ROOT
ATOM      1  C   UNL d   1      45.329 -13.152  43.954  0.00  0.00     0.085 A 
ATOM      2  C   UNL d   1      45.957 -12.870  44.418  0.00  0.00     0.137 A 
ATOM      3  S   UNL d   1      46.240 -13.467  44.847  0.00  0.00    -0.066 SA
ATOM      4  C   UNL d   1      45.242 -13.951  44.121  0.00  0.00     0.013 A 
ATOM      5  C   UNL d   1      45.809 -14.148  44.676  0.00  0.00     0.031 A 
ATOM      6  N   UNL d   1      46.247 -12.080  44.433  0.00  0.00    -0.141 N 
ATOM      7  C   UNL d   1      44.723 -14.530  43.842  0.00  0.00     0.001 A 
ATOM      8  C   UNL d   1      45.859 -14.924  44.955  0.00  0.00     0.006 A 
ATOM      9  C   UNL d   1      44.773 -15.306  44.121  0.00  0.00     0.000 A 
ATOM     10  C   UNL d   1      45.341 -15.502  44.677  0.00  0.00     0.001 A 
ENDROOT
BRANCH   1  11
ATOM     11  C   UNL d   1      44.851 -12.697  43.399  0.00  0.00     0.299 C 
ATOM     12  O   UNL d   1      45.151 -12.521  42.639  0.00  0.00    -0.264 OA
ATOM     13  N   UNL d   1      44.093 -12.433  43.613  0.00  0.00    -0.102 N 
ENDBRANCH   1  11
TORSDOF 1
ENDMDL
