MODEL 1
REMARK VINA RESULT:      -4.9      0.000      0.000
REMARK  0 active torsions:
REMARK  status: ('A' for Active; 'I' for Inactive)
ROOT
ATOM      1  N   UNL d   1     -41.825-122.070 -52.449  0.00  0.00    -0.176 N 
ATOM      2  C   UNL d   1     -41.538-122.795 -52.719  0.00  0.00     0.167 A 
ATOM      3  N   UNL d   1     -42.052-121.504 -52.967  0.00  0.00    -0.150 NA
ATOM      4  C   UNL d   1     -41.873-121.935 -51.618  0.00  0.00     0.283 A 
ATOM      5  N   UNL d   1     -41.303-123.380 -52.155  0.00  0.00    -0.227 NA
ATOM      6  C   UNL d   1     -42.003-121.641 -53.793  0.00  0.00     0.159 A 
ATOM      7  C   UNL d   1     -41.641-122.510 -51.068  0.00  0.00     0.076 A 
ATOM      8  C   UNL d   1     -41.482-122.950 -53.504  0.00  0.00     0.038 A 
ATOM      9  C   UNL d   1     -41.355-123.235 -51.338  0.00  0.00     0.088 A 
ATOM     10  C   UNL d   1     -41.717-122.367 -54.062  0.00  0.00     0.033 A 
ATOM     11  O   UNL d   1     -42.161-121.204 -51.347  0.00  0.00    -0.265 OA
ATOM     12 CL   UNL d   1     -42.231-121.074 -54.315  0.00  0.00    -0.060 Cl
ATOM     13  C   UNL d   1     -41.693-122.366 -50.265  0.00  0.00     0.006 A 
ATOM     14  C   UNL d   1     -41.196-123.675 -53.773  0.00  0.00     0.003 A 
ATOM     15  C   UNL d   1     -41.661-122.520 -54.851  0.00  0.00     0.003 A 
ATOM     16  C   UNL d   1     -41.123-123.812 -50.801  0.00  0.00     0.019 A 
ATOM     17  C   UNL d   1     -41.462-122.940 -49.721  0.00  0.00     0.000 A 
ATOM     18  C   UNL d   1     -41.144-123.817 -54.601  0.00  0.00     0.000 A 
ATOM     19  C   UNL d   1     -41.375-123.245 -55.121  0.00  0.00     0.000 A 
ATOM     20  C   UNL d   1     -41.176-123.665 -49.990  0.00  0.00     0.002 A 
ENDROOT
TORSDOF 0
ENDMDL
