MODEL 1
REMARK VINA RESULT:      -2.2      0.000      0.000
REMARK  6 active torsions:
REMARK  status: ('A' for Active; 'I' for Inactive)
REMARK    1  A    between atoms: C_9  and  N_1 
REMARK    2  A    between atoms: N_6  and  C_2 
REMARK    3  A    between atoms: C_7  and  C_5 
REMARK    4  A    between atoms: C_13  and  N_6 
REMARK    5  A    between atoms: C_8  and  C_7 
REMARK       I    between atoms: N_10  and  C_8 
REMARK    6  A    between atoms: C_14  and  N_10 
ROOT
ATOM      1  N   UNL d   1      59.023  -0.286  29.837  0.00  0.00    -0.254 N 
ATOM      2  C   UNL d   1      58.624  -0.931  29.511  0.00  0.00     0.182 A 
ATOM      3  C   UNL d   1      58.622  -0.028  30.472  0.00  0.00     0.272 A 
ATOM      4  S   UNL d   1      57.944  -1.062  29.987  0.00  0.00    -0.045 SA
ATOM      5  C   UNL d   1      57.947  -0.497  30.584  0.00  0.00     0.093 A 
ATOM      6  O   UNL d   1      58.834   0.604  30.952  0.00  0.00    -0.266 OA
ENDROOT
BRANCH   5   7
ATOM      7  C   UNL d   1      57.390  -0.417  31.170  0.00  0.00     0.074 C 
BRANCH   7   8
ATOM      8  C   UNL d   1      56.817   0.171  31.103  0.00  0.00     0.280 C 
ATOM      9  N   UNL d   1      56.226   0.223  31.701  0.00  0.00    -0.208 NA
ATOM     10  O   UNL d   1      56.823   0.679  30.486  0.00  0.00    -0.265 OA
BRANCH   9  11
ATOM     11  C   UNL d   1      56.235  -0.303  32.323  0.00  0.00     0.085 A 
ATOM     12  C   UNL d   1      56.493  -0.052  33.073  0.00  0.00     0.019 A 
ATOM     13  C   UNL d   1      56.507  -0.583  33.716  0.00  0.00     0.002 A 
ATOM     14  C   UNL d   1      56.258  -1.360  33.592  0.00  0.00     0.000 A 
ATOM     15  C   UNL d   1      55.999  -1.613  32.844  0.00  0.00     0.002 A 
ATOM     16  C   UNL d   1      55.988  -1.087  32.210  0.00  0.00     0.019 A 
ENDBRANCH   9  11
ENDBRANCH   7   8
ENDBRANCH   5   7
BRANCH   1  17
ATOM     17  C   UNL d   1      59.714   0.034  29.555  0.00  0.00     0.069 A 
ATOM     18  C   UNL d   1      60.379   0.062  30.051  0.00  0.00     0.018 A 
ATOM     19  C   UNL d   1      61.093   0.388  29.774  0.00  0.00     0.002 A 
ATOM     20  C   UNL d   1      61.131   0.681  29.003  0.00  0.00     0.000 A 
ATOM     21  C   UNL d   1      60.465   0.653  28.507  0.00  0.00     0.002 A 
ATOM     22  C   UNL d   1      59.763   0.329  28.790  0.00  0.00     0.018 A 
ENDBRANCH   1  17
BRANCH   2  23
ATOM     23  N   UNL d   1      58.798  -1.395  28.863  0.00  0.00    -0.222 NA
BRANCH  23  24
ATOM     24  C   UNL d   1      58.839  -2.208  28.929  0.00  0.00     0.084 A 
ATOM     25  C   UNL d   1      58.163  -2.666  28.820  0.00  0.00     0.019 A 
ATOM     26  C   UNL d   1      58.213  -3.496  28.889  0.00  0.00     0.002 A 
ATOM     27  C   UNL d   1      58.919  -3.846  29.062  0.00  0.00     0.000 A 
ATOM     28  C   UNL d   1      59.602  -3.385  29.172  0.00  0.00     0.002 A 
ATOM     29  C   UNL d   1      59.561  -2.564  29.105  0.00  0.00     0.019 A 
ENDBRANCH  23  24
ENDBRANCH   2  23
TORSDOF 6
ENDMDL
MODEL 2
REMARK VINA RESULT:      -0.7      1.354      4.497
REMARK  6 active torsions:
REMARK  status: ('A' for Active; 'I' for Inactive)
REMARK    1  A    between atoms: C_9  and  N_1 
REMARK    2  A    between atoms: N_6  and  C_2 
REMARK    3  A    between atoms: C_7  and  C_5 
REMARK    4  A    between atoms: C_13  and  N_6 
REMARK    5  A    between atoms: C_8  and  C_7 
REMARK       I    between atoms: N_10  and  C_8 
REMARK    6  A    between atoms: C_14  and  N_10 
ROOT
ATOM      1  N   UNL d   1      57.474  -0.383  31.363  0.00  0.00    -0.254 N 
ATOM      2  C   UNL d   1      58.148   0.076  31.235  0.00  0.00     0.182 A 
ATOM      3  C   UNL d   1      57.393  -0.897  30.763  0.00  0.00     0.272 A 
ATOM      4  S   UNL d   1      58.486  -0.186  30.511  0.00  0.00    -0.045 SA
ATOM      5  C   UNL d   1      58.012  -0.792  30.222  0.00  0.00     0.093 A 
ATOM      6  O   UNL d   1      56.792  -1.452  30.683  0.00  0.00    -0.266 OA
ENDROOT
BRANCH   5   7
ATOM      7  C   UNL d   1      58.132  -1.207  29.533  0.00  0.00     0.074 C 
BRANCH   7   8
ATOM      8  C   UNL d   1      58.455  -0.820  28.882  0.00  0.00     0.280 C 
ATOM      9  N   UNL d   1      59.076  -1.199  28.460  0.00  0.00    -0.208 NA
ATOM     10  O   UNL d   1      58.183  -0.103  28.657  0.00  0.00    -0.265 OA
BRANCH   9  11
ATOM     11  C   UNL d   1      59.341  -1.931  28.702  0.00  0.00     0.085 A 
ATOM     12  C   UNL d   1      60.014  -1.987  29.188  0.00  0.00     0.019 A 
ATOM     13  C   UNL d   1      60.293  -2.731  29.442  0.00  0.00     0.002 A 
ATOM     14  C   UNL d   1      59.887  -3.408  29.202  0.00  0.00     0.000 A 
ATOM     15  C   UNL d   1      59.213  -3.354  28.716  0.00  0.00     0.002 A 
ATOM     16  C   UNL d   1      58.941  -2.619  28.467  0.00  0.00     0.019 A 
ENDBRANCH   9  11
ENDBRANCH   7   8
ENDBRANCH   5   7
BRANCH   1  17
ATOM     17  C   UNL d   1      56.974  -0.319  32.000  0.00  0.00     0.069 A 
ATOM     18  C   UNL d   1      56.846  -0.984  32.482  0.00  0.00     0.018 A 
ATOM     19  C   UNL d   1      56.336  -0.932  33.137  0.00  0.00     0.002 A 
ATOM     20  C   UNL d   1      55.960  -0.215  33.301  0.00  0.00     0.000 A 
ATOM     21  C   UNL d   1      56.088   0.450  32.819  0.00  0.00     0.002 A 
ATOM     22  C   UNL d   1      56.595   0.389  32.173  0.00  0.00     0.018 A 
ENDBRANCH   1  17
BRANCH   2  23
ATOM     23  N   UNL d   1      58.477   0.677  31.677  0.00  0.00    -0.222 NA
BRANCH  23  24
ATOM     24  C   UNL d   1      59.275   0.676  31.855  0.00  0.00     0.084 A 
ATOM     25  C   UNL d   1      59.522   0.676  32.641  0.00  0.00     0.019 A 
ATOM     26  C   UNL d   1      60.339   0.675  32.815  0.00  0.00     0.002 A 
ATOM     27  C   UNL d   1      60.880   0.675  32.216  0.00  0.00     0.000 A 
ATOM     28  C   UNL d   1      60.631   0.675  31.423  0.00  0.00     0.002 A 
ATOM     29  C   UNL d   1      59.826   0.676  31.243  0.00  0.00     0.019 A 
ENDBRANCH  23  24
ENDBRANCH   2  23
TORSDOF 6
ENDMDL
