MODEL 1
REMARK VINA RESULT:      54.0      0.000      0.000
REMARK  8 active torsions:
REMARK  status: ('A' for Active; 'I' for Inactive)
REMARK    1  A    between atoms: S_10  and  C_2 
REMARK    2  A    between atoms: C_7  and  C_4 
REMARK    3  A    between atoms: C_17  and  S_10 
REMARK    4  A    between atoms: C_14  and  C_17 
REMARK    5  A    between atoms: O_18  and  C_14 
REMARK    6  A    between atoms: O_19  and  C_15 
REMARK    7  A    between atoms: C_22  and  O_18 
REMARK    8  A    between atoms: C_23  and  O_19 
ROOT
ATOM      1  C   UNL d   1      14.469  14.219  -1.810  0.00  0.00     0.093 A 
ATOM      2  C   UNL d   1      14.456  14.760  -2.444  0.00  0.00     0.124 A 
ATOM      3  N   UNL d   1      14.104  14.545  -3.160  0.00  0.00    -0.200 NA
ATOM      4  C   UNL d   1      14.130  13.472  -1.900  0.00  0.00     0.028 A 
ATOM      5  C   UNL d   1      13.781  13.260  -2.614  0.00  0.00     0.127 A 
ATOM      6  C   UNL d   1      13.767  13.800  -3.247  0.00  0.00     0.289 A 
ATOM      7  C   UNL d   1      14.817  14.428  -1.099  0.00  0.00     0.103 C 
ATOM      8  C   UNL d   1      13.442  12.513  -2.703  0.00  0.00     0.106 C 
ATOM      9  N   UNL d   1      15.163  14.640  -0.397  0.00  0.00    -0.191 NA
ATOM     10  N   UNL d   1      13.110  11.779  -2.792  0.00  0.00    -0.191 NA
ATOM     11  O   UNL d   1      13.374  13.521  -4.004  0.00  0.00    -0.264 OA
ENDROOT
BRANCH   2  12
ATOM     12  S   UNL d   1      14.826  15.529  -2.293  0.00  0.00    -0.061 SA
BRANCH  12  13
ATOM     13  C   UNL d   1      14.720  16.277  -2.727  0.00  0.00     0.105 C 
BRANCH  13  14
ATOM     14  C   UNL d   1      15.360  16.866  -2.722  0.00  0.00     0.307 C 
ATOM     15  O   UNL d   1      15.510  17.125  -2.287  0.00  0.00    -0.258 OA
BRANCH  14  16
ATOM     16  O   UNL d   1      15.743  16.997  -3.511  0.00  0.00    -0.271 OA
BRANCH  16  17
ATOM     17  C   UNL d   1      15.180  17.217  -4.182  0.00  0.00     0.126 C 
ATOM     18  C   UNL d   1      15.480  18.026  -4.548  0.00  0.00     0.029 C 
ENDBRANCH  16  17
ENDBRANCH  14  16
ENDBRANCH  13  14
ENDBRANCH  12  13
ENDBRANCH   2  12
BRANCH   4  19
ATOM     19  C   UNL d   1      14.143  12.939  -1.276  0.00  0.00     0.024 A 
ATOM     20  C   UNL d   1      14.771  12.414  -1.197  0.00  0.00     0.100 A 
ATOM     21  C   UNL d   1      14.784  11.878  -0.568  0.00  0.00     0.025 A 
ATOM     22  C   UNL d   1      14.170  11.868  -0.019  0.00  0.00     0.002 A 
ATOM     23  C   UNL d   1      13.539  12.397  -0.099  0.00  0.00     0.000 A 
ATOM     24  C   UNL d   1      13.526  12.933  -0.728  0.00  0.00     0.002 A 
BRANCH  20  25
ATOM     25  O   UNL d   1      15.325  12.359  -1.616  0.00  0.00    -0.305 OA
BRANCH  25  26
ATOM     26  C   UNL d   1      15.919  11.905  -1.317  0.00  0.00     0.123 C 
ATOM     27  C   UNL d   1      16.663  11.782  -1.860  0.00  0.00     0.029 C 
ENDBRANCH  25  26
ENDBRANCH  20  25
ENDBRANCH   4  19
TORSDOF 8
ENDMDL
MODEL 2
REMARK VINA RESULT:      55.0      1.236      2.399
REMARK  8 active torsions:
REMARK  status: ('A' for Active; 'I' for Inactive)
REMARK    1  A    between atoms: S_10  and  C_2 
REMARK    2  A    between atoms: C_7  and  C_4 
REMARK    3  A    between atoms: C_17  and  S_10 
REMARK    4  A    between atoms: C_14  and  C_17 
REMARK    5  A    between atoms: O_18  and  C_14 
REMARK    6  A    between atoms: O_19  and  C_15 
REMARK    7  A    between atoms: C_22  and  O_18 
REMARK    8  A    between atoms: C_23  and  O_19 
ROOT
ATOM      1  C   UNL d   1      13.931  13.555  -2.439  0.00  0.00     0.093 A 
ATOM      2  C   UNL d   1      13.921  14.186  -2.982  0.00  0.00     0.124 A 
ATOM      3  N   UNL d   1      14.260  14.911  -2.777  0.00  0.00    -0.200 NA
ATOM      4  C   UNL d   1      14.280  13.657  -1.697  0.00  0.00     0.028 A 
ATOM      5  C   UNL d   1      14.617  14.378  -1.495  0.00  0.00     0.127 A 
ATOM      6  C   UNL d   1      14.607  15.010  -2.038  0.00  0.00     0.289 A 
ATOM      7  C   UNL d   1      13.596  12.836  -2.639  0.00  0.00     0.103 C 
ATOM      8  C   UNL d   1      14.965  14.479  -0.754  0.00  0.00     0.106 C 
ATOM      9  N   UNL d   1      13.263  12.124  -2.841  0.00  0.00    -0.191 NA
ATOM     10  N   UNL d   1      15.308  14.580  -0.026  0.00  0.00    -0.191 NA
ATOM     11  O   UNL d   1      14.988  15.776  -1.768  0.00  0.00    -0.264 OA
ENDROOT
BRANCH   2  12
ATOM     12  S   UNL d   1      13.542  14.023  -3.745  0.00  0.00    -0.061 SA
BRANCH  12  13
ATOM     13  C   UNL d   1      13.028  14.544  -4.217  0.00  0.00     0.105 C 
BRANCH  13  14
ATOM     14  C   UNL d   1      13.210  14.672  -5.058  0.00  0.00     0.307 C 
ATOM     15  O   UNL d   1      13.207  14.284  -5.416  0.00  0.00    -0.258 OA
BRANCH  14  16
ATOM     16  O   UNL d   1      13.402  15.512  -5.266  0.00  0.00    -0.271 OA
BRANCH  16  17
ATOM     17  C   UNL d   1      13.360  15.711  -6.146  0.00  0.00     0.126 C 
ATOM     18  C   UNL d   1      14.005  16.369  -6.317  0.00  0.00     0.029 C 
ENDBRANCH  16  17
ENDBRANCH  14  16
ENDBRANCH  13  14
ENDBRANCH  12  13
ENDBRANCH   2  12
BRANCH   4  19
ATOM     19  C   UNL d   1      14.289  13.034  -1.162  0.00  0.00     0.024 A 
ATOM     20  C   UNL d   1      14.855  12.442  -1.230  0.00  0.00     0.100 A 
ATOM     21  C   UNL d   1      14.865  11.816  -0.691  0.00  0.00     0.025 A 
ATOM     22  C   UNL d   1      14.309  11.783  -0.085  0.00  0.00     0.002 A 
ATOM     23  C   UNL d   1      13.740  12.379  -0.016  0.00  0.00     0.000 A 
ATOM     24  C   UNL d   1      13.730  13.005  -0.555  0.00  0.00     0.002 A 
BRANCH  20  25
ATOM     25  O   UNL d   1      15.357  12.397  -1.712  0.00  0.00    -0.305 OA
BRANCH  25  26
ATOM     26  C   UNL d   1      15.875  11.793  -1.591  0.00  0.00     0.123 C 
ATOM     27  C   UNL d   1      16.779  11.999  -1.661  0.00  0.00     0.029 C 
ENDBRANCH  25  26
ENDBRANCH  20  25
ENDBRANCH   4  19
TORSDOF 8
ENDMDL
