MODEL 1
REMARK VINA RESULT:      -3.8      0.000      0.000
REMARK  7 active torsions:
REMARK  status: ('A' for Active; 'I' for Inactive)
REMARK    1  A    between atoms: C_4  and  N_1 
REMARK    2  A    between atoms: O_2  and  C_10 
REMARK    3  A    between atoms: C_3  and  O_2 
REMARK    4  A    between atoms: C_9  and  C_4 
REMARK    5  A    between atoms: C_12  and  C_6 
REMARK    6  A    between atoms: C_7  and  C_12 
REMARK    7  A    between atoms: C_10  and  C_9 
ROOT
ATOM      1  O   UNL d   1     -42.020-122.196 -52.618  0.00  0.00    -0.302 OA
ENDROOT
BRANCH   1   2
ATOM      2  C   UNL d   1     -41.647-122.263 -51.884  0.00  0.00     0.166 C 
BRANCH   2   3
ATOM      3  C   UNL d   1     -42.029-122.029 -51.197  0.00  0.00     0.238 C 
ATOM      4  O   UNL d   1     -42.803-121.792 -51.214  0.00  0.00    -0.283 OA
BRANCH   3   5
ATOM      5  C   UNL d   1     -41.609-122.039 -50.487  0.00  0.00     0.125 C 
BRANCH   5   6
ATOM      6  N   UNL d   1     -41.772-122.594 -49.920  0.00  0.00    -0.296 N 
ATOM      7  C   UNL d   1     -41.188-123.120 -49.669  0.00  0.00     0.107 A 
ATOM      8  C   UNL d   1     -41.355-123.686 -49.091  0.00  0.00     0.142 A 
ATOM      9  O   UNL d   1     -42.105-123.724 -48.768  0.00  0.00    -0.300 OA
ATOM     10  C   UNL d   1     -42.681-123.212 -49.009  0.00  0.00     0.142 A 
ATOM     11  C   UNL d   1     -42.515-122.646 -49.587  0.00  0.00     0.107 A 
ENDBRANCH   5   6
ENDBRANCH   3   5
ENDBRANCH   2   3
ENDBRANCH   1   2
BRANCH   1  12
ATOM     12  C   UNL d   1     -41.757-122.652 -53.261  0.00  0.00     0.100 A 
ATOM     13  C   UNL d   1     -41.875-122.382 -54.039  0.00  0.00     0.023 A 
ATOM     14  C   UNL d   1     -41.617-122.829 -54.675  0.00  0.00     0.002 A 
ATOM     15  C   UNL d   1     -41.240-123.547 -54.540  0.00  0.00     0.000 A 
ATOM     16  C   UNL d   1     -41.123-123.817 -53.762  0.00  0.00     0.002 A 
ATOM     17  C   UNL d   1     -41.384-123.362 -53.139  0.00  0.00     0.025 A 
BRANCH  13  18
ATOM     18  C   UNL d   1     -42.257-121.652 -54.183  0.00  0.00     0.002 C 
BRANCH  18  19
ATOM     19  C   UNL d   1     -42.330-121.358 -54.958  0.00  0.00     0.000 C 
ATOM     20  C   UNL d   1     -43.015-121.481 -55.367  0.00  0.00     0.000 C 
ENDBRANCH  18  19
ENDBRANCH  13  18
ENDBRANCH   1  12
TORSDOF 7
ENDMDL
MODEL 2
REMARK VINA RESULT:      -2.0      1.277      1.921
REMARK  7 active torsions:
REMARK  status: ('A' for Active; 'I' for Inactive)
REMARK    1  A    between atoms: C_4  and  N_1 
REMARK    2  A    between atoms: O_2  and  C_10 
REMARK    3  A    between atoms: C_3  and  O_2 
REMARK    4  A    between atoms: C_9  and  C_4 
REMARK    5  A    between atoms: C_12  and  C_6 
REMARK    6  A    between atoms: C_7  and  C_12 
REMARK    7  A    between atoms: C_10  and  C_9 
ROOT
ATOM      1  O   UNL d   1     -41.788-122.761 -51.275  0.00  0.00    -0.302 OA
ENDROOT
BRANCH   1   2
ATOM      2  C   UNL d   1     -41.613-123.329 -50.702  0.00  0.00     0.166 C 
BRANCH   2   3
ATOM      3  C   UNL d   1     -41.979-123.312 -49.969  0.00  0.00     0.238 C 
ATOM      4  O   UNL d   1     -42.710-123.644 -49.863  0.00  0.00    -0.283 OA
BRANCH   3   5
ATOM      5  C   UNL d   1     -41.589-122.948 -49.339  0.00  0.00     0.125 C 
BRANCH   5   6
ATOM      6  N   UNL d   1     -41.823-123.086 -48.576  0.00  0.00    -0.296 N 
ATOM      7  C   UNL d   1     -42.569-122.844 -48.317  0.00  0.00     0.107 A 
ATOM      8  C   UNL d   1     -42.808-122.985 -47.538  0.00  0.00     0.142 A 
ATOM      9  O   UNL d   1     -42.300-123.365 -47.023  0.00  0.00    -0.300 OA
ATOM     10  C   UNL d   1     -41.569-123.605 -47.270  0.00  0.00     0.142 A 
ATOM     11  C   UNL d   1     -41.330-123.465 -48.048  0.00  0.00     0.107 A 
ENDBRANCH   5   6
ENDBRANCH   3   5
ENDBRANCH   2   3
ENDBRANCH   1   2
BRANCH   1  12
ATOM     12  C   UNL d   1     -41.566-122.886 -52.067  0.00  0.00     0.100 A 
ATOM     13  C   UNL d   1     -41.515-122.243 -52.592  0.00  0.00     0.023 A 
ATOM     14  C   UNL d   1     -41.297-122.363 -53.372  0.00  0.00     0.002 A 
ATOM     15  C   UNL d   1     -41.128-123.124 -53.633  0.00  0.00     0.000 A 
ATOM     16  C   UNL d   1     -41.179-123.767 -53.108  0.00  0.00     0.002 A 
ATOM     17  C   UNL d   1     -41.397-123.633 -52.335  0.00  0.00     0.025 A 
BRANCH  13  18
ATOM     18  C   UNL d   1     -41.686-121.466 -52.332  0.00  0.00     0.002 C 
BRANCH  18  19
ATOM     19  C   UNL d   1     -41.131-120.854 -52.433  0.00  0.00     0.000 C 
ATOM     20  C   UNL d   1     -41.252-120.145 -52.065  0.00  0.00     0.000 C 
ENDBRANCH  18  19
ENDBRANCH  13  18
ENDBRANCH   1  12
TORSDOF 7
ENDMDL
MODEL 3
REMARK VINA RESULT:      -1.0      1.234      4.616
REMARK  7 active torsions:
REMARK  status: ('A' for Active; 'I' for Inactive)
REMARK    1  A    between atoms: C_4  and  N_1 
REMARK    2  A    between atoms: O_2  and  C_10 
REMARK    3  A    between atoms: C_3  and  O_2 
REMARK    4  A    between atoms: C_9  and  C_4 
REMARK    5  A    between atoms: C_12  and  C_6 
REMARK    6  A    between atoms: C_7  and  C_12 
REMARK    7  A    between atoms: C_10  and  C_9 
ROOT
ATOM      1  O   UNL d   1     -41.890-122.873 -50.251  0.00  0.00    -0.302 OA
ENDROOT
BRANCH   1   2
ATOM      2  C   UNL d   1     -41.337-122.383 -50.620  0.00  0.00     0.166 C 
BRANCH   2   3
ATOM      3  C   UNL d   1     -41.434-122.154 -51.400  0.00  0.00     0.238 C 
ATOM      4  O   UNL d   1     -41.765-121.438 -51.584  0.00  0.00    -0.283 OA
BRANCH   3   5
ATOM      5  C   UNL d   1     -41.187-122.668 -51.997  0.00  0.00     0.125 C 
BRANCH   5   6
ATOM      6  N   UNL d   1     -41.396-122.533 -52.768  0.00  0.00    -0.296 N 
ATOM      7  C   UNL d   1     -41.431-121.763 -53.064  0.00  0.00     0.107 A 
ATOM      8  C   UNL d   1     -41.645-121.626 -53.850  0.00  0.00     0.142 A 
ATOM      9  O   UNL d   1     -41.822-122.258 -54.336  0.00  0.00    -0.300 OA
ATOM     10  C   UNL d   1     -41.790-123.014 -54.054  0.00  0.00     0.142 A 
ATOM     11  C   UNL d   1     -41.576-123.152 -53.268  0.00  0.00     0.107 A 
ENDBRANCH   5   6
ENDBRANCH   3   5
ENDBRANCH   2   3
ENDBRANCH   1   2
BRANCH   1  12
ATOM     12  C   UNL d   1     -41.900-122.940 -49.423  0.00  0.00     0.100 A 
ATOM     13  C   UNL d   1     -42.597-123.173 -49.032  0.00  0.00     0.023 A 
ATOM     14  C   UNL d   1     -42.610-123.240 -48.216  0.00  0.00     0.002 A 
ATOM     15  C   UNL d   1     -41.930-123.076 -47.784  0.00  0.00     0.000 A 
ATOM     16  C   UNL d   1     -41.233-122.844 -48.175  0.00  0.00     0.002 A 
ATOM     17  C   UNL d   1     -41.235-122.781 -48.987  0.00  0.00     0.025 A 
BRANCH  13  18
ATOM     18  C   UNL d   1     -43.292-123.341 -49.466  0.00  0.00     0.002 C 
BRANCH  18  19
ATOM     19  C   UNL d   1     -43.980-123.603 -49.078  0.00  0.00     0.000 C 
ATOM     20  C   UNL d   1     -44.703-123.445 -49.403  0.00  0.00     0.000 C 
ENDBRANCH  18  19
ENDBRANCH  13  18
ENDBRANCH   1  12
TORSDOF 7
ENDMDL
