MODEL 1
REMARK VINA RESULT:      53.6      0.000      0.000
REMARK  5 active torsions:
REMARK  status: ('A' for Active; 'I' for Inactive)
REMARK    1  A    between atoms: C_4  and  S_1 
REMARK    2  A    between atoms: N_5  and  S_1 
REMARK    3  A    between atoms: C_2  and  C_9 
REMARK       I    between atoms: N_3  and  C_2 
REMARK    4  A    between atoms: C_14  and  N_5 
REMARK    5  A    between atoms: C_15  and  C_14 
ROOT
ATOM      1  C   UNL d   1     -51.338  26.362  33.467  0.00  0.00     0.057 A 
ATOM      2  C   UNL d   1     -51.435  27.168  33.307  0.00  0.00     0.005 A 
ATOM      3  C   UNL d   1     -50.599  26.070  33.688  0.00  0.00     0.005 A 
ATOM      4  C   UNL d   1     -50.052  27.390  33.590  0.00  0.00     0.020 A 
ATOM      5  C   UNL d   1     -50.790  27.682  33.369  0.00  0.00     0.002 A 
ATOM      6  C   UNL d   1     -49.952  26.589  33.750  0.00  0.00     0.002 A 
ENDROOT
BRANCH   4   7
ATOM      7  C   UNL d   1     -49.401  27.901  33.653  0.00  0.00     0.112 C 
BRANCH   7   8
ATOM      8  N   UNL d   1     -48.835  27.763  34.240  0.00  0.00    -0.157 NA
BRANCH   8   9
ATOM      9  S   UNL d   1     -48.496  28.410  34.648  0.00  0.00     0.285 S 
ATOM     10  O   UNL d   1     -48.932  28.935  34.174  0.00  0.00    -0.198 OA
ATOM     11  O   UNL d   1     -48.062  27.880  35.119  0.00  0.00    -0.198 OA
BRANCH   9  12
ATOM     12  C   UNL d   1     -48.159  29.053  35.053  0.00  0.00     0.106 A 
ATOM     13  C   UNL d   1     -48.150  29.799  34.698  0.00  0.00     0.024 A 
ATOM     14  C   UNL d   1     -47.817  30.442  35.095  0.00  0.00     0.059 A 
ATOM     15 CL   UNL d   1     -47.805  31.191  34.744  0.00  0.00    -0.082 Cl
ATOM     16  C   UNL d   1     -47.494  30.335  35.845  0.00  0.00     0.011 A 
ATOM     17  C   UNL d   1     -47.503  29.590  36.197  0.00  0.00     0.002 A 
ATOM     18  C   UNL d   1     -47.836  28.952  35.798  0.00  0.00     0.013 A 
ENDBRANCH   9  12
ENDBRANCH   8   9
ENDBRANCH   7   8
ENDBRANCH   4   7
BRANCH   1  19
ATOM     19  C   UNL d   1     -51.991  25.836  33.406  0.00  0.00     0.265 C 
ATOM     20  N   UNL d   1     -51.858  25.017  33.386  0.00  0.00    -0.272 N 
ATOM     21  C   UNL d   1     -51.092  24.720  33.428  0.00  0.00     0.083 A 
ATOM     22  C   UNL d   1     -52.500  24.499  33.326  0.00  0.00     0.083 A 
ATOM     23  C   UNL d   1     -50.967  23.912  33.408  0.00  0.00     0.019 A 
ATOM     24  C   UNL d   1     -51.604  23.400  33.348  0.00  0.00     0.003 A 
ATOM     25  C   UNL d   1     -52.371  23.683  33.307  0.00  0.00     0.019 A 
ATOM     26  O   UNL d   1     -52.768  26.139  33.364  0.00  0.00    -0.267 OA
ENDBRANCH   1  19
TORSDOF 5
ENDMDL
MODEL 2
REMARK VINA RESULT:      55.2      1.140      1.619
REMARK  5 active torsions:
REMARK  status: ('A' for Active; 'I' for Inactive)
REMARK    1  A    between atoms: C_4  and  S_1 
REMARK    2  A    between atoms: N_5  and  S_1 
REMARK    3  A    between atoms: C_2  and  C_9 
REMARK       I    between atoms: N_3  and  C_2 
REMARK    4  A    between atoms: C_14  and  N_5 
REMARK    5  A    between atoms: C_15  and  C_14 
ROOT
ATOM      1  C   UNL d   1     -51.130  24.733  33.391  0.00  0.00     0.057 A 
ATOM      2  C   UNL d   1     -51.568  25.428  33.499  0.00  0.00     0.005 A 
ATOM      3  C   UNL d   1     -50.311  24.770  33.306  0.00  0.00     0.005 A 
ATOM      4  C   UNL d   1     -50.364  26.195  33.434  0.00  0.00     0.020 A 
ATOM      5  C   UNL d   1     -51.183  26.159  33.520  0.00  0.00     0.002 A 
ATOM      6  C   UNL d   1     -49.926  25.507  33.327  0.00  0.00     0.002 A 
ENDROOT
BRANCH   4   7
ATOM      7  C   UNL d   1     -49.973  26.927  33.455  0.00  0.00     0.112 C 
BRANCH   7   8
ATOM      8  N   UNL d   1     -50.131  27.451  34.074  0.00  0.00    -0.157 NA
BRANCH   8   9
ATOM      9  S   UNL d   1     -49.501  27.866  34.436  0.00  0.00     0.285 S 
ATOM     10  O   UNL d   1     -49.024  27.717  33.772  0.00  0.00    -0.198 OA
ATOM     11  O   UNL d   1     -49.982  28.012  35.098  0.00  0.00    -0.198 OA
BRANCH   9  12
ATOM     12  C   UNL d   1     -48.875  28.278  34.796  0.00  0.00     0.106 A 
ATOM     13  C   UNL d   1     -48.576  28.960  34.437  0.00  0.00     0.024 A 
ATOM     14  C   UNL d   1     -47.954  29.374  34.789  0.00  0.00     0.059 A 
ATOM     15 CL   UNL d   1     -47.650  30.057  34.434  0.00  0.00    -0.082 Cl
ATOM     16  C   UNL d   1     -47.634  29.103  35.498  0.00  0.00     0.011 A 
ATOM     17  C   UNL d   1     -47.933  28.423  35.854  0.00  0.00     0.002 A 
ATOM     18  C   UNL d   1     -48.553  28.014  35.500  0.00  0.00     0.013 A 
ENDBRANCH   9  12
ENDBRANCH   8   9
ENDBRANCH   7   8
ENDBRANCH   4   7
BRANCH   1  19
ATOM     19  C   UNL d   1     -51.517  23.988  33.369  0.00  0.00     0.265 C 
ATOM     20  N   UNL d   1     -52.346  23.956  33.348  0.00  0.00    -0.272 N 
ATOM     21  C   UNL d   1     -52.788  24.650  33.350  0.00  0.00     0.083 A 
ATOM     22  C   UNL d   1     -52.728  23.222  33.326  0.00  0.00     0.083 A 
ATOM     23  C   UNL d   1     -53.605  24.613  33.329  0.00  0.00     0.019 A 
ATOM     24  C   UNL d   1     -53.981  23.886  33.307  0.00  0.00     0.003 A 
ATOM     25  C   UNL d   1     -53.554  23.188  33.306  0.00  0.00     0.019 A 
ATOM     26  O   UNL d   1     -51.067  23.283  33.368  0.00  0.00    -0.267 OA
ENDBRANCH   1  19
TORSDOF 5
ENDMDL
