MODEL 1
REMARK VINA RESULT:      22.0      0.000      0.000
REMARK  3 active torsions:
REMARK  status: ('A' for Active; 'I' for Inactive)
REMARK    1  A    between atoms: C_7  and  N_1 
REMARK    2  A    between atoms: C_5  and  C_2 
REMARK    3  A    between atoms: C_11  and  C_7 
ROOT
ATOM      1  N   UNL d   1      45.132 -14.889  44.590  0.00  0.00    -0.262 N 
ATOM      2  C   UNL d   1      44.910 -14.106  44.442  0.00  0.00     0.173 A 
ATOM      3  N   UNL d   1      44.092 -14.080  44.532  0.00  0.00    -0.128 NA
ATOM      4  C   UNL d   1      44.478 -15.330  44.764  0.00  0.00     0.227 A 
ATOM      5  N   UNL d   1      43.821 -14.832  44.730  0.00  0.00    -0.117 NA
ATOM      6  S   UNL d   1      44.375 -16.136  44.955  0.00  0.00    -0.036 SA
ENDROOT
BRANCH   2   7
ATOM      7  C   UNL d   1      45.395 -13.472  44.245  0.00  0.00     0.064 A 
ATOM      8  C   UNL d   1      46.098 -13.068  44.367  0.00  0.00     0.143 A 
ATOM      9  F   UNL d   1      46.517 -13.479  44.955  0.00  0.00    -0.204 F 
ATOM     10  C   UNL d   1      46.258 -12.381  43.924  0.00  0.00     0.030 A 
ATOM     11  C   UNL d   1      45.715 -12.106  43.366  0.00  0.00     0.002 A 
ATOM     12  C   UNL d   1      45.016 -12.516  43.252  0.00  0.00     0.000 A 
ATOM     13  C   UNL d   1      44.850 -13.205  43.692  0.00  0.00     0.005 A 
ENDBRANCH   2   7
BRANCH   1  14
ATOM     14  C   UNL d   1      45.902 -15.196  44.569  0.00  0.00     0.108 C 
BRANCH  14  15
ATOM     15  C   UNL d   1      46.024 -15.956  44.277  0.00  0.00     0.118 A 
ATOM     16  O   UNL d   1      46.136 -16.162  43.486  0.00  0.00    -0.304 OA
ATOM     17  C   UNL d   1      46.237 -16.978  43.436  0.00  0.00     0.123 A 
ATOM     18  C   UNL d   1      46.186 -17.275  44.207  0.00  0.00     0.029 A 
ATOM     19  C   UNL d   1      46.055 -16.648  44.726  0.00  0.00     0.028 A 
ENDBRANCH  14  15
ENDBRANCH   1  14
TORSDOF 3
ENDMDL
MODEL 2
REMARK VINA RESULT:      24.0      2.683      3.602
REMARK  3 active torsions:
REMARK  status: ('A' for Active; 'I' for Inactive)
REMARK    1  A    between atoms: C_7  and  N_1 
REMARK    2  A    between atoms: C_5  and  C_2 
REMARK    3  A    between atoms: C_11  and  C_7 
ROOT
ATOM      1  N   UNL d   1      46.275 -17.994  43.247  0.00  0.00    -0.262 N 
ATOM      2  C   UNL d   1      45.866 -17.275  43.233  0.00  0.00     0.173 A 
ATOM      3  N   UNL d   1      45.601 -17.178  42.459  0.00  0.00    -0.128 NA
ATOM      4  C   UNL d   1      46.263 -18.329  42.512  0.00  0.00     0.227 A 
ATOM      5  N   UNL d   1      45.843 -17.825  42.012  0.00  0.00    -0.117 NA
ATOM      6  S   UNL d   1      46.581 -19.040  42.211  0.00  0.00    -0.036 SA
ENDROOT
BRANCH   2   7
ATOM      7  C   UNL d   1      45.742 -16.752  43.855  0.00  0.00     0.064 A 
ATOM      8  C   UNL d   1      45.518 -16.638  44.636  0.00  0.00     0.143 A 
ATOM      9  F   UNL d   1      45.330 -17.385  44.947  0.00  0.00    -0.204 F 
ATOM     10  C   UNL d   1      45.517 -15.868  44.955  0.00  0.00     0.030 A 
ATOM     11  C   UNL d   1      45.739 -15.223  44.490  0.00  0.00     0.002 A 
ATOM     12  C   UNL d   1      45.961 -15.347  43.712  0.00  0.00     0.000 A 
ATOM     13  C   UNL d   1      45.964 -16.114  43.388  0.00  0.00     0.005 A 
ENDBRANCH   2   7
BRANCH   1  14
ATOM     14  C   UNL d   1      46.647 -18.337  43.904  0.00  0.00     0.108 C 
BRANCH  14  15
ATOM     15  C   UNL d   1      46.430 -19.097  44.137  0.00  0.00     0.118 A 
ATOM     16  O   UNL d   1      45.979 -19.630  43.698  0.00  0.00    -0.304 OA
ATOM     17  C   UNL d   1      45.892 -20.325  44.133  0.00  0.00     0.123 A 
ATOM     18  C   UNL d   1      46.296 -20.213  44.848  0.00  0.00     0.029 A 
ATOM     19  C   UNL d   1      46.628 -19.459  44.852  0.00  0.00     0.028 A 
ENDBRANCH  14  15
ENDBRANCH   1  14
TORSDOF 3
ENDMDL
MODEL 3
REMARK VINA RESULT:      24.9      7.376      7.881
REMARK  3 active torsions:
REMARK  status: ('A' for Active; 'I' for Inactive)
REMARK    1  A    between atoms: C_7  and  N_1 
REMARK    2  A    between atoms: C_5  and  C_2 
REMARK    3  A    between atoms: C_11  and  C_7 
ROOT
ATOM      1  N   UNL d   1      44.156 -15.665  36.791  0.00  0.00    -0.262 N 
ATOM      2  C   UNL d   1      44.977 -15.577  36.830  0.00  0.00     0.173 A 
ATOM      3  N   UNL d   1      45.296 -16.279  36.541  0.00  0.00    -0.128 NA
ATOM      4  C   UNL d   1      43.974 -16.393  36.490  0.00  0.00     0.227 A 
ATOM      5  N   UNL d   1      44.682 -16.784  36.330  0.00  0.00    -0.117 NA
ATOM      6  S   UNL d   1      43.247 -16.771  36.331  0.00  0.00    -0.036 SA
ENDROOT
BRANCH   2   7
ATOM      7  C   UNL d   1      45.403 -14.928  37.100  0.00  0.00     0.064 A 
ATOM      8  C   UNL d   1      45.498 -14.342  37.667  0.00  0.00     0.143 A 
ATOM      9  F   UNL d   1      44.892 -14.444  38.226  0.00  0.00    -0.204 F 
ATOM     10  C   UNL d   1      46.124 -13.798  37.593  0.00  0.00     0.030 A 
ATOM     11  C   UNL d   1      46.647 -13.844  36.956  0.00  0.00     0.002 A 
ATOM     12  C   UNL d   1      46.544 -14.432  36.396  0.00  0.00     0.000 A 
ATOM     13  C   UNL d   1      45.920 -14.980  36.464  0.00  0.00     0.005 A 
ENDBRANCH   2   7
BRANCH   1  14
ATOM     14  C   UNL d   1      43.588 -15.106  37.021  0.00  0.00     0.108 C 
BRANCH  14  15
ATOM     15  C   UNL d   1      42.792 -15.262  36.881  0.00  0.00     0.118 A 
ATOM     16  O   UNL d   1      42.332 -15.829  37.265  0.00  0.00    -0.304 OA
ATOM     17  C   UNL d   1      41.567 -15.802  36.959  0.00  0.00     0.123 A 
ATOM     18  C   UNL d   1      41.560 -15.210  36.380  0.00  0.00     0.029 A 
ATOM     19  C   UNL d   1      42.312 -14.877  36.331  0.00  0.00     0.028 A 
ENDBRANCH  14  15
ENDBRANCH   1  14
TORSDOF 3
ENDMDL
MODEL 4
REMARK VINA RESULT:      25.0      7.511      8.038
REMARK  3 active torsions:
REMARK  status: ('A' for Active; 'I' for Inactive)
REMARK    1  A    between atoms: C_7  and  N_1 
REMARK    2  A    between atoms: C_5  and  C_2 
REMARK    3  A    between atoms: C_11  and  C_7 
ROOT
ATOM      1  N   UNL d   1      44.332 -15.568  36.765  0.00  0.00    -0.262 N 
ATOM      2  C   UNL d   1      43.560 -15.855  36.690  0.00  0.00     0.173 A 
ATOM      3  N   UNL d   1      43.629 -16.629  36.419  0.00  0.00    -0.128 NA
ATOM      4  C   UNL d   1      44.858 -16.143  36.549  0.00  0.00     0.227 A 
ATOM      5  N   UNL d   1      44.427 -16.811  36.331  0.00  0.00    -0.117 NA
ATOM      6  S   UNL d   1      45.692 -16.160  36.517  0.00  0.00    -0.036 SA
ENDROOT
BRANCH   2   7
ATOM      7  C   UNL d   1      42.857 -15.459  36.849  0.00  0.00     0.064 A 
ATOM      8  C   UNL d   1      42.478 -14.829  37.212  0.00  0.00     0.143 A 
ATOM      9  F   UNL d   1      43.063 -14.382  37.597  0.00  0.00    -0.204 F 
ATOM     10  C   UNL d   1      41.652 -14.751  37.142  0.00  0.00     0.030 A 
ATOM     11  C   UNL d   1      41.215 -15.302  36.710  0.00  0.00     0.002 A 
ATOM     12  C   UNL d   1      41.602 -15.928  36.351  0.00  0.00     0.000 A 
ATOM     13  C   UNL d   1      42.428 -16.011  36.418  0.00  0.00     0.005 A 
ENDBRANCH   2   7
BRANCH   1  14
ATOM     14  C   UNL d   1      44.555 -14.812  37.020  0.00  0.00     0.108 C 
BRANCH  14  15
ATOM     15  C   UNL d   1      45.355 -14.616  37.047  0.00  0.00     0.118 A 
ATOM     16  O   UNL d   1      45.817 -14.367  36.410  0.00  0.00    -0.304 OA
ATOM     17  C   UNL d   1      46.584 -14.230  36.677  0.00  0.00     0.123 A 
ATOM     18  C   UNL d   1      46.591 -14.397  37.488  0.00  0.00     0.029 A 
ATOM     19  C   UNL d   1      45.836 -14.635  37.717  0.00  0.00     0.028 A 
ENDBRANCH  14  15
ENDBRANCH   1  14
TORSDOF 3
ENDMDL
