MODEL 1
REMARK VINA RESULT:      54.9      0.000      0.000
REMARK  8 active torsions:
REMARK  status: ('A' for Active; 'I' for Inactive)
REMARK    1  A    between atoms: S_10  and  C_3 
REMARK    2  A    between atoms: C_12  and  C_7 
REMARK    3  A    between atoms: C_15  and  S_10 
REMARK    4  A    between atoms: C_11  and  C_15 
REMARK       I    between atoms: N_16  and  C_11 
REMARK    5  A    between atoms: C_23  and  N_16 
REMARK    6  A    between atoms: O_24  and  C_17 
REMARK    7  A    between atoms: C_18  and  C_29 
REMARK    8  A    between atoms: C_29  and  C_23 
ROOT
ATOM      1  N   UNL d   1     -47.768  30.306  35.371  0.00  0.00    -0.186 N 
ATOM      2  N   UNL d   1     -47.908  30.910  34.840  0.00  0.00    -0.162 NA
ATOM      3  C   UNL d   1     -48.026  29.520  35.393  0.00  0.00     0.217 A 
ATOM      4  C   UNL d   1     -47.290  30.427  36.032  0.00  0.00     0.187 A 
ATOM      5  N   UNL d   1     -47.706  29.172  36.061  0.00  0.00    -0.120 NA
ATOM      6  N   UNL d   1     -47.250  29.734  36.458  0.00  0.00    -0.127 NA
ATOM      7  C   UNL d   1     -47.566  31.653  34.968  0.00  0.00     0.102 A 
ATOM      8  C   UNL d   1     -46.948  31.173  36.158  0.00  0.00     0.042 A 
ATOM      9  C   UNL d   1     -47.086  31.780  35.629  0.00  0.00     0.024 A 
ENDROOT
BRANCH   3  10
ATOM     10  S   UNL d   1     -48.516  29.137  34.851  0.00  0.00    -0.041 SA
BRANCH  10  11
ATOM     11  C   UNL d   1     -48.815  28.397  35.015  0.00  0.00     0.101 C 
BRANCH  11  12
ATOM     12  C   UNL d   1     -48.411  27.729  34.775  0.00  0.00     0.286 C 
ATOM     13  O   UNL d   1     -47.636  27.587  35.022  0.00  0.00    -0.265 OA
ATOM     14  N   UNL d   1     -48.775  27.182  34.276  0.00  0.00    -0.206 NA
BRANCH  14  15
ATOM     15  C   UNL d   1     -49.550  27.317  34.023  0.00  0.00     0.102 C 
BRANCH  15  16
ATOM     16  C   UNL d   1     -49.814  26.984  33.313  0.00  0.00     0.021 C 
BRANCH  16  17
ATOM     17  C   UNL d   1     -50.431  26.429  33.321  0.00  0.00     0.002 A 
ATOM     18  C   UNL d   1     -50.263  25.617  33.307  0.00  0.00     0.002 A 
ATOM     19  C   UNL d   1     -50.881  25.061  33.314  0.00  0.00     0.024 A 
ATOM     20  C   UNL d   1     -51.657  25.320  33.337  0.00  0.00     0.094 A 
ATOM     21  C   UNL d   1     -51.832  26.126  33.351  0.00  0.00     0.024 A 
ATOM     22  C   UNL d   1     -51.220  26.680  33.343  0.00  0.00     0.002 A 
BRANCH  20  23
ATOM     23  O   UNL d   1     -52.291  24.780  33.345  0.00  0.00    -0.328 OA
ATOM     24  C   UNL d   1     -52.151  23.985  33.483  0.00  0.00     0.181 C 
ENDBRANCH  20  23
ENDBRANCH  16  17
ENDBRANCH  15  16
ENDBRANCH  14  15
ENDBRANCH  11  12
ENDBRANCH  10  11
ENDBRANCH   3  10
BRANCH   7  25
ATOM     25  C   UNL d   1     -47.704  32.267  34.435  0.00  0.00     0.022 A 
ATOM     26  C   UNL d   1     -47.170  32.412  33.838  0.00  0.00     0.022 A 
ATOM     27  C   UNL d   1     -47.300  33.016  33.307  0.00  0.00     0.099 A 
ATOM     28  N   UNL d   1     -47.976  33.486  33.372  0.00  0.00    -0.242 NA
ATOM     29  C   UNL d   1     -48.510  33.337  33.972  0.00  0.00     0.099 A 
ATOM     30  C   UNL d   1     -48.372  32.723  34.507  0.00  0.00     0.022 A 
ENDBRANCH   7  25
TORSDOF 8
ENDMDL
