MODEL 1
REMARK VINA RESULT:       3.7      0.000      0.000
REMARK  5 active torsions:
REMARK  status: ('A' for Active; 'I' for Inactive)
REMARK    1  A    between atoms: C_7  and  C_1 
REMARK    2  A    between atoms: C_6  and  O_13 
REMARK    3  A    between atoms: C_12  and  C_6 
REMARK    4  A    between atoms: O_13  and  C_10 
REMARK    5  A    between atoms: C_28  and  C_14 
ROOT
ATOM      1  C   UNL d   1      32.904  22.997 -18.758  0.00  0.00     0.064 A 
ATOM      2  C   UNL d   1      33.032  22.268 -19.976  0.00  0.00     0.062 A 
ATOM      3  C   UNL d   1      32.983  22.279 -19.154  0.00  0.00     0.199 A 
ATOM      4  C   UNL d   1      32.874  23.702 -19.183  0.00  0.00     0.126 A 
ATOM      5  C   UNL d   1      33.001  22.974 -20.401  0.00  0.00     0.105 A 
ATOM      6  O   UNL d   1      32.922  23.691 -20.005  0.00  0.00    -0.305 OA
ATOM      7  C   UNL d   1      33.111  21.551 -20.372  0.00  0.00     0.007 A 
ATOM      8  C   UNL d   1      33.129  22.243 -21.623  0.00  0.00     0.105 A 
ATOM      9  C   UNL d   1      33.050  22.963 -21.223  0.00  0.00     0.050 A 
ATOM     10  C   UNL d   1      33.160  21.538 -21.198  0.00  0.00     0.023 A 
ATOM     11  O   UNL d   1      33.014  21.573 -18.729  0.00  0.00    -0.286 OA
ENDROOT
BRANCH   1  12
ATOM     12  C   UNL d   1      32.856  23.007 -17.936  0.00  0.00     0.007 A 
ATOM     13  C   UNL d   1      33.072  22.334 -17.493  0.00  0.00     0.027 A 
ATOM     14  C   UNL d   1      33.026  22.341 -16.679  0.00  0.00     0.123 A 
ATOM     15  O   UNL d   1      33.240  21.673 -16.247  0.00  0.00    -0.301 OA
ATOM     16  C   UNL d   1      32.759  23.027 -16.280  0.00  0.00     0.123 A 
ATOM     17  C   UNL d   1      33.192  21.682 -15.421  0.00  0.00     0.149 A 
ATOM     18  C   UNL d   1      32.930  22.357 -15.025  0.00  0.00     0.149 A 
ATOM     19  O   UNL d   1      32.712  23.034 -15.459  0.00  0.00    -0.301 OA
ATOM     20  C   UNL d   1      32.543  23.700 -16.723  0.00  0.00     0.027 A 
ATOM     21  C   UNL d   1      32.592  23.689 -17.544  0.00  0.00     0.002 A 
ENDBRANCH   1  12
BRANCH  10  22
ATOM     22  C   UNL d   1      33.239  20.816 -21.601  0.00  0.00     0.002 C 
ATOM     23  C   UNL d   1      32.852  20.144 -21.325  0.00  0.00     0.000 C 
ENDBRANCH  10  22
BRANCH   8  24
ATOM     24  O   UNL d   1      33.178  22.228 -22.452  0.00  0.00    -0.271 OA
BRANCH  24  25
ATOM     25  C   UNL d   1      32.926  22.878 -22.893  0.00  0.00     0.323 C 
ATOM     26  O   UNL d   1      32.808  23.606 -22.534  0.00  0.00    -0.257 OA
BRANCH  25  27
ATOM     27  C   UNL d   1      32.790  22.796 -23.706  0.00  0.00     0.163 A 
ATOM     28  O   UNL d   1      32.955  22.132 -24.163  0.00  0.00    -0.300 OA
ATOM     29  C   UNL d   1      32.734  22.285 -24.943  0.00  0.00     0.123 A 
ATOM     30  C   UNL d   1      32.427  23.056 -24.966  0.00  0.00     0.029 A 
ATOM     31  C   UNL d   1      32.464  23.369 -24.197  0.00  0.00     0.032 A 
ENDBRANCH  25  27
ENDBRANCH  24  25
ENDBRANCH   8  24
TORSDOF 5
ENDMDL
MODEL 2
REMARK VINA RESULT:       4.0      2.381      6.105
REMARK  5 active torsions:
REMARK  status: ('A' for Active; 'I' for Inactive)
REMARK    1  A    between atoms: C_7  and  C_1 
REMARK    2  A    between atoms: C_6  and  O_13 
REMARK    3  A    between atoms: C_12  and  C_6 
REMARK    4  A    between atoms: O_13  and  C_10 
REMARK    5  A    between atoms: C_28  and  C_14 
ROOT
ATOM      1  C   UNL d   1      32.616  20.095 -22.884  0.00  0.00     0.064 A 
ATOM      2  C   UNL d   1      32.842  20.656 -21.594  0.00  0.00     0.062 A 
ATOM      3  C   UNL d   1      32.780  19.996 -22.084  0.00  0.00     0.199 A 
ATOM      4  C   UNL d   1      32.515  20.851 -23.196  0.00  0.00     0.126 A 
ATOM      5  C   UNL d   1      32.740  21.413 -21.905  0.00  0.00     0.105 A 
ATOM      6  O   UNL d   1      32.576  21.511 -22.707  0.00  0.00    -0.305 OA
ATOM      7  C   UNL d   1      33.006  20.558 -20.793  0.00  0.00     0.007 A 
ATOM      8  C   UNL d   1      32.966  21.976 -20.612  0.00  0.00     0.105 A 
ATOM      9  C   UNL d   1      32.802  22.072 -21.417  0.00  0.00     0.050 A 
ATOM     10  C   UNL d   1      33.068  21.219 -20.300  0.00  0.00     0.023 A 
ATOM     11  O   UNL d   1      32.882  19.239 -21.772  0.00  0.00    -0.286 OA
ENDROOT
BRANCH   1  12
ATOM     12  C   UNL d   1      32.555  19.435 -23.374  0.00  0.00     0.007 A 
ATOM     13  C   UNL d   1      31.805  19.117 -23.558  0.00  0.00     0.027 A 
ATOM     14  C   UNL d   1      31.740  18.464 -24.043  0.00  0.00     0.123 A 
ATOM     15  O   UNL d   1      30.998  18.155 -24.221  0.00  0.00    -0.301 OA
ATOM     16  C   UNL d   1      32.427  18.106 -24.359  0.00  0.00     0.123 A 
ATOM     17  C   UNL d   1      30.934  17.493 -24.712  0.00  0.00     0.149 A 
ATOM     18  C   UNL d   1      31.609  17.137 -25.026  0.00  0.00     0.149 A 
ATOM     19  O   UNL d   1      32.362  17.448 -24.847  0.00  0.00    -0.301 OA
ATOM     20  C   UNL d   1      33.176  18.424 -24.175  0.00  0.00     0.027 A 
ATOM     21  C   UNL d   1      33.238  19.083 -23.686  0.00  0.00     0.002 A 
ENDBRANCH   1  12
BRANCH  10  22
ATOM     22  C   UNL d   1      33.233  21.125 -19.492  0.00  0.00     0.002 C 
ATOM     23  C   UNL d   1      33.213  20.375 -19.152  0.00  0.00     0.000 C 
ENDBRANCH  10  22
BRANCH   8  24
ATOM     24  O   UNL d   1      33.029  22.639 -20.115  0.00  0.00    -0.271 OA
BRANCH  24  25
ATOM     25  C   UNL d   1      32.358  23.078 -19.924  0.00  0.00     0.323 C 
ATOM     26  O   UNL d   1      31.839  23.324 -20.510  0.00  0.00    -0.257 OA
BRANCH  25  27
ATOM     27  C   UNL d   1      32.204  23.272 -19.133  0.00  0.00     0.163 A 
ATOM     28  O   UNL d   1      31.471  23.255 -18.761  0.00  0.00    -0.300 OA
ATOM     29  C   UNL d   1      31.567  23.489 -17.976  0.00  0.00     0.123 A 
ATOM     30  C   UNL d   1      32.373  23.654 -17.864  0.00  0.00     0.029 A 
ATOM     31  C   UNL d   1      32.764  23.518 -18.584  0.00  0.00     0.032 A 
ENDBRANCH  25  27
ENDBRANCH  24  25
ENDBRANCH   8  24
TORSDOF 5
ENDMDL
MODEL 3
REMARK VINA RESULT:       5.1      2.559      6.119
REMARK  5 active torsions:
REMARK  status: ('A' for Active; 'I' for Inactive)
REMARK    1  A    between atoms: C_7  and  C_1 
REMARK    2  A    between atoms: C_6  and  O_13 
REMARK    3  A    between atoms: C_12  and  C_6 
REMARK    4  A    between atoms: O_13  and  C_10 
REMARK    5  A    between atoms: C_28  and  C_14 
ROOT
ATOM      1  C   UNL d   1      32.447  19.139 -22.324  0.00  0.00     0.064 A 
ATOM      2  C   UNL d   1      32.624  20.551 -22.402  0.00  0.00     0.062 A 
ATOM      3  C   UNL d   1      32.523  19.823 -22.775  0.00  0.00     0.199 A 
ATOM      4  C   UNL d   1      32.471  19.181 -21.502  0.00  0.00     0.126 A 
ATOM      5  C   UNL d   1      32.648  20.593 -21.579  0.00  0.00     0.105 A 
ATOM      6  O   UNL d   1      32.571  19.908 -21.128  0.00  0.00    -0.305 OA
ATOM      7  C   UNL d   1      32.700  21.235 -22.853  0.00  0.00     0.007 A 
ATOM      8  C   UNL d   1      32.826  22.009 -21.657  0.00  0.00     0.105 A 
ATOM      9  C   UNL d   1      32.749  21.320 -21.206  0.00  0.00     0.050 A 
ATOM     10  C   UNL d   1      32.802  21.967 -22.480  0.00  0.00     0.023 A 
ATOM     11  O   UNL d   1      32.499  19.781 -23.599  0.00  0.00    -0.286 OA
ENDROOT
BRANCH   1  12
ATOM     12  C   UNL d   1      32.346  18.412 -22.698  0.00  0.00     0.007 A 
ATOM     13  C   UNL d   1      32.527  18.326 -23.508  0.00  0.00     0.027 A 
ATOM     14  C   UNL d   1      32.429  17.608 -23.881  0.00  0.00     0.123 A 
ATOM     15  O   UNL d   1      32.609  17.530 -24.680  0.00  0.00    -0.301 OA
ATOM     16  C   UNL d   1      32.144  16.948 -23.452  0.00  0.00     0.123 A 
ATOM     17  C   UNL d   1      32.508  16.800 -25.057  0.00  0.00     0.149 A 
ATOM     18  C   UNL d   1      32.228  16.147 -24.638  0.00  0.00     0.149 A 
ATOM     19  O   UNL d   1      32.044  16.224 -23.828  0.00  0.00    -0.301 OA
ATOM     20  C   UNL d   1      31.963  17.033 -22.642  0.00  0.00     0.027 A 
ATOM     21  C   UNL d   1      32.063  17.760 -22.269  0.00  0.00     0.002 A 
ENDBRANCH   1  12
BRANCH  10  22
ATOM     22  C   UNL d   1      32.879  22.660 -22.931  0.00  0.00     0.002 C 
ATOM     23  C   UNL d   1      33.070  22.612 -23.730  0.00  0.00     0.000 C 
ENDBRANCH  10  22
BRANCH   8  24
ATOM     24  O   UNL d   1      32.928  22.744 -21.284  0.00  0.00    -0.271 OA
BRANCH  24  25
ATOM     25  C   UNL d   1      32.337  23.043 -20.791  0.00  0.00     0.323 C 
ATOM     26  O   UNL d   1      31.589  23.203 -21.086  0.00  0.00    -0.257 OA
BRANCH  25  27
ATOM     27  C   UNL d   1      32.501  23.183 -19.991  0.00  0.00     0.163 A 
ATOM     28  O   UNL d   1      33.195  23.499 -19.685  0.00  0.00    -0.300 OA
ATOM     29  C   UNL d   1      33.126  23.544 -18.864  0.00  0.00     0.123 A 
ATOM     30  C   UNL d   1      32.376  23.251 -18.662  0.00  0.00     0.029 A 
ATOM     31  C   UNL d   1      31.992  23.029 -19.365  0.00  0.00     0.032 A 
ENDBRANCH  25  27
ENDBRANCH  24  25
ENDBRANCH   8  24
TORSDOF 5
ENDMDL
