MODEL 1
REMARK VINA RESULT:      17.0      0.000      0.000
REMARK  0 active torsions:
REMARK  status: ('A' for Active; 'I' for Inactive)
REMARK       I    between atoms: C_3  and  N_1 
REMARK       I    between atoms: N_6  and  C_3 
ROOT
ATOM      1  N   UNL d   1      58.875  49.700  50.501  0.00  0.00    -0.160 N 
ATOM      2  N   UNL d   1      59.086  49.697  49.717  0.00  0.00    -0.056 NA
ATOM      3  C   UNL d   1      58.071  49.703  50.774  0.00  0.00     0.357 C 
ATOM      4  N   UNL d   1      59.910  49.695  49.684  0.00  0.00    -0.128 NA
ATOM      5  C   UNL d   1      59.550  49.701  50.956  0.00  0.00     0.108 A 
ATOM      6  N   UNL d   1      57.446  49.702  50.241  0.00  0.00    -0.252 N 
ATOM      7  C   UNL d   1      60.194  49.697  50.449  0.00  0.00     0.122 A 
ATOM      8  O   UNL d   1      57.939  49.707  51.599  0.00  0.00    -0.244 OA
ATOM      9  O   UNL d   1      56.194  49.701  49.173  0.00  0.00    -0.300 OA
ATOM     10  C   UNL d   1      59.664  49.704  51.762  0.00  0.00     0.021 A 
ATOM     11  C   UNL d   1      57.604  49.699  49.418  0.00  0.00     0.111 A 
ATOM     12  C   UNL d   1      56.679  49.705  50.509  0.00  0.00     0.111 A 
ATOM     13  C   UNL d   1      60.968  49.697  50.750  0.00  0.00     0.022 A 
ATOM     14  C   UNL d   1      56.973  49.698  48.880  0.00  0.00     0.142 A 
ATOM     15  C   UNL d   1      56.051  49.704  49.973  0.00  0.00     0.142 A 
ATOM     16  C   UNL d   1      60.430  49.703  52.072  0.00  0.00     0.002 A 
ATOM     17  C   UNL d   1      61.081  49.700  51.576  0.00  0.00     0.002 A 
ENDROOT
TORSDOF 0
ENDMDL
MODEL 2
REMARK VINA RESULT:      17.3      1.142      3.673
REMARK  0 active torsions:
REMARK  status: ('A' for Active; 'I' for Inactive)
REMARK       I    between atoms: C_3  and  N_1 
REMARK       I    between atoms: N_6  and  C_3 
ROOT
ATOM      1  N   UNL d   1      58.341  49.707  50.548  0.00  0.00    -0.160 N 
ATOM      2  N   UNL d   1      58.094  49.707  51.322  0.00  0.00    -0.056 NA
ATOM      3  C   UNL d   1      59.156  49.707  50.312  0.00  0.00     0.357 C 
ATOM      4  N   UNL d   1      57.270  49.707  51.319  0.00  0.00    -0.128 NA
ATOM      5  C   UNL d   1      57.687  49.706  50.063  0.00  0.00     0.108 A 
ATOM      6  N   UNL d   1      59.756  49.707  50.872  0.00  0.00    -0.252 N 
ATOM      7  C   UNL d   1      57.020  49.706  50.541  0.00  0.00     0.122 A 
ATOM      8  O   UNL d   1      59.325  49.706  49.494  0.00  0.00    -0.244 OA
ATOM      9  O   UNL d   1      60.960  49.708  51.995  0.00  0.00    -0.300 OA
ATOM     10  C   UNL d   1      57.609  49.706  49.254  0.00  0.00     0.021 A 
ATOM     11  C   UNL d   1      59.562  49.707  51.688  0.00  0.00     0.111 A 
ATOM     12  C   UNL d   1      60.534  49.707  50.639  0.00  0.00     0.111 A 
ATOM     13  C   UNL d   1      56.261  49.706  50.206  0.00  0.00     0.022 A 
ATOM     14  C   UNL d   1      60.168  49.708  52.253  0.00  0.00     0.142 A 
ATOM     15  C   UNL d   1      61.138  49.707  51.202  0.00  0.00     0.142 A 
ATOM     16  C   UNL d   1      56.858  49.705  48.910  0.00  0.00     0.002 A 
ATOM     17  C   UNL d   1      56.185  49.706  49.376  0.00  0.00     0.002 A 
ENDROOT
TORSDOF 0
ENDMDL
