MODEL 1
REMARK VINA RESULT:     -10.1      0.000      0.000
REMARK  5 active torsions:
REMARK  status: ('A' for Active; 'I' for Inactive)
REMARK    1  A    between atoms: C_2  and  C_1 
REMARK    2  A    between atoms: C_3  and  C_1 
REMARK    3  A    between atoms: C_4  and  C_1 
REMARK    4  A    between atoms: C_5  and  C_2 
REMARK    5  A    between atoms: C_13  and  C_5 
ROOT
ATOM      1  C   UNL d   1      53.437  32.235  53.853  0.00  0.00     0.029 C 
ENDROOT
BRANCH   1   2
ATOM      2  C   UNL d   1      52.712  32.614  53.765  0.00  0.00     0.044 C 
BRANCH   2   3
ATOM      3  C   UNL d   1      52.449  32.825  53.017  0.00  0.00     0.196 C 
ATOM      4  O   UNL d   1      52.764  32.595  52.493  0.00  0.00    -0.287 OA
BRANCH   3   5
ATOM      5  C   UNL d   1      51.784  33.328  52.903  0.00  0.00     0.039 A 
ATOM      6  C   UNL d   1      51.854  33.947  52.367  0.00  0.00     0.003 A 
ATOM      7  C   UNL d   1      51.196  34.450  52.251  0.00  0.00     0.000 A 
ATOM      8  C   UNL d   1      50.491  34.325  52.668  0.00  0.00     0.000 A 
ATOM      9  C   UNL d   1      50.453  33.700  53.195  0.00  0.00     0.000 A 
ATOM     10  C   UNL d   1      51.085  33.203  53.318  0.00  0.00     0.003 A 
ENDBRANCH   3   5
ENDBRANCH   2   3
ENDBRANCH   1   2
BRANCH   1  11
ATOM     11  C   UNL d   1      53.496  31.421  53.717  0.00  0.00     0.100 A 
ATOM     12  O   UNL d   1      53.222  30.891  54.282  0.00  0.00    -0.305 OA
ATOM     13  C   UNL d   1      53.354  30.130  53.995  0.00  0.00     0.123 A 
ATOM     14  C   UNL d   1      53.709  30.199  53.253  0.00  0.00     0.029 A 
ATOM     15  C   UNL d   1      53.797  30.986  53.081  0.00  0.00     0.027 A 
ENDBRANCH   1  11
BRANCH   1  16
ATOM     16  C   UNL d   1      54.102  32.679  54.078  0.00  0.00     0.041 A 
ATOM     17  C   UNL d   1      54.183  32.958  54.850  0.00  0.00     0.196 A 
ATOM     18  O   UNL d   1      53.602  32.803  55.422  0.00  0.00    -0.287 OA
ATOM     19  C   UNL d   1      54.861  33.405  55.059  0.00  0.00     0.042 A 
ATOM     20  C   UNL d   1      55.443  33.564  54.499  0.00  0.00     0.003 A 
ATOM     21  C   UNL d   1      55.362  33.285  53.727  0.00  0.00     0.000 A 
ATOM     22  C   UNL d   1      54.699  32.846  53.515  0.00  0.00     0.003 A 
ENDBRANCH   1  16
TORSDOF 5
ENDMDL
MODEL 2
REMARK VINA RESULT:      -9.4      1.389      3.814
REMARK  5 active torsions:
REMARK  status: ('A' for Active; 'I' for Inactive)
REMARK    1  A    between atoms: C_2  and  C_1 
REMARK    2  A    between atoms: C_3  and  C_1 
REMARK    3  A    between atoms: C_4  and  C_1 
REMARK    4  A    between atoms: C_5  and  C_2 
REMARK    5  A    between atoms: C_13  and  C_5 
ROOT
ATOM      1  C   UNL d   1      52.102  33.654  53.353  0.00  0.00     0.029 C 
ENDROOT
BRANCH   1   2
ATOM      2  C   UNL d   1      52.246  32.857  53.491  0.00  0.00     0.044 C 
BRANCH   2   3
ATOM      3  C   UNL d   1      52.819  32.462  53.055  0.00  0.00     0.196 C 
ATOM      4  O   UNL d   1      53.148  32.789  52.595  0.00  0.00    -0.287 OA
BRANCH   3   5
ATOM      5  C   UNL d   1      52.995  31.650  53.182  0.00  0.00     0.039 A 
ATOM      6  C   UNL d   1      53.630  31.463  53.670  0.00  0.00     0.003 A 
ATOM      7  C   UNL d   1      53.809  30.656  53.799  0.00  0.00     0.000 A 
ATOM      8  C   UNL d   1      53.357  30.062  53.443  0.00  0.00     0.000 A 
ATOM      9  C   UNL d   1      52.731  30.279  52.961  0.00  0.00     0.000 A 
ATOM     10  C   UNL d   1      52.545  31.060  52.827  0.00  0.00     0.003 A 
ENDBRANCH   3   5
ENDBRANCH   2   3
ENDBRANCH   1   2
BRANCH   1  11
ATOM     11  C   UNL d   1      52.581  34.228  53.709  0.00  0.00     0.100 A 
ATOM     12  O   UNL d   1      52.618  34.278  54.528  0.00  0.00    -0.305 OA
ATOM     13  C   UNL d   1      53.132  34.893  54.717  0.00  0.00     0.123 A 
ATOM     14  C   UNL d   1      53.408  35.217  54.010  0.00  0.00     0.029 A 
ATOM     15  C   UNL d   1      53.073  34.813  53.393  0.00  0.00     0.027 A 
ENDBRANCH   1  11
BRANCH   1  16
ATOM     16  C   UNL d   1      51.474  33.873  52.854  0.00  0.00     0.041 A 
ATOM     17  C   UNL d   1      50.692  33.817  53.110  0.00  0.00     0.196 A 
ATOM     18  O   UNL d   1      50.511  33.540  53.872  0.00  0.00    -0.287 OA
ATOM     19  C   UNL d   1      50.072  34.042  52.593  0.00  0.00     0.042 A 
ATOM     20  C   UNL d   1      50.240  34.317  51.836  0.00  0.00     0.003 A 
ATOM     21  C   UNL d   1      51.023  34.374  51.581  0.00  0.00     0.000 A 
ATOM     22  C   UNL d   1      51.636  34.154  52.082  0.00  0.00     0.003 A 
ENDBRANCH   1  16
TORSDOF 5
ENDMDL
MODEL 3
REMARK VINA RESULT:      -9.4      0.821      2.497
REMARK  5 active torsions:
REMARK  status: ('A' for Active; 'I' for Inactive)
REMARK    1  A    between atoms: C_2  and  C_1 
REMARK    2  A    between atoms: C_3  and  C_1 
REMARK    3  A    between atoms: C_4  and  C_1 
REMARK    4  A    between atoms: C_5  and  C_2 
REMARK    5  A    between atoms: C_13  and  C_5 
ROOT
ATOM      1  C   UNL d   1      53.335  32.164  53.433  0.00  0.00     0.029 C 
ENDROOT
BRANCH   1   2
ATOM      2  C   UNL d   1      52.746  32.586  53.042  0.00  0.00     0.044 C 
BRANCH   2   3
ATOM      3  C   UNL d   1      52.242  33.075  53.468  0.00  0.00     0.196 C 
ATOM      4  O   UNL d   1      52.324  33.129  54.114  0.00  0.00    -0.287 OA
BRANCH   3   5
ATOM      5  C   UNL d   1      51.624  33.509  53.098  0.00  0.00     0.039 A 
ATOM      6  C   UNL d   1      50.864  33.438  53.403  0.00  0.00     0.003 A 
ATOM      7  C   UNL d   1      50.246  33.867  53.039  0.00  0.00     0.000 A 
ATOM      8  C   UNL d   1      50.399  34.353  52.385  0.00  0.00     0.000 A 
ATOM      9  C   UNL d   1      51.167  34.403  52.104  0.00  0.00     0.000 A 
ATOM     10  C   UNL d   1      51.777  33.990  52.449  0.00  0.00     0.003 A 
ENDBRANCH   3   5
ENDBRANCH   2   3
ENDBRANCH   1   2
BRANCH   1  11
ATOM     11  C   UNL d   1      54.008  32.557  53.711  0.00  0.00     0.100 A 
ATOM     12  O   UNL d   1      54.607  32.765  53.188  0.00  0.00    -0.305 OA
ATOM     13  C   UNL d   1      55.196  33.144  53.621  0.00  0.00     0.123 A 
ATOM     14  C   UNL d   1      54.954  33.165  54.409  0.00  0.00     0.029 A 
ATOM     15  C   UNL d   1      54.230  32.808  54.468  0.00  0.00     0.027 A 
ENDBRANCH   1  11
BRANCH   1  16
ATOM     16  C   UNL d   1      53.243  31.346  53.541  0.00  0.00     0.041 A 
ATOM     17  C   UNL d   1      53.144  30.842  52.896  0.00  0.00     0.196 A 
ATOM     18  O   UNL d   1      53.132  31.139  52.121  0.00  0.00    -0.287 OA
ATOM     19  C   UNL d   1      53.053  30.019  53.025  0.00  0.00     0.042 A 
ATOM     20  C   UNL d   1      53.063  29.714  53.789  0.00  0.00     0.003 A 
ATOM     21  C   UNL d   1      53.163  30.218  54.435  0.00  0.00     0.000 A 
ATOM     22  C   UNL d   1      53.253  31.027  54.316  0.00  0.00     0.003 A 
ENDBRANCH   1  16
TORSDOF 5
ENDMDL
MODEL 4
REMARK VINA RESULT:      -9.3      0.891      2.914
REMARK  5 active torsions:
REMARK  status: ('A' for Active; 'I' for Inactive)
REMARK    1  A    between atoms: C_2  and  C_1 
REMARK    2  A    between atoms: C_3  and  C_1 
REMARK    3  A    between atoms: C_4  and  C_1 
REMARK    4  A    between atoms: C_5  and  C_2 
REMARK    5  A    between atoms: C_13  and  C_5 
ROOT
ATOM      1  C   UNL d   1      53.368  32.996  53.948  0.00  0.00     0.029 C 
ENDROOT
BRANCH   1   2
ATOM      2  C   UNL d   1      53.182  32.196  54.002  0.00  0.00     0.044 C 
BRANCH   2   3
ATOM      3  C   UNL d   1      53.323  31.700  53.363  0.00  0.00     0.196 C 
ATOM      4  O   UNL d   1      53.558  31.954  52.810  0.00  0.00    -0.287 OA
BRANCH   3   5
ATOM      5  C   UNL d   1      53.174  30.873  53.400  0.00  0.00     0.039 A 
ATOM      6  C   UNL d   1      52.620  30.556  52.883  0.00  0.00     0.003 A 
ATOM      7  C   UNL d   1      52.468  29.734  52.915  0.00  0.00     0.000 A 
ATOM      8  C   UNL d   1      52.869  29.253  53.458  0.00  0.00     0.000 A 
ATOM      9  C   UNL d   1      53.416  29.598  53.960  0.00  0.00     0.000 A 
ATOM     10  C   UNL d   1      53.573  30.396  53.939  0.00  0.00     0.003 A 
ENDBRANCH   3   5
ENDBRANCH   2   3
ENDBRANCH   1   2
BRANCH   1  11
ATOM     11  C   UNL d   1      52.839  33.519  53.583  0.00  0.00     0.100 A 
ATOM     12  O   UNL d   1      52.100  33.651  53.916  0.00  0.00    -0.305 OA
ATOM     13  C   UNL d   1      51.703  34.190  53.436  0.00  0.00     0.123 A 
ATOM     14  C   UNL d   1      52.204  34.385  52.810  0.00  0.00     0.029 A 
ATOM     15  C   UNL d   1      52.898  33.976  52.897  0.00  0.00     0.027 A 
ENDBRANCH   1  11
BRANCH   1  16
ATOM     16  C   UNL d   1      54.087  33.268  54.263  0.00  0.00     0.041 A 
ATOM     17  C   UNL d   1      54.180  33.372  55.076  0.00  0.00     0.196 A 
ATOM     18  O   UNL d   1      53.558  33.207  55.601  0.00  0.00    -0.287 OA
ATOM     19  C   UNL d   1      54.913  33.647  55.376  0.00  0.00     0.042 A 
ATOM     20  C   UNL d   1      55.536  33.812  54.864  0.00  0.00     0.003 A 
ATOM     21  C   UNL d   1      55.442  33.708  54.051  0.00  0.00     0.000 A 
ATOM     22  C   UNL d   1      54.726  33.439  53.749  0.00  0.00     0.003 A 
ENDBRANCH   1  16
TORSDOF 5
ENDMDL
MODEL 5
REMARK VINA RESULT:      -8.7      0.819      3.402
REMARK  5 active torsions:
REMARK  status: ('A' for Active; 'I' for Inactive)
REMARK    1  A    between atoms: C_2  and  C_1 
REMARK    2  A    between atoms: C_3  and  C_1 
REMARK    3  A    between atoms: C_4  and  C_1 
REMARK    4  A    between atoms: C_5  and  C_2 
REMARK    5  A    between atoms: C_13  and  C_5 
ROOT
ATOM      1  C   UNL d   1      52.704  32.507  53.171  0.00  0.00     0.029 C 
ENDROOT
BRANCH   1   2
ATOM      2  C   UNL d   1      53.408  32.839  53.437  0.00  0.00     0.044 C 
BRANCH   2   3
ATOM      3  C   UNL d   1      53.633  32.748  54.221  0.00  0.00     0.196 C 
ATOM      4  O   UNL d   1      53.292  32.344  54.604  0.00  0.00    -0.287 OA
BRANCH   3   5
ATOM      5  C   UNL d   1      54.291  33.159  54.546  0.00  0.00     0.039 A 
ATOM      6  C   UNL d   1      54.226  33.448  55.313  0.00  0.00     0.003 A 
ATOM      7  C   UNL d   1      54.878  33.857  55.642  0.00  0.00     0.000 A 
ATOM      8  C   UNL d   1      55.570  33.968  55.202  0.00  0.00     0.000 A 
ATOM      9  C   UNL d   1      55.604  33.669  54.440  0.00  0.00     0.000 A 
ATOM     10  C   UNL d   1      54.978  33.269  54.109  0.00  0.00     0.003 A 
ENDBRANCH   3   5
ENDBRANCH   2   3
ENDBRANCH   1   2
BRANCH   1  11
ATOM     11  C   UNL d   1      52.661  31.694  53.023  0.00  0.00     0.100 A 
ATOM     12  O   UNL d   1      53.059  31.374  52.379  0.00  0.00    -0.305 OA
ATOM     13  C   UNL d   1      52.914  30.563  52.375  0.00  0.00     0.123 A 
ATOM     14  C   UNL d   1      52.426  30.391  53.017  0.00  0.00     0.029 A 
ATOM     15  C   UNL d   1      52.270  31.079  53.415  0.00  0.00     0.027 A 
ENDBRANCH   1  11
BRANCH   1  16
ATOM     16  C   UNL d   1      52.043  32.997  53.056  0.00  0.00     0.041 A 
ATOM     17  C   UNL d   1      52.034  33.561  52.454  0.00  0.00     0.196 A 
ATOM     18  O   UNL d   1      52.686  33.654  51.948  0.00  0.00    -0.287 OA
ATOM     19  C   UNL d   1      51.359  34.046  52.353  0.00  0.00     0.042 A 
ATOM     20  C   UNL d   1      50.707  33.962  52.849  0.00  0.00     0.003 A 
ATOM     21  C   UNL d   1      50.716  33.397  53.451  0.00  0.00     0.000 A 
ATOM     22  C   UNL d   1      51.376  32.918  53.556  0.00  0.00     0.003 A 
ENDBRANCH   1  16
TORSDOF 5
ENDMDL
MODEL 6
REMARK VINA RESULT:      -8.4      1.383      3.226
REMARK  5 active torsions:
REMARK  status: ('A' for Active; 'I' for Inactive)
REMARK    1  A    between atoms: C_2  and  C_1 
REMARK    2  A    between atoms: C_3  and  C_1 
REMARK    3  A    between atoms: C_4  and  C_1 
REMARK    4  A    between atoms: C_5  and  C_2 
REMARK    5  A    between atoms: C_13  and  C_5 
ROOT
ATOM      1  C   UNL d   1      52.124  33.661  53.393  0.00  0.00     0.029 C 
ENDROOT
BRANCH   1   2
ATOM      2  C   UNL d   1      52.327  32.881  53.555  0.00  0.00     0.044 C 
BRANCH   2   3
ATOM      3  C   UNL d   1      52.698  32.427  52.980  0.00  0.00     0.196 C 
ATOM      4  O   UNL d   1      52.822  32.694  52.397  0.00  0.00    -0.287 OA
BRANCH   3   5
ATOM      5  C   UNL d   1      52.925  31.629  53.119  0.00  0.00     0.039 A 
ATOM      6  C   UNL d   1      53.648  31.490  53.485  0.00  0.00     0.003 A 
ATOM      7  C   UNL d   1      53.877  30.698  53.625  0.00  0.00     0.000 A 
ATOM      8  C   UNL d   1      53.386  30.071  53.400  0.00  0.00     0.000 A 
ATOM      9  C   UNL d   1      52.671  30.242  53.038  0.00  0.00     0.000 A 
ATOM     10  C   UNL d   1      52.436  31.007  52.896  0.00  0.00     0.003 A 
ENDBRANCH   3   5
ENDBRANCH   2   3
ENDBRANCH   1   2
BRANCH   1  11
ATOM     11  C   UNL d   1      51.424  33.829  52.983  0.00  0.00     0.100 A 
ATOM     12  O   UNL d   1      50.698  33.729  53.355  0.00  0.00    -0.305 OA
ATOM     13  C   UNL d   1      50.111  33.937  52.816  0.00  0.00     0.123 A 
ATOM     14  C   UNL d   1      50.483  34.164  52.115  0.00  0.00     0.029 A 
ATOM     15  C   UNL d   1      51.284  34.099  52.214  0.00  0.00     0.027 A 
ENDBRANCH   1  11
BRANCH   1  16
ATOM     16  C   UNL d   1      52.627  34.272  53.645  0.00  0.00     0.041 A 
ATOM     17  C   UNL d   1      52.750  34.415  54.449  0.00  0.00     0.196 A 
ATOM     18  O   UNL d   1      52.374  33.950  55.026  0.00  0.00    -0.287 OA
ATOM     19  C   UNL d   1      53.261  35.035  54.684  0.00  0.00     0.042 A 
ATOM     20  C   UNL d   1      53.638  35.501  54.120  0.00  0.00     0.003 A 
ATOM     21  C   UNL d   1      53.514  35.359  53.317  0.00  0.00     0.000 A 
ATOM     22  C   UNL d   1      53.014  34.751  53.078  0.00  0.00     0.003 A 
ENDBRANCH   1  16
TORSDOF 5
ENDMDL
MODEL 7
REMARK VINA RESULT:      -7.3      0.897      3.687
REMARK  5 active torsions:
REMARK  status: ('A' for Active; 'I' for Inactive)
REMARK    1  A    between atoms: C_2  and  C_1 
REMARK    2  A    between atoms: C_3  and  C_1 
REMARK    3  A    between atoms: C_4  and  C_1 
REMARK    4  A    between atoms: C_5  and  C_2 
REMARK    5  A    between atoms: C_13  and  C_5 
ROOT
ATOM      1  C   UNL d   1      52.694  32.412  53.208  0.00  0.00     0.029 C 
ENDROOT
BRANCH   1   2
ATOM      2  C   UNL d   1      53.402  32.720  53.491  0.00  0.00     0.044 C 
BRANCH   2   3
ATOM      3  C   UNL d   1      53.450  32.989  54.265  0.00  0.00     0.196 C 
ATOM      4  O   UNL d   1      52.917  32.970  54.642  0.00  0.00    -0.287 OA
BRANCH   3   5
ATOM      5  C   UNL d   1      54.166  33.290  54.589  0.00  0.00     0.039 A 
ATOM      6  C   UNL d   1      54.233  33.334  55.407  0.00  0.00     0.003 A 
ATOM      7  C   UNL d   1      54.943  33.632  55.734  0.00  0.00     0.000 A 
ATOM      8  C   UNL d   1      55.563  33.876  55.243  0.00  0.00     0.000 A 
ATOM      9  C   UNL d   1      55.467  33.819  54.431  0.00  0.00     0.000 A 
ATOM     10  C   UNL d   1      54.781  33.531  54.100  0.00  0.00     0.003 A 
ENDBRANCH   3   5
ENDBRANCH   2   3
ENDBRANCH   1   2
BRANCH   1  11
ATOM     11  C   UNL d   1      52.094  32.923  52.952  0.00  0.00     0.100 A 
ATOM     12  O   UNL d   1      52.179  33.331  52.244  0.00  0.00    -0.305 OA
ATOM     13  C   UNL d   1      51.503  33.789  52.138  0.00  0.00     0.123 A 
ATOM     14  C   UNL d   1      51.007  33.658  52.784  0.00  0.00     0.029 A 
ATOM     15  C   UNL d   1      51.365  33.130  53.282  0.00  0.00     0.027 A 
ENDBRANCH   1  11
BRANCH   1  16
ATOM     16  C   UNL d   1      52.591  31.588  53.183  0.00  0.00     0.041 A 
ATOM     17  C   UNL d   1      53.039  31.121  52.671  0.00  0.00     0.196 A 
ATOM     18  O   UNL d   1      53.604  31.463  52.167  0.00  0.00    -0.287 OA
ATOM     19  C   UNL d   1      52.922  30.292  52.659  0.00  0.00     0.042 A 
ATOM     20  C   UNL d   1      52.364  29.944  53.155  0.00  0.00     0.003 A 
ATOM     21  C   UNL d   1      51.917  30.410  53.667  0.00  0.00     0.000 A 
ATOM     22  C   UNL d   1      52.027  31.225  53.683  0.00  0.00     0.003 A 
ENDBRANCH   1  16
TORSDOF 5
ENDMDL
