MODEL 1
REMARK VINA RESULT:      17.5      0.000      0.000
REMARK  6 active torsions:
REMARK  status: ('A' for Active; 'I' for Inactive)
REMARK    1  A    between atoms: C_11  and  C_3 
REMARK    2  A    between atoms: C_12  and  C_4 
REMARK    3  A    between atoms: C_13  and  C_7 
REMARK    4  A    between atoms: N_15  and  C_11 
REMARK    5  A    between atoms: N_14  and  C_12 
REMARK    6  A    between atoms: O_24  and  C_21 
ROOT
ATOM      1  C   UNL d   1     -41.605-122.358 -51.451  0.00  0.00     0.101 A 
ATOM      2  C   UNL d   1     -41.602-123.058 -51.891  0.00  0.00     0.111 A 
ATOM      3  C   UNL d   1     -41.442-123.037 -52.700  0.00  0.00     0.080 A 
ATOM      4  C   UNL d   1     -41.291-121.621 -52.622  0.00  0.00     0.096 A 
ATOM      5  C   UNL d   1     -41.767-122.387 -50.636  0.00  0.00     0.203 A 
ATOM      6  C   UNL d   1     -41.449-121.640 -51.822  0.00  0.00     0.205 A 
ATOM      7  C   UNL d   1     -41.924-123.109 -50.267  0.00  0.00     0.064 A 
ATOM      8  C   UNL d   1     -41.287-122.320 -53.061  0.00  0.00     0.203 A 
ATOM      9  O   UNL d   1     -41.758-123.789 -51.528  0.00  0.00    -0.305 OA
ATOM     10  C   UNL d   1     -41.920-123.816 -50.712  0.00  0.00     0.126 A 
ATOM     11  O   UNL d   1     -41.771-121.694 -50.201  0.00  0.00    -0.286 OA
ATOM     12  O   UNL d   1     -41.453-120.941 -51.382  0.00  0.00    -0.286 OA
ATOM     13  O   UNL d   1     -41.125-122.295 -53.878  0.00  0.00    -0.286 OA
ENDROOT
BRANCH   7  14
ATOM     14  C   UNL d   1     -42.084-123.129 -49.458  0.00  0.00     0.005 A 
ATOM     15  C   UNL d   1     -42.819-122.865 -49.184  0.00  0.00     0.002 A 
ATOM     16  C   UNL d   1     -42.980-122.885 -48.375  0.00  0.00     0.024 A 
ATOM     17  C   UNL d   1     -42.413-123.166 -47.843  0.00  0.00     0.094 A 
ATOM     18  C   UNL d   1     -41.683-123.427 -48.123  0.00  0.00     0.024 A 
ATOM     19  C   UNL d   1     -41.514-123.411 -48.930  0.00  0.00     0.002 A 
BRANCH  17  20
ATOM     20  O   UNL d   1     -42.574-123.186 -47.034  0.00  0.00    -0.328 OA
ATOM     21  C   UNL d   1     -43.357-123.150 -46.771  0.00  0.00     0.181 C 
ENDBRANCH  17  20
ENDBRANCH   7  14
BRANCH   3  22
ATOM     22  C   UNL d   1     -41.440-123.741 -53.132  0.00  0.00     0.085 C 
BRANCH  22  23
ATOM     23  N   UNL d   1     -41.771-123.749 -53.897  0.00  0.00    -0.302 N 
ATOM     24  C   UNL d   1     -42.591-123.806 -53.989  0.00  0.00     0.080 A 
ATOM     25  C   UNL d   1     -42.914-123.814 -54.743  0.00  0.00     0.019 A 
ATOM     26  C   UNL d   1     -42.421-123.765 -55.410  0.00  0.00     0.003 A 
ATOM     27  C   UNL d   1     -41.606-123.708 -55.314  0.00  0.00     0.019 A 
ATOM     28  C   UNL d   1     -41.274-123.700 -54.559  0.00  0.00     0.080 A 
ENDBRANCH  22  23
ENDBRANCH   3  22
BRANCH   4  29
ATOM     29  C   UNL d   1     -41.135-120.899 -52.991  0.00  0.00     0.087 C 
BRANCH  29  30
ATOM     30  N   UNL d   1     -41.627-120.628 -53.596  0.00  0.00    -0.302 N 
ATOM     31  C   UNL d   1     -41.301-120.299 -54.279  0.00  0.00     0.080 A 
ATOM     32  C   UNL d   1     -41.793-120.028 -54.884  0.00  0.00     0.019 A 
ATOM     33  C   UNL d   1     -42.616-120.086 -54.806  0.00  0.00     0.003 A 
ATOM     34  C   UNL d   1     -42.943-120.415 -54.123  0.00  0.00     0.019 A 
ATOM     35  C   UNL d   1     -42.450-120.686 -53.517  0.00  0.00     0.080 A 
ENDBRANCH  29  30
ENDBRANCH   4  29
TORSDOF 6
ENDMDL
