MODEL 1
REMARK VINA RESULT:      -5.8      0.000      0.000
REMARK  5 active torsions:
REMARK  status: ('A' for Active; 'I' for Inactive)
REMARK    1  A    between atoms: C_12  and  N_3 
REMARK    2  A    between atoms: C_10  and  N_7 
REMARK    3  A    between atoms: C_11  and  C_10 
REMARK    4  A    between atoms: C_14  and  C_11 
REMARK    5  A    between atoms: C_19  and  C_12 
ROOT
ATOM      1  C   UNL d   1     -43.950  12.858  21.772  0.00  0.00     0.191 A 
ATOM      2  C   UNL d   1     -43.948  12.196  22.280  0.00  0.00     0.196 A 
ATOM      3  N   UNL d   1     -43.193  12.913  21.434  0.00  0.00    -0.191 N 
ATOM      4  N   UNL d   1     -44.629  13.306  21.694  0.00  0.00    -0.204 NA
ATOM      5  N   UNL d   1     -43.189  11.858  22.243  0.00  0.00    -0.122 NA
ATOM      6  N   UNL d   1     -42.743  12.299  21.730  0.00  0.00    -0.058 NA
ATOM      7  N   UNL d   1     -45.312  12.451  22.619  0.00  0.00    -0.251 N 
ATOM      8  C   UNL d   1     -44.624  12.001  22.695  0.00  0.00     0.289 A 
ATOM      9  C   UNL d   1     -45.315  13.112  22.111  0.00  0.00     0.187 A 
ATOM     10  O   UNL d   1     -44.622  11.340  23.203  0.00  0.00    -0.265 OA
ENDROOT
BRANCH   7  11
ATOM     11  C   UNL d   1     -46.004  12.259  23.037  0.00  0.00     0.127 C 
BRANCH  11  12
ATOM     12  C   UNL d   1     -46.553  12.852  23.242  0.00  0.00     0.213 C 
ATOM     13  O   UNL d   1     -46.288  13.616  23.411  0.00  0.00    -0.285 OA
BRANCH  12  14
ATOM     14  C   UNL d   1     -47.353  12.669  23.273  0.00  0.00     0.041 A 
ATOM     15  C   UNL d   1     -47.607  11.988  23.669  0.00  0.00     0.004 A 
ATOM     16  C   UNL d   1     -48.401  11.811  23.698  0.00  0.00     0.011 A 
ATOM     17  C   UNL d   1     -48.954  12.306  23.335  0.00  0.00     0.058 A 
ATOM     18  C   UNL d   1     -48.700  12.988  22.939  0.00  0.00     0.011 A 
ATOM     19 CL   UNL d   1     -49.766  12.123  23.365  0.00  0.00    -0.082 Cl
ATOM     20  C   UNL d   1     -47.905  13.165  22.910  0.00  0.00     0.004 A 
ENDBRANCH  12  14
ENDBRANCH  11  12
ENDBRANCH   7  11
BRANCH   3  21
ATOM     21  C   UNL d   1     -42.936  13.493  20.887  0.00  0.00     0.104 C 
BRANCH  21  22
ATOM     22  C   UNL d   1     -42.163  13.799  20.941  0.00  0.00     0.019 A 
ATOM     23  C   UNL d   1     -41.510  13.300  20.877  0.00  0.00     0.002 A 
ATOM     24  C   UNL d   1     -40.765  13.617  20.932  0.00  0.00     0.000 A 
ATOM     25  C   UNL d   1     -40.645  14.414  21.050  0.00  0.00     0.000 A 
ATOM     26  C   UNL d   1     -41.317  14.927  21.117  0.00  0.00     0.000 A 
ATOM     27  C   UNL d   1     -42.070  14.608  21.061  0.00  0.00     0.002 A 
ENDBRANCH  21  22
ENDBRANCH   3  21
TORSDOF 5
ENDMDL
MODEL 2
REMARK VINA RESULT:      -5.7      2.235      5.959
REMARK  5 active torsions:
REMARK  status: ('A' for Active; 'I' for Inactive)
REMARK    1  A    between atoms: C_12  and  N_3 
REMARK    2  A    between atoms: C_10  and  N_7 
REMARK    3  A    between atoms: C_11  and  C_10 
REMARK    4  A    between atoms: C_14  and  C_11 
REMARK    5  A    between atoms: C_19  and  C_12 
ROOT
ATOM      1  C   UNL d   1     -47.336  13.030  22.942  0.00  0.00     0.191 A 
ATOM      2  C   UNL d   1     -46.894  12.398  23.261  0.00  0.00     0.196 A 
ATOM      3  N   UNL d   1     -48.123  12.932  23.190  0.00  0.00    -0.191 N 
ATOM      4  N   UNL d   1     -46.963  13.592  22.481  0.00  0.00    -0.204 NA
ATOM      5  N   UNL d   1     -47.419  11.924  23.698  0.00  0.00    -0.122 NA
ATOM      6  N   UNL d   1     -48.157  12.256  23.648  0.00  0.00    -0.058 NA
ATOM      7  N   UNL d   1     -45.712  12.912  22.644  0.00  0.00    -0.251 N 
ATOM      8  C   UNL d   1     -46.093  12.347  23.109  0.00  0.00     0.289 A 
ATOM      9  C   UNL d   1     -46.154  13.544  22.325  0.00  0.00     0.187 A 
ATOM     10  O   UNL d   1     -45.651  11.715  23.427  0.00  0.00    -0.265 OA
ENDROOT
BRANCH   7  11
ATOM     11  C   UNL d   1     -44.898  12.867  22.485  0.00  0.00     0.127 C 
BRANCH  11  12
ATOM     12  C   UNL d   1     -44.620  12.851  21.699  0.00  0.00     0.213 C 
ATOM     13  O   UNL d   1     -45.145  12.692  21.082  0.00  0.00    -0.285 OA
BRANCH  12  14
ATOM     14  C   UNL d   1     -43.826  12.995  21.548  0.00  0.00     0.041 A 
ATOM     15  C   UNL d   1     -43.588  13.730  21.249  0.00  0.00     0.004 A 
ATOM     16  C   UNL d   1     -42.800  13.868  21.100  0.00  0.00     0.011 A 
ATOM     17  C   UNL d   1     -42.237  13.281  21.245  0.00  0.00     0.058 A 
ATOM     18  C   UNL d   1     -42.475  12.546  21.544  0.00  0.00     0.011 A 
ATOM     19 CL   UNL d   1     -41.431  13.424  21.092  0.00  0.00    -0.082 Cl
ATOM     20  C   UNL d   1     -43.264  12.408  21.693  0.00  0.00     0.004 A 
ENDBRANCH  12  14
ENDBRANCH  11  12
ENDBRANCH   7  11
BRANCH   3  21
ATOM     21  C   UNL d   1     -48.767  13.434  23.005  0.00  0.00     0.104 C 
BRANCH  21  22
ATOM     22  C   UNL d   1     -49.539  13.123  22.974  0.00  0.00     0.019 A 
ATOM     23  C   UNL d   1     -49.780  12.662  22.333  0.00  0.00     0.002 A 
ATOM     24  C   UNL d   1     -50.536  12.368  22.321  0.00  0.00     0.000 A 
ATOM     25  C   UNL d   1     -51.063  12.515  22.924  0.00  0.00     0.000 A 
ATOM     26  C   UNL d   1     -50.815  12.988  23.583  0.00  0.00     0.000 A 
ATOM     27  C   UNL d   1     -50.052  13.286  23.597  0.00  0.00     0.002 A 
ENDBRANCH  21  22
ENDBRANCH   3  21
TORSDOF 5
ENDMDL
MODEL 3
REMARK VINA RESULT:      -4.8      2.212      5.686
REMARK  5 active torsions:
REMARK  status: ('A' for Active; 'I' for Inactive)
REMARK    1  A    between atoms: C_12  and  N_3 
REMARK    2  A    between atoms: C_10  and  N_7 
REMARK    3  A    between atoms: C_11  and  C_10 
REMARK    4  A    between atoms: C_14  and  C_11 
REMARK    5  A    between atoms: C_19  and  C_12 
ROOT
ATOM      1  C   UNL d   1     -45.351  12.573  22.579  0.00  0.00     0.191 A 
ATOM      2  C   UNL d   1     -44.832  11.970  22.827  0.00  0.00     0.196 A 
ATOM      3  N   UNL d   1     -46.088  12.428  22.935  0.00  0.00    -0.191 N 
ATOM      4  N   UNL d   1     -45.083  13.156  22.073  0.00  0.00    -0.204 NA
ATOM      5  N   UNL d   1     -45.259  11.466  23.331  0.00  0.00    -0.122 NA
ATOM      6  N   UNL d   1     -46.016  11.752  23.389  0.00  0.00    -0.058 NA
ATOM      7  N   UNL d   1     -43.783  12.554  22.052  0.00  0.00    -0.251 N 
ATOM      8  C   UNL d   1     -44.058  11.967  22.563  0.00  0.00     0.289 A 
ATOM      9  C   UNL d   1     -44.303  13.157  21.804  0.00  0.00     0.187 A 
ATOM     10  O   UNL d   1     -43.539  11.364  22.812  0.00  0.00    -0.265 OA
ENDROOT
BRANCH   7  11
ATOM     11  C   UNL d   1     -42.998  12.558  21.779  0.00  0.00     0.127 C 
BRANCH  11  12
ATOM     12  C   UNL d   1     -42.799  12.948  21.070  0.00  0.00     0.213 C 
ATOM     13  O   UNL d   1     -43.278  12.858  20.404  0.00  0.00    -0.285 OA
BRANCH  12  14
ATOM     14  C   UNL d   1     -42.126  13.418  21.042  0.00  0.00     0.041 A 
ATOM     15  C   UNL d   1     -41.431  13.169  21.415  0.00  0.00     0.004 A 
ATOM     16  C   UNL d   1     -40.766  13.638  21.385  0.00  0.00     0.011 A 
ATOM     17  C   UNL d   1     -40.782  14.360  20.984  0.00  0.00     0.058 A 
ATOM     18  C   UNL d   1     -41.477  14.610  20.611  0.00  0.00     0.011 A 
ATOM     19 CL   UNL d   1     -40.101  14.839  20.954  0.00  0.00    -0.082 Cl
ATOM     20  C   UNL d   1     -42.142  14.140  20.641  0.00  0.00     0.004 A 
ENDBRANCH  12  14
ENDBRANCH  11  12
ENDBRANCH   7  11
BRANCH   3  21
ATOM     21  C   UNL d   1     -46.781  12.889  22.847  0.00  0.00     0.104 C 
BRANCH  21  22
ATOM     22  C   UNL d   1     -47.529  12.525  22.888  0.00  0.00     0.019 A 
ATOM     23  C   UNL d   1     -47.858  12.324  23.617  0.00  0.00     0.002 A 
ATOM     24  C   UNL d   1     -48.588  11.970  23.636  0.00  0.00     0.000 A 
ATOM     25  C   UNL d   1     -49.004  11.808  22.956  0.00  0.00     0.000 A 
ATOM     26  C   UNL d   1     -48.666  12.014  22.206  0.00  0.00     0.000 A 
ATOM     27  C   UNL d   1     -47.929  12.372  22.184  0.00  0.00     0.002 A 
ENDBRANCH  21  22
ENDBRANCH   3  21
TORSDOF 5
ENDMDL
MODEL 4
REMARK VINA RESULT:      -3.7      6.206      9.037
REMARK  5 active torsions:
REMARK  status: ('A' for Active; 'I' for Inactive)
REMARK    1  A    between atoms: C_12  and  N_3 
REMARK    2  A    between atoms: C_10  and  N_7 
REMARK    3  A    between atoms: C_11  and  C_10 
REMARK    4  A    between atoms: C_14  and  C_11 
REMARK    5  A    between atoms: C_19  and  C_12 
ROOT
ATOM      1  C   UNL d   1     -39.929  14.920  18.187  0.00  0.00     0.191 A 
ATOM      2  C   UNL d   1     -39.895  14.117  17.964  0.00  0.00     0.196 A 
ATOM      3  N   UNL d   1     -40.558  15.002  18.724  0.00  0.00    -0.191 N 
ATOM      4  N   UNL d   1     -39.393  15.451  17.873  0.00  0.00    -0.204 NA
ATOM      5  N   UNL d   1     -40.503  13.721  18.370  0.00  0.00    -0.122 NA
ATOM      6  N   UNL d   1     -40.896  14.265  18.825  0.00  0.00    -0.058 NA
ATOM      7  N   UNL d   1     -38.781  14.400  17.115  0.00  0.00    -0.251 N 
ATOM      8  C   UNL d   1     -39.324  13.868  17.435  0.00  0.00     0.289 A 
ATOM      9  C   UNL d   1     -38.815  15.203  17.338  0.00  0.00     0.187 A 
ATOM     10  O   UNL d   1     -39.290  13.064  17.212  0.00  0.00    -0.265 OA
ENDROOT
BRANCH   7  11
ATOM     11  C   UNL d   1     -38.198  14.154  16.576  0.00  0.00     0.127 C 
BRANCH  11  12
ATOM     12  C   UNL d   1     -38.077  14.570  15.864  0.00  0.00     0.213 C 
ATOM     13  O   UNL d   1     -37.994  15.392  15.879  0.00  0.00    -0.285 OA
BRANCH  12  14
ATOM     14  C   UNL d   1     -38.043  14.158  15.155  0.00  0.00     0.041 A 
ATOM     15  C   UNL d   1     -38.030  13.330  15.158  0.00  0.00     0.004 A 
ATOM     16  C   UNL d   1     -37.996  12.925  14.453  0.00  0.00     0.011 A 
ATOM     17  C   UNL d   1     -37.975  13.334  13.736  0.00  0.00     0.058 A 
ATOM     18  C   UNL d   1     -37.988  14.162  13.732  0.00  0.00     0.011 A 
ATOM     19 CL   UNL d   1     -37.940  12.918  13.014  0.00  0.00    -0.082 Cl
ATOM     20  C   UNL d   1     -38.022  14.567  14.438  0.00  0.00     0.004 A 
ENDBRANCH  12  14
ENDBRANCH  11  12
ENDBRANCH   7  11
BRANCH   3  21
ATOM     21  C   UNL d   1     -40.803  15.711  19.097  0.00  0.00     0.104 C 
BRANCH  21  22
ATOM     22  C   UNL d   1     -40.903  15.731  19.923  0.00  0.00     0.019 A 
ATOM     23  C   UNL d   1     -41.658  15.777  20.252  0.00  0.00     0.002 A 
ATOM     24  C   UNL d   1     -41.735  15.796  21.060  0.00  0.00     0.000 A 
ATOM     25  C   UNL d   1     -41.088  15.770  21.554  0.00  0.00     0.000 A 
ATOM     26  C   UNL d   1     -40.312  15.722  21.215  0.00  0.00     0.000 A 
ATOM     27  C   UNL d   1     -40.232  15.703  20.400  0.00  0.00     0.002 A 
ENDBRANCH  21  22
ENDBRANCH   3  21
TORSDOF 5
ENDMDL
