MODEL 1
REMARK VINA RESULT:      33.6      0.000      0.000
REMARK  5 active torsions:
REMARK  status: ('A' for Active; 'I' for Inactive)
REMARK    1  A    between atoms: S_10  and  C_6 
REMARK    2  A    between atoms: C_14  and  S_10 
REMARK    3  A    between atoms: C_12  and  C_14 
REMARK    4  A    between atoms: O_16  and  C_12 
REMARK    5  A    between atoms: C_18  and  O_16 
ROOT
ATOM      1  C   UNL d   1      58.724  49.705  49.786  0.00  0.00     0.117 A 
ATOM      2  C   UNL d   1      58.236  49.704  50.439  0.00  0.00     0.082 A 
ATOM      3  N   UNL d   1      59.559  49.706  49.890  0.00  0.00    -0.214 NA
ATOM      4  C   UNL d   1      58.547  49.705  51.201  0.00  0.00     0.283 A 
ATOM      5  N   UNL d   1      59.383  49.706  51.305  0.00  0.00    -0.183 NA
ATOM      6  C   UNL d   1      59.871  49.706  50.642  0.00  0.00     0.198 A 
ATOM      7  S   UNL d   1      58.251  49.704  49.079  0.00  0.00    -0.068 SA
ATOM      8  C   UNL d   1      57.466  49.703  50.170  0.00  0.00     0.013 A 
ATOM      9  C   UNL d   1      57.461  49.703  49.316  0.00  0.00     0.031 A 
ATOM     10  O   UNL d   1      58.039  49.704  51.870  0.00  0.00    -0.265 OA
ATOM     11  C   UNL d   1      56.745  49.702  50.570  0.00  0.00     0.001 A 
ATOM     12  C   UNL d   1      56.749  49.702  48.892  0.00  0.00     0.006 A 
ATOM     13  C   UNL d   1      56.033  49.701  50.146  0.00  0.00     0.000 A 
ATOM     14  C   UNL d   1      56.051  49.701  49.295  0.00  0.00     0.001 A 
ENDROOT
BRANCH   6  15
ATOM     15  S   UNL d   1      60.703  49.707  50.746  0.00  0.00    -0.042 SA
BRANCH  15  16
ATOM     16  C   UNL d   1      61.137  49.056  50.523  0.00  0.00     0.107 C 
BRANCH  16  17
ATOM     17  C   UNL d   1      61.482  48.560  51.116  0.00  0.00     0.307 C 
ATOM     18  O   UNL d   1      61.452  48.775  51.909  0.00  0.00    -0.258 OA
BRANCH  17  19
ATOM     19  O   UNL d   1      61.859  47.838  50.889  0.00  0.00    -0.271 OA
BRANCH  19  20
ATOM     20  C   UNL d   1      61.445  47.123  50.951  0.00  0.00     0.126 C 
ATOM     21  C   UNL d   1      61.313  46.653  50.287  0.00  0.00     0.029 C 
ENDBRANCH  19  20
ENDBRANCH  17  19
ENDBRANCH  16  17
ENDBRANCH  15  16
ENDBRANCH   6  15
TORSDOF 5
ENDMDL
MODEL 2
REMARK VINA RESULT:      36.0      1.543      2.136
REMARK  5 active torsions:
REMARK  status: ('A' for Active; 'I' for Inactive)
REMARK    1  A    between atoms: S_10  and  C_6 
REMARK    2  A    between atoms: C_14  and  S_10 
REMARK    3  A    between atoms: C_12  and  C_14 
REMARK    4  A    between atoms: O_16  and  C_12 
REMARK    5  A    between atoms: C_18  and  O_16 
ROOT
ATOM      1  C   UNL d   1      58.531  49.684  50.972  0.00  0.00     0.117 A 
ATOM      2  C   UNL d   1      58.486  49.688  50.159  0.00  0.00     0.082 A 
ATOM      3  N   UNL d   1      59.284  49.677  51.348  0.00  0.00    -0.214 NA
ATOM      4  C   UNL d   1      59.167  49.684  49.696  0.00  0.00     0.283 A 
ATOM      5  N   UNL d   1      59.921  49.676  50.072  0.00  0.00    -0.183 NA
ATOM      6  C   UNL d   1      59.961  49.673  50.894  0.00  0.00     0.198 A 
ATOM      7  S   UNL d   1      57.747  49.690  51.300  0.00  0.00    -0.068 SA
ATOM      8  C   UNL d   1      57.697  49.694  49.956  0.00  0.00     0.013 A 
ATOM      9  C   UNL d   1      57.219  49.696  50.665  0.00  0.00     0.031 A 
ATOM     10  O   UNL d   1      59.114  49.687  48.857  0.00  0.00    -0.265 OA
ATOM     11  C   UNL d   1      57.318  49.700  49.224  0.00  0.00     0.001 A 
ATOM     12  C   UNL d   1      56.392  49.702  50.624  0.00  0.00     0.006 A 
ATOM     13  C   UNL d   1      56.490  49.707  49.183  0.00  0.00     0.000 A 
ATOM     14  C   UNL d   1      56.033  49.708  49.902  0.00  0.00     0.001 A 
ENDROOT
BRANCH   6  15
ATOM     15  S   UNL d   1      60.711  49.666  51.268  0.00  0.00    -0.042 SA
BRANCH  15  16
ATOM     16  C   UNL d   1      60.845  49.159  51.891  0.00  0.00     0.107 C 
BRANCH  16  17
ATOM     17  C   UNL d   1      60.998  49.475  52.662  0.00  0.00     0.307 C 
ATOM     18  O   UNL d   1      61.770  49.580  52.923  0.00  0.00    -0.258 OA
BRANCH  17  19
ATOM     19  O   UNL d   1      60.350  49.683  53.164  0.00  0.00    -0.271 OA
BRANCH  19  20
ATOM     20  C   UNL d   1      60.439  49.634  53.987  0.00  0.00     0.126 C 
ATOM     21  C   UNL d   1      59.780  49.579  54.479  0.00  0.00     0.029 C 
ENDBRANCH  19  20
ENDBRANCH  17  19
ENDBRANCH  16  17
ENDBRANCH  15  16
ENDBRANCH   6  15
TORSDOF 5
ENDMDL
