MODEL 1
REMARK VINA RESULT:      61.5      0.000      0.000
REMARK  8 active torsions:
REMARK  status: ('A' for Active; 'I' for Inactive)
REMARK    1  A    between atoms: C_25  and  N_5 
REMARK    2  A    between atoms: C_11  and  C_6 
REMARK       I    between atoms: N_15  and  C_11 
REMARK    3  A    between atoms: C_26  and  N_15 
REMARK    4  A    between atoms: C_17  and  C_26 
REMARK    5  A    between atoms: C_30  and  C_25 
REMARK    6  A    between atoms: O_29  and  C_30 
REMARK    7  A    between atoms: C_32  and  O_29 
REMARK    8  A    between atoms: C_31  and  C_32 
ROOT
ATOM      1  C   UNL d   1      13.947  14.143  -3.176  0.00  0.00     0.155 A 
ATOM      2  C   UNL d   1      13.875  14.534  -3.899  0.00  0.00     0.091 A 
ATOM      3  N   UNL d   1      13.705  13.352  -3.109  0.00  0.00    -0.210 NA
ATOM      4  N   UNL d   1      13.321  13.349  -4.485  0.00  0.00    -0.258 N 
ATOM      5  N   UNL d   1      14.256  14.530  -2.526  0.00  0.00    -0.272 N 
ATOM      6  C   UNL d   1      14.429  15.710  -3.303  0.00  0.00     0.094 A 
ATOM      7  C   UNL d   1      13.393  12.958  -3.762  0.00  0.00     0.152 A 
ATOM      8  C   UNL d   1      13.561  14.136  -4.559  0.00  0.00     0.269 A 
ATOM      9  C   UNL d   1      14.501  15.319  -2.580  0.00  0.00     0.175 A 
ATOM     10  C   UNL d   1      14.117  15.322  -3.967  0.00  0.00     0.016 A 
ATOM     11  C   UNL d   1      13.154  12.174  -3.691  0.00  0.00     0.035 A 
ATOM     12  C   UNL d   1      13.009  12.962  -5.149  0.00  0.00     0.084 A 
ATOM     13  N   UNL d   1      14.812  15.712  -1.928  0.00  0.00    -0.128 N 
ATOM     14  O   UNL d   1      13.491  14.538  -5.286  0.00  0.00    -0.266 OA
ATOM     15  C   UNL d   1      12.770  12.171  -5.068  0.00  0.00     0.019 A 
ATOM     16  C   UNL d   1      12.842  11.780  -4.345  0.00  0.00     0.005 A 
ATOM     17  C   UNL d   1      13.225  11.785  -2.973  0.00  0.00     0.003 C 
ENDROOT
BRANCH   6  18
ATOM     18  C   UNL d   1      14.673  16.505  -3.369  0.00  0.00     0.282 C 
ATOM     19  N   UNL d   1      14.623  16.888  -4.097  0.00  0.00    -0.204 NA
ATOM     20  O   UNL d   1      14.963  16.899  -2.705  0.00  0.00    -0.265 OA
BRANCH  19  21
ATOM     21  C   UNL d   1      14.864  17.674  -4.162  0.00  0.00     0.127 C 
BRANCH  21  22
ATOM     22  C   UNL d   1      14.697  18.104  -4.843  0.00  0.00     0.119 A 
ATOM     23  O   UNL d   1      15.172  18.695  -5.169  0.00  0.00    -0.304 OA
ATOM     24  C   UNL d   1      14.801  18.981  -5.847  0.00  0.00     0.123 A 
ATOM     25  C   UNL d   1      14.092  18.567  -5.944  0.00  0.00     0.029 A 
ATOM     26  C   UNL d   1      14.034  18.024  -5.316  0.00  0.00     0.028 A 
ENDBRANCH  21  22
ENDBRANCH  19  21
ENDBRANCH   6  18
BRANCH   5  27
ATOM     27  C   UNL d   1      14.327  14.139  -1.803  0.00  0.00     0.110 C 
BRANCH  27  28
ATOM     28  C   UNL d   1      14.903  14.380  -1.260  0.00  0.00     0.142 C 
BRANCH  28  29
ATOM     29  O   UNL d   1      15.365  13.821  -0.866  0.00  0.00    -0.298 OA
BRANCH  29  30
ATOM     30  C   UNL d   1      15.060  13.436  -0.205  0.00  0.00     0.168 C 
BRANCH  30  31
ATOM     31  C   UNL d   1      15.306  12.670  -0.015  0.00  0.00     0.261 C 
ATOM     32  O   UNL d   1      15.431  12.120  -0.618  0.00  0.00    -0.281 OA
ENDBRANCH  30  31
ENDBRANCH  29  30
ENDBRANCH  28  29
ENDBRANCH  27  28
ENDBRANCH   5  27
TORSDOF 8
ENDMDL
MODEL 2
REMARK VINA RESULT:      62.4      1.475      3.431
REMARK  8 active torsions:
REMARK  status: ('A' for Active; 'I' for Inactive)
REMARK    1  A    between atoms: C_25  and  N_5 
REMARK    2  A    between atoms: C_11  and  C_6 
REMARK       I    between atoms: N_15  and  C_11 
REMARK    3  A    between atoms: C_26  and  N_15 
REMARK    4  A    between atoms: C_17  and  C_26 
REMARK    5  A    between atoms: C_30  and  C_25 
REMARK    6  A    between atoms: O_29  and  C_30 
REMARK    7  A    between atoms: C_32  and  O_29 
REMARK    8  A    between atoms: C_31  and  C_32 
ROOT
ATOM      1  C   UNL d   1      14.460  15.524  -3.102  0.00  0.00     0.155 A 
ATOM      2  C   UNL d   1      14.742  16.297  -3.163  0.00  0.00     0.091 A 
ATOM      3  N   UNL d   1      14.490  15.129  -2.373  0.00  0.00    -0.210 NA
ATOM      4  N   UNL d   1      15.084  16.281  -1.771  0.00  0.00    -0.258 N 
ATOM      5  N   UNL d   1      14.150  15.145  -3.757  0.00  0.00    -0.272 N 
ATOM      6  C   UNL d   1      14.397  16.300  -4.551  0.00  0.00     0.094 A 
ATOM      7  C   UNL d   1      14.801  15.508  -1.711  0.00  0.00     0.152 A 
ATOM      8  C   UNL d   1      15.057  16.679  -2.495  0.00  0.00     0.269 A 
ATOM      9  C   UNL d   1      14.114  15.527  -4.490  0.00  0.00     0.175 A 
ATOM     10  C   UNL d   1      14.713  16.690  -3.890  0.00  0.00     0.016 A 
ATOM     11  C   UNL d   1      14.830  15.114  -0.989  0.00  0.00     0.035 A 
ATOM     12  C   UNL d   1      15.399  16.671  -1.111  0.00  0.00     0.084 A 
ATOM     13  N   UNL d   1      13.803  15.149  -5.151  0.00  0.00    -0.128 N 
ATOM     14  O   UNL d   1      15.340  17.459  -2.564  0.00  0.00    -0.266 OA
ATOM     15  C   UNL d   1      15.424  16.265  -0.388  0.00  0.00     0.019 A 
ATOM     16  C   UNL d   1      15.141  15.493  -0.327  0.00  0.00     0.005 A 
ATOM     17  C   UNL d   1      14.549  14.346  -0.929  0.00  0.00     0.003 C 
ENDROOT
BRANCH   6  18
ATOM     18  C   UNL d   1      14.366  16.695  -5.285  0.00  0.00     0.282 C 
ATOM     19  N   UNL d   1      14.144  17.488  -5.312  0.00  0.00    -0.204 NA
ATOM     20  O   UNL d   1      14.556  16.287  -5.976  0.00  0.00    -0.265 OA
BRANCH  19  21
ATOM     21  C   UNL d   1      14.113  17.878  -6.038  0.00  0.00     0.127 C 
BRANCH  21  22
ATOM     22  C   UNL d   1      13.979  18.689  -6.067  0.00  0.00     0.119 A 
ATOM     23  O   UNL d   1      14.538  19.277  -5.918  0.00  0.00    -0.304 OA
ATOM     24  C   UNL d   1      14.173  20.011  -6.008  0.00  0.00     0.123 A 
ATOM     25  C   UNL d   1      13.383  19.880  -6.214  0.00  0.00     0.029 A 
ATOM     26  C   UNL d   1      13.270  19.056  -6.248  0.00  0.00     0.028 A 
ENDBRANCH  21  22
ENDBRANCH  19  21
ENDBRANCH   6  18
BRANCH   5  27
ATOM     27  C   UNL d   1      13.868  14.372  -3.696  0.00  0.00     0.110 C 
BRANCH  27  28
ATOM     28  C   UNL d   1      13.213  14.136  -4.144  0.00  0.00     0.142 C 
BRANCH  28  29
ATOM     29  O   UNL d   1      13.161  13.365  -4.433  0.00  0.00    -0.298 OA
BRANCH  29  30
ATOM     30  C   UNL d   1      12.769  12.792  -3.991  0.00  0.00     0.168 C 
BRANCH  30  31
ATOM     31  C   UNL d   1      12.825  11.992  -4.195  0.00  0.00     0.261 C 
ATOM     32  O   UNL d   1      13.121  11.781  -4.936  0.00  0.00    -0.281 OA
ENDBRANCH  30  31
ENDBRANCH  29  30
ENDBRANCH  28  29
ENDBRANCH  27  28
ENDBRANCH   5  27
TORSDOF 8
ENDMDL
MODEL 3
REMARK VINA RESULT:      63.5      1.318      2.039
REMARK  8 active torsions:
REMARK  status: ('A' for Active; 'I' for Inactive)
REMARK    1  A    between atoms: C_25  and  N_5 
REMARK    2  A    between atoms: C_11  and  C_6 
REMARK       I    between atoms: N_15  and  C_11 
REMARK    3  A    between atoms: C_26  and  N_15 
REMARK    4  A    between atoms: C_17  and  C_26 
REMARK    5  A    between atoms: C_30  and  C_25 
REMARK    6  A    between atoms: O_29  and  C_30 
REMARK    7  A    between atoms: C_32  and  O_29 
REMARK    8  A    between atoms: C_31  and  C_32 
ROOT
ATOM      1  C   UNL d   1      14.054  14.532  -3.689  0.00  0.00     0.155 A 
ATOM      2  C   UNL d   1      13.636  14.292  -4.359  0.00  0.00     0.091 A 
ATOM      3  N   UNL d   1      14.124  14.019  -3.040  0.00  0.00    -0.210 NA
ATOM      4  N   UNL d   1      13.359  13.032  -3.735  0.00  0.00    -0.258 N 
ATOM      5  N   UNL d   1      14.399  15.272  -3.661  0.00  0.00    -0.272 N 
ATOM      6  C   UNL d   1      13.919  15.553  -4.971  0.00  0.00     0.094 A 
ATOM      7  C   UNL d   1      13.777  13.272  -3.065  0.00  0.00     0.152 A 
ATOM      8  C   UNL d   1      13.286  13.538  -4.384  0.00  0.00     0.269 A 
ATOM      9  C   UNL d   1      14.337  15.793  -4.301  0.00  0.00     0.175 A 
ATOM     10  C   UNL d   1      13.566  14.803  -5.006  0.00  0.00     0.016 A 
ATOM     11  C   UNL d   1      13.849  12.767  -2.420  0.00  0.00     0.035 A 
ATOM     12  C   UNL d   1      13.007  12.283  -3.770  0.00  0.00     0.084 A 
ATOM     13  N   UNL d   1      14.683  16.539  -4.277  0.00  0.00    -0.128 N 
ATOM     14  O   UNL d   1      12.866  13.303  -5.064  0.00  0.00    -0.266 OA
ATOM     15  C   UNL d   1      13.084  11.780  -3.114  0.00  0.00     0.019 A 
ATOM     16  C   UNL d   1      13.502  12.020  -2.444  0.00  0.00     0.005 A 
ATOM     17  C   UNL d   1      14.264  13.005  -1.754  0.00  0.00     0.003 C 
ENDROOT
BRANCH   6  18
ATOM     18  C   UNL d   1      13.850  16.071  -5.622  0.00  0.00     0.282 C 
ATOM     19  N   UNL d   1      13.792  16.882  -5.493  0.00  0.00    -0.204 NA
ATOM     20  O   UNL d   1      13.841  15.764  -6.388  0.00  0.00    -0.265 OA
BRANCH  19  21
ATOM     21  C   UNL d   1      13.724  17.394  -6.136  0.00  0.00     0.127 C 
BRANCH  21  22
ATOM     22  C   UNL d   1      13.806  18.206  -6.031  0.00  0.00     0.119 A 
ATOM     23  O   UNL d   1      14.411  18.580  -5.613  0.00  0.00    -0.304 OA
ATOM     24  C   UNL d   1      14.284  19.394  -5.646  0.00  0.00     0.123 A 
ATOM     25  C   UNL d   1      13.597  19.527  -6.086  0.00  0.00     0.029 A 
ATOM     26  C   UNL d   1      13.306  18.785  -6.322  0.00  0.00     0.028 A 
ENDBRANCH  21  22
ENDBRANCH  19  21
ENDBRANCH   6  18
BRANCH   5  27
ATOM     27  C   UNL d   1      14.817  15.512  -2.991  0.00  0.00     0.110 C 
BRANCH  27  28
ATOM     28  C   UNL d   1      14.652  16.244  -2.643  0.00  0.00     0.142 C 
BRANCH  28  29
ATOM     29  O   UNL d   1      14.642  16.323  -1.822  0.00  0.00    -0.298 OA
BRANCH  29  30
ATOM     30  C   UNL d   1      15.297  16.639  -1.436  0.00  0.00     0.168 C 
BRANCH  30  31
ATOM     31  C   UNL d   1      15.600  16.278  -0.757  0.00  0.00     0.261 C 
ATOM     32  O   UNL d   1      15.088  16.059  -0.148  0.00  0.00    -0.281 OA
ENDBRANCH  30  31
ENDBRANCH  29  30
ENDBRANCH  28  29
ENDBRANCH  27  28
ENDBRANCH   5  27
TORSDOF 8
ENDMDL
