MODEL 1
REMARK VINA RESULT:       6.2      0.000      0.000
REMARK  2 active torsions:
REMARK  status: ('A' for Active; 'I' for Inactive)
REMARK    1  A    between atoms: C_5  and  N_1 
REMARK    2  A    between atoms: C_7  and  C_5 
ROOT
ATOM      1  N   UNL d   1      24.534  13.355  -1.574  0.00  0.00    -0.288 N 
ATOM      2  C   UNL d   1      24.525  14.124  -1.288  0.00  0.00     0.183 A 
ATOM      3  N   UNL d   1      23.981  14.146  -0.638  0.00  0.00    -0.224 NA
ATOM      4  C   UNL d   1      24.029  12.901  -1.141  0.00  0.00     0.083 A 
ATOM      5  C   UNL d   1      23.678  13.404  -0.546  0.00  0.00     0.099 A 
ATOM      6  C   UNL d   1      23.822  12.105  -1.182  0.00  0.00     0.019 A 
ATOM      7  C   UNL d   1      23.128  13.051  -0.023  0.00  0.00     0.021 A 
ATOM      8  C   UNL d   1      23.275  11.792  -0.648  0.00  0.00     0.002 A 
ATOM      9  C   UNL d   1      22.936  12.277  -0.074  0.00  0.00     0.002 A 
ENDROOT
BRANCH   1  10
ATOM     10  C   UNL d   1      24.597  12.633  -1.908  0.00  0.00     0.066 C 
ATOM     11  C   UNL d   1      24.612  11.950  -1.446  0.00  0.00     0.019 C 
BRANCH  10  12
ATOM     12  C   UNL d   1      24.649  12.577  -2.729  0.00  0.00     0.016 A 
ATOM     13  C   UNL d   1      24.673  11.836  -3.091  0.00  0.00     0.001 A 
ATOM     14  C   UNL d   1      24.725  11.779  -3.913  0.00  0.00     0.000 A 
ATOM     15  C   UNL d   1      24.752  12.466  -4.377  0.00  0.00     0.000 A 
ATOM     16  C   UNL d   1      24.727  13.207  -4.015  0.00  0.00     0.000 A 
ATOM     17  C   UNL d   1      24.676  13.261  -3.190  0.00  0.00     0.001 A 
ENDBRANCH  10  12
ENDBRANCH   1  10
TORSDOF 2
ENDMDL
