MODEL 1
REMARK VINA RESULT:      -3.5      0.000      0.000
REMARK  3 active torsions:
REMARK  status: ('A' for Active; 'I' for Inactive)
REMARK    1  A    between atoms: S_3  and  N_1 
REMARK    2  A    between atoms: C_5  and  C_4 
REMARK    3  A    between atoms: C_11  and  C_6 
ROOT
ATOM      1  N   UNL d   1      58.284  -0.388  29.600  0.00  0.00    -0.155 N 
ATOM      2  N   UNL d   1      58.612  -0.922  29.078  0.00  0.00    -0.153 NA
ATOM      3  C   UNL d   1      58.279  -0.722  30.338  0.00  0.00     0.098 A 
ATOM      4  C   UNL d   1      58.809  -1.591  29.503  0.00  0.00     0.126 A 
ATOM      5  C   UNL d   1      58.607  -1.476  30.282  0.00  0.00     0.043 A 
ENDROOT
BRANCH   3   6
ATOM      6  C   UNL d   1      57.996  -0.372  31.029  0.00  0.00     0.047 A 
ATOM      7  C   UNL d   1      58.474   0.151  31.453  0.00  0.00     0.140 A 
ATOM      8  N   UNL d   1      58.189   0.501  32.146  0.00  0.00    -0.234 NA
ATOM      9 CL   UNL d   1      59.234   0.324  31.185  0.00  0.00    -0.061 Cl
ATOM     10  C   UNL d   1      57.428   0.329  32.414  0.00  0.00     0.082 A 
ATOM     11  C   UNL d   1      56.950  -0.195  31.991  0.00  0.00     0.018 A 
ATOM     12  C   UNL d   1      57.144   0.678  33.105  0.00  0.00     0.019 A 
ATOM     13  C   UNL d   1      57.233  -0.545  31.299  0.00  0.00     0.005 A 
ATOM     14  C   UNL d   1      56.189  -0.368  32.259  0.00  0.00     0.002 A 
ATOM     15  C   UNL d   1      55.927  -0.022  32.930  0.00  0.00     0.000 A 
ATOM     16  C   UNL d   1      56.405   0.502  33.354  0.00  0.00     0.002 A 
ATOM     17  C   UNL d   1      55.166  -0.194  33.199  0.00  0.00     0.000 C 
ENDBRANCH   3   6
BRANCH   1  18
ATOM     18  S   UNL d   1      58.164   0.172  29.016  0.00  0.00     0.266 S 
ATOM     19  O   UNL d   1      58.789   0.581  28.684  0.00  0.00    -0.203 OA
ATOM     20  O   UNL d   1      57.348   0.184  28.895  0.00  0.00    -0.203 OA
ATOM     21  C   UNL d   1      57.838   0.682  28.456  0.00  0.00     0.165 C 
ENDBRANCH   1  18
BRANCH   4  22
ATOM     22  C   UNL d   1      59.152  -2.264  29.198  0.00  0.00     0.119 A 
ATOM     23  O   UNL d   1      59.941  -2.403  29.067  0.00  0.00    -0.304 OA
ATOM     24  C   UNL d   1      60.037  -3.150  28.756  0.00  0.00     0.123 A 
ATOM     25  C   UNL d   1      59.301  -3.493  28.687  0.00  0.00     0.029 A 
ATOM     26  C   UNL d   1      58.740  -2.958  28.956  0.00  0.00     0.028 A 
ENDBRANCH   4  22
TORSDOF 3
ENDMDL
