MODEL 1
REMARK VINA RESULT:      -7.4      0.000      0.000
REMARK  3 active torsions:
REMARK  status: ('A' for Active; 'I' for Inactive)
REMARK       I    between atoms: C_6  and  N_9 
REMARK    1  A    between atoms: C_7  and  C_6 
REMARK    2  A    between atoms: N_9  and  C_17 
REMARK    3  A    between atoms: C_17  and  C_16 
ROOT
ATOM      1  N   UNL d   1      49.393  34.900  52.523  0.00  0.00    -0.304 N 
ATOM      2  C   UNL d   1      49.236  34.699  51.742  0.00  0.00     0.064 A 
ATOM      3  C   UNL d   1      50.127  34.590  52.726  0.00  0.00     0.064 A 
ATOM      4  C   UNL d   1      50.421  34.196  52.065  0.00  0.00     0.018 A 
ATOM      5  C   UNL d   1      49.874  34.264  51.462  0.00  0.00     0.019 A 
ATOM      6  C   UNL d   1      50.560  34.617  53.425  0.00  0.00     0.018 A 
ATOM      7  C   UNL d   1      51.164  33.822  52.104  0.00  0.00     0.003 A 
ATOM      8  C   UNL d   1      51.600  33.848  52.805  0.00  0.00     0.019 A 
ATOM      9  C   UNL d   1      51.297  34.247  53.468  0.00  0.00     0.003 A 
ATOM     10  C   UNL d   1      48.902  35.338  53.020  0.00  0.00     0.099 C 
ATOM     11  C   UNL d   1      48.561  34.897  51.314  0.00  0.00     0.019 C 
ENDROOT
BRANCH   8  12
ATOM     12  C   UNL d   1      52.334  33.479  52.846  0.00  0.00     0.102 C 
BRANCH  12  13
ATOM     13  N   UNL d   1      52.389  32.681  53.006  0.00  0.00    -0.206 NA
ATOM     14  C   UNL d   1      53.117  32.315  53.080  0.00  0.00     0.285 C 
ATOM     15  O   UNL d   1      53.806  32.757  52.992  0.00  0.00    -0.265 OA
BRANCH  14  16
ATOM     16  C   UNL d   1      53.173  31.507  53.242  0.00  0.00     0.087 A 
ATOM     17  S   UNL d   1      53.619  31.155  53.841  0.00  0.00    -0.082 SA
ATOM     18  C   UNL d   1      53.508  30.343  53.793  0.00  0.00     0.036 A 
ATOM     19  C   UNL d   1      52.992  30.179  53.164  0.00  0.00     0.008 A 
ATOM     20  C   UNL d   1      52.788  30.904  52.826  0.00  0.00     0.012 A 
ENDBRANCH  14  16
ENDBRANCH  12  13
ENDBRANCH   8  12
TORSDOF 3
ENDMDL
MODEL 2
REMARK VINA RESULT:      -7.3      2.270      4.851
REMARK  3 active torsions:
REMARK  status: ('A' for Active; 'I' for Inactive)
REMARK       I    between atoms: C_6  and  N_9 
REMARK    1  A    between atoms: C_7  and  C_6 
REMARK    2  A    between atoms: N_9  and  C_17 
REMARK    3  A    between atoms: C_17  and  C_16 
ROOT
ATOM      1  N   UNL d   1      53.405  33.545  54.120  0.00  0.00    -0.304 N 
ATOM      2  C   UNL d   1      53.433  32.736  53.983  0.00  0.00     0.064 A 
ATOM      3  C   UNL d   1      52.739  33.847  53.744  0.00  0.00     0.064 A 
ATOM      4  C   UNL d   1      52.357  33.217  53.374  0.00  0.00     0.018 A 
ATOM      5  C   UNL d   1      52.784  32.536  53.521  0.00  0.00     0.019 A 
ATOM      6  C   UNL d   1      52.434  34.609  53.692  0.00  0.00     0.018 A 
ATOM      7  C   UNL d   1      51.656  33.354  52.944  0.00  0.00     0.003 A 
ATOM      8  C   UNL d   1      51.350  34.118  52.891  0.00  0.00     0.019 A 
ATOM      9  C   UNL d   1      51.741  34.749  53.267  0.00  0.00     0.003 A 
ATOM     10  C   UNL d   1      53.948  33.983  54.558  0.00  0.00     0.099 C 
ATOM     11  C   UNL d   1      54.009  32.215  54.258  0.00  0.00     0.019 C 
ENDROOT
BRANCH   8  12
ATOM     12  C   UNL d   1      50.659  34.256  52.467  0.00  0.00     0.102 C 
BRANCH  12  13
ATOM     13  N   UNL d   1      50.067  34.724  52.778  0.00  0.00    -0.206 NA
ATOM     14  C   UNL d   1      49.377  34.862  52.363  0.00  0.00     0.285 C 
ATOM     15  O   UNL d   1      49.275  34.524  51.618  0.00  0.00    -0.265 OA
BRANCH  14  16
ATOM     16  C   UNL d   1      48.777  35.335  52.677  0.00  0.00     0.087 A 
ATOM     17  S   UNL d   1      48.097  35.591  52.287  0.00  0.00    -0.082 SA
ATOM     18  C   UNL d   1      47.662  36.047  52.813  0.00  0.00     0.036 A 
ATOM     19  C   UNL d   1      48.065  36.081  53.537  0.00  0.00     0.008 A 
ATOM     20  C   UNL d   1      48.756  35.638  53.447  0.00  0.00     0.012 A 
ENDBRANCH  14  16
ENDBRANCH  12  13
ENDBRANCH   8  12
TORSDOF 3
ENDMDL
MODEL 3
REMARK VINA RESULT:      -7.1      1.271      1.662
REMARK  3 active torsions:
REMARK  status: ('A' for Active; 'I' for Inactive)
REMARK       I    between atoms: C_6  and  N_9 
REMARK    1  A    between atoms: C_7  and  C_6 
REMARK    2  A    between atoms: N_9  and  C_17 
REMARK    3  A    between atoms: C_17  and  C_16 
ROOT
ATOM      1  N   UNL d   1      49.429  34.824  52.457  0.00  0.00    -0.304 N 
ATOM      2  C   UNL d   1      49.319  34.669  51.658  0.00  0.00     0.064 A 
ATOM      3  C   UNL d   1      50.134  34.475  52.694  0.00  0.00     0.064 A 
ATOM      4  C   UNL d   1      50.459  34.103  52.034  0.00  0.00     0.018 A 
ATOM      5  C   UNL d   1      49.959  34.223  51.400  0.00  0.00     0.019 A 
ATOM      6  C   UNL d   1      50.518  34.449  53.421  0.00  0.00     0.018 A 
ATOM      7  C   UNL d   1      51.184  33.697  52.104  0.00  0.00     0.003 A 
ATOM      8  C   UNL d   1      51.570  33.670  52.833  0.00  0.00     0.019 A 
ATOM      9  C   UNL d   1      51.236  34.048  53.494  0.00  0.00     0.003 A 
ATOM     10  C   UNL d   1      48.921  35.256  52.942  0.00  0.00     0.099 C 
ATOM     11  C   UNL d   1      48.684  34.916  51.196  0.00  0.00     0.019 C 
ENDROOT
BRANCH   8  12
ATOM     12  C   UNL d   1      52.285  33.270  52.905  0.00  0.00     0.102 C 
BRANCH  12  13
ATOM     13  N   UNL d   1      52.781  33.417  53.535  0.00  0.00    -0.206 NA
ATOM     14  C   UNL d   1      53.487  33.012  53.620  0.00  0.00     0.285 C 
ATOM     15  O   UNL d   1      53.700  32.445  53.060  0.00  0.00    -0.265 OA
BRANCH  14  16
ATOM     16  C   UNL d   1      53.990  33.160  54.257  0.00  0.00     0.087 A 
ATOM     17  S   UNL d   1      53.948  32.817  55.006  0.00  0.00    -0.082 SA
ATOM     18  C   UNL d   1      54.558  33.128  55.460  0.00  0.00     0.036 A 
ATOM     19  C   UNL d   1      54.986  33.669  54.999  0.00  0.00     0.008 A 
ATOM     20  C   UNL d   1      54.630  33.685  54.254  0.00  0.00     0.012 A 
ENDBRANCH  14  16
ENDBRANCH  12  13
ENDBRANCH   8  12
TORSDOF 3
ENDMDL
MODEL 4
REMARK VINA RESULT:      -6.9      2.037      2.995
REMARK  3 active torsions:
REMARK  status: ('A' for Active; 'I' for Inactive)
REMARK       I    between atoms: C_6  and  N_9 
REMARK    1  A    between atoms: C_7  and  C_6 
REMARK    2  A    between atoms: N_9  and  C_17 
REMARK    3  A    between atoms: C_17  and  C_16 
ROOT
ATOM      1  N   UNL d   1      52.367  34.535  53.702  0.00  0.00    -0.304 N 
ATOM      2  C   UNL d   1      53.048  34.735  54.114  0.00  0.00     0.064 A 
ATOM      3  C   UNL d   1      52.429  33.749  53.466  0.00  0.00     0.064 A 
ATOM      4  C   UNL d   1      53.155  33.467  53.737  0.00  0.00     0.018 A 
ATOM      5  C   UNL d   1      53.533  34.073  54.134  0.00  0.00     0.019 A 
ATOM      6  C   UNL d   1      51.921  33.260  53.043  0.00  0.00     0.018 A 
ATOM      7  C   UNL d   1      53.375  32.679  53.581  0.00  0.00     0.003 A 
ATOM      8  C   UNL d   1      52.867  32.187  53.157  0.00  0.00     0.019 A 
ATOM      9  C   UNL d   1      52.136  32.479  52.887  0.00  0.00     0.003 A 
ATOM     10  C   UNL d   1      51.728  35.032  53.547  0.00  0.00     0.099 C 
ATOM     11  C   UNL d   1      53.217  35.469  54.449  0.00  0.00     0.019 C 
ENDROOT
BRANCH   8  12
ATOM     12  C   UNL d   1      53.082  31.408  53.001  0.00  0.00     0.102 C 
BRANCH  12  13
ATOM     13  N   UNL d   1      53.166  30.871  53.610  0.00  0.00    -0.206 NA
ATOM     14  C   UNL d   1      53.196  30.068  53.462  0.00  0.00     0.285 C 
ATOM     15  O   UNL d   1      53.142  29.794  52.686  0.00  0.00    -0.265 OA
BRANCH  14  16
ATOM     16  C   UNL d   1      53.281  29.524  54.077  0.00  0.00     0.087 A 
ATOM     17  S   UNL d   1      53.769  28.858  54.081  0.00  0.00    -0.082 SA
ATOM     18  C   UNL d   1      53.674  28.482  54.805  0.00  0.00     0.036 A 
ATOM     19  C   UNL d   1      53.127  28.908  55.260  0.00  0.00     0.008 A 
ATOM     20  C   UNL d   1      52.886  29.553  54.804  0.00  0.00     0.012 A 
ENDBRANCH  14  16
ENDBRANCH  12  13
ENDBRANCH   8  12
TORSDOF 3
ENDMDL
MODEL 5
REMARK VINA RESULT:      -6.8      1.519      4.694
REMARK  3 active torsions:
REMARK  status: ('A' for Active; 'I' for Inactive)
REMARK       I    between atoms: C_6  and  N_9 
REMARK    1  A    between atoms: C_7  and  C_6 
REMARK    2  A    between atoms: N_9  and  C_17 
REMARK    3  A    between atoms: C_17  and  C_16 
ROOT
ATOM      1  N   UNL d   1      53.465  30.060  53.820  0.00  0.00    -0.304 N 
ATOM      2  C   UNL d   1      52.938  29.661  53.334  0.00  0.00     0.064 A 
ATOM      3  C   UNL d   1      53.375  30.867  53.689  0.00  0.00     0.064 A 
ATOM      4  C   UNL d   1      52.789  30.961  53.118  0.00  0.00     0.018 A 
ATOM      5  C   UNL d   1      52.521  30.221  52.901  0.00  0.00     0.019 A 
ATOM      6  C   UNL d   1      53.751  31.522  54.016  0.00  0.00     0.018 A 
ATOM      7  C   UNL d   1      52.575  31.727  52.868  0.00  0.00     0.003 A 
ATOM      8  C   UNL d   1      52.951  32.385  53.195  0.00  0.00     0.019 A 
ATOM      9  C   UNL d   1      53.542  32.282  53.772  0.00  0.00     0.003 A 
ATOM     10  C   UNL d   1      53.994  29.716  54.351  0.00  0.00     0.099 C 
ATOM     11  C   UNL d   1      52.841  28.844  53.286  0.00  0.00     0.019 C 
ENDROOT
BRANCH   8  12
ATOM     12  C   UNL d   1      52.742  33.142  52.951  0.00  0.00     0.102 C 
BRANCH  12  13
ATOM     13  N   UNL d   1      51.957  33.346  52.859  0.00  0.00    -0.206 NA
ATOM     14  C   UNL d   1      51.739  34.116  52.691  0.00  0.00     0.285 C 
ATOM     15  O   UNL d   1      52.319  34.696  52.613  0.00  0.00    -0.265 OA
BRANCH  14  16
ATOM     16  C   UNL d   1      50.945  34.324  52.598  0.00  0.00     0.087 A 
ATOM     17  S   UNL d   1      50.428  34.570  53.192  0.00  0.00    -0.082 SA
ATOM     18  C   UNL d   1      49.698  34.717  52.845  0.00  0.00     0.036 A 
ATOM     19  C   UNL d   1      49.752  34.564  52.032  0.00  0.00     0.008 A 
ATOM     20  C   UNL d   1      50.527  34.321  51.883  0.00  0.00     0.012 A 
ENDBRANCH  14  16
ENDBRANCH  12  13
ENDBRANCH   8  12
TORSDOF 3
ENDMDL
MODEL 6
REMARK VINA RESULT:      -6.5      1.987      2.786
REMARK  3 active torsions:
REMARK  status: ('A' for Active; 'I' for Inactive)
REMARK       I    between atoms: C_6  and  N_9 
REMARK    1  A    between atoms: C_7  and  C_6 
REMARK    2  A    between atoms: N_9  and  C_17 
REMARK    3  A    between atoms: C_17  and  C_16 
ROOT
ATOM      1  N   UNL d   1      47.736  35.814  52.190  0.00  0.00    -0.304 N 
ATOM      2  C   UNL d   1      47.701  36.127  52.949  0.00  0.00     0.064 A 
ATOM      3  C   UNL d   1      48.410  35.346  52.135  0.00  0.00     0.064 A 
ATOM      4  C   UNL d   1      48.790  35.373  52.866  0.00  0.00     0.018 A 
ATOM      5  C   UNL d   1      48.354  35.852  53.364  0.00  0.00     0.019 A 
ATOM      6  C   UNL d   1      48.723  34.903  51.517  0.00  0.00     0.018 A 
ATOM      7  C   UNL d   1      49.498  34.947  52.980  0.00  0.00     0.003 A 
ATOM      8  C   UNL d   1      49.812  34.502  52.360  0.00  0.00     0.019 A 
ATOM      9  C   UNL d   1      49.423  34.480  51.625  0.00  0.00     0.003 A 
ATOM     10  C   UNL d   1      47.192  35.944  51.585  0.00  0.00     0.099 C 
ATOM     11  C   UNL d   1      47.116  36.627  53.243  0.00  0.00     0.019 C 
ENDROOT
BRANCH   8  12
ATOM     12  C   UNL d   1      50.510  34.081  52.469  0.00  0.00     0.102 C 
BRANCH  12  13
ATOM     13  N   UNL d   1      51.088  34.359  52.974  0.00  0.00    -0.206 NA
ATOM     14  C   UNL d   1      51.806  33.974  53.046  0.00  0.00     0.285 C 
ATOM     15  O   UNL d   1      51.949  33.293  52.604  0.00  0.00    -0.265 OA
BRANCH  14  16
ATOM     16  C   UNL d   1      52.391  34.255  53.556  0.00  0.00     0.087 A 
ATOM     17  S   UNL d   1      52.757  33.834  54.164  0.00  0.00    -0.082 SA
ATOM     18  C   UNL d   1      53.302  34.333  54.523  0.00  0.00     0.036 A 
ATOM     19  C   UNL d   1      53.282  35.070  54.143  0.00  0.00     0.008 A 
ATOM     20  C   UNL d   1      52.716  35.016  53.544  0.00  0.00     0.012 A 
ENDBRANCH  14  16
ENDBRANCH  12  13
ENDBRANCH   8  12
TORSDOF 3
ENDMDL
MODEL 7
REMARK VINA RESULT:      -5.6      9.938     10.535
REMARK  3 active torsions:
REMARK  status: ('A' for Active; 'I' for Inactive)
REMARK       I    between atoms: C_6  and  N_9 
REMARK    1  A    between atoms: C_7  and  C_6 
REMARK    2  A    between atoms: N_9  and  C_17 
REMARK    3  A    between atoms: C_17  and  C_16 
ROOT
ATOM      1  N   UNL d   1      44.871  29.404  56.983  0.00  0.00    -0.304 N 
ATOM      2  C   UNL d   1      44.646  30.072  56.562  0.00  0.00     0.064 A 
ATOM      3  C   UNL d   1      44.917  29.602  57.779  0.00  0.00     0.064 A 
ATOM      4  C   UNL d   1      44.718  30.399  57.846  0.00  0.00     0.018 A 
ATOM      5  C   UNL d   1      44.552  30.686  57.100  0.00  0.00     0.019 A 
ATOM      6  C   UNL d   1      45.113  29.162  58.446  0.00  0.00     0.018 A 
ATOM      7  C   UNL d   1      44.715  30.762  58.597  0.00  0.00     0.003 A 
ATOM      8  C   UNL d   1      44.911  30.321  59.266  0.00  0.00     0.019 A 
ATOM      9  C   UNL d   1      45.111  29.517  59.190  0.00  0.00     0.003 A 
ATOM     10  C   UNL d   1      45.026  28.659  56.665  0.00  0.00     0.099 C 
ATOM     11  C   UNL d   1      44.534  30.121  55.748  0.00  0.00     0.019 C 
ENDROOT
BRANCH   8  12
ATOM     12  C   UNL d   1      44.909  30.677  60.008  0.00  0.00     0.102 C 
BRANCH  12  13
ATOM     13  N   UNL d   1      44.810  30.230  60.683  0.00  0.00    -0.206 NA
ATOM     14  C   UNL d   1      44.739  30.583  61.416  0.00  0.00     0.285 C 
ATOM     15  O   UNL d   1      44.767  31.405  61.477  0.00  0.00    -0.265 OA
BRANCH  14  16
ATOM     16  C   UNL d   1      44.638  30.131  62.100  0.00  0.00     0.087 A 
ATOM     17  S   UNL d   1      44.314  30.386  62.815  0.00  0.00    -0.082 SA
ATOM     18  C   UNL d   1      44.325  29.751  63.336  0.00  0.00     0.036 A 
ATOM     19  C   UNL d   1      44.655  29.094  62.952  0.00  0.00     0.008 A 
ATOM     20  C   UNL d   1      44.847  29.335  62.186  0.00  0.00     0.012 A 
ENDBRANCH  14  16
ENDBRANCH  12  13
ENDBRANCH   8  12
TORSDOF 3
ENDMDL
MODEL 8
REMARK VINA RESULT:      -5.3      9.934     10.824
REMARK  3 active torsions:
REMARK  status: ('A' for Active; 'I' for Inactive)
REMARK       I    between atoms: C_6  and  N_9 
REMARK    1  A    between atoms: C_7  and  C_6 
REMARK    2  A    between atoms: N_9  and  C_17 
REMARK    3  A    between atoms: C_17  and  C_16 
ROOT
ATOM      1  N   UNL d   1      44.725  25.973  57.328  0.00  0.00    -0.304 N 
ATOM      2  C   UNL d   1      44.799  25.640  58.075  0.00  0.00     0.064 A 
ATOM      3  C   UNL d   1      44.856  26.782  57.393  0.00  0.00     0.064 A 
ATOM      4  C   UNL d   1      45.010  26.945  58.186  0.00  0.00     0.018 A 
ATOM      5  C   UNL d   1      44.975  26.243  58.603  0.00  0.00     0.019 A 
ATOM      6  C   UNL d   1      44.853  27.386  56.835  0.00  0.00     0.018 A 
ATOM      7  C   UNL d   1      45.165  27.728  58.424  0.00  0.00     0.003 A 
ATOM      8  C   UNL d   1      45.163  28.335  57.865  0.00  0.00     0.019 A 
ATOM      9  C   UNL d   1      45.007  28.163  57.066  0.00  0.00     0.003 A 
ATOM     10  C   UNL d   1      44.551  25.570  56.631  0.00  0.00     0.099 C 
ATOM     11  C   UNL d   1      44.711  24.842  58.264  0.00  0.00     0.019 C 
ENDROOT
BRANCH   8  12
ATOM     12  C   UNL d   1      45.316  29.109  58.098  0.00  0.00     0.102 C 
BRANCH  12  13
ATOM     13  N   UNL d   1      45.066  29.381  58.825  0.00  0.00    -0.206 NA
ATOM     14  C   UNL d   1      45.141  30.170  59.029  0.00  0.00     0.285 C 
ATOM     15  O   UNL d   1      45.476  30.699  58.493  0.00  0.00    -0.265 OA
BRANCH  14  16
ATOM     16  C   UNL d   1      44.888  30.446  59.764  0.00  0.00     0.087 A 
ATOM     17  S   UNL d   1      44.431  31.118  59.906  0.00  0.00    -0.082 SA
ATOM     18  C   UNL d   1      44.314  31.176  60.717  0.00  0.00     0.036 A 
ATOM     19  C   UNL d   1      44.697  30.541  61.090  0.00  0.00     0.008 A 
ATOM     20  C   UNL d   1      45.051  30.092  60.495  0.00  0.00     0.012 A 
ENDBRANCH  14  16
ENDBRANCH  12  13
ENDBRANCH   8  12
TORSDOF 3
ENDMDL
MODEL 9
REMARK VINA RESULT:      -5.3      9.467     10.467
REMARK  3 active torsions:
REMARK  status: ('A' for Active; 'I' for Inactive)
REMARK       I    between atoms: C_6  and  N_9 
REMARK    1  A    between atoms: C_7  and  C_6 
REMARK    2  A    between atoms: N_9  and  C_17 
REMARK    3  A    between atoms: C_17  and  C_16 
ROOT
ATOM      1  N   UNL d   1      44.649  25.699  57.468  0.00  0.00    -0.304 N 
ATOM      2  C   UNL d   1      44.815  25.790  56.669  0.00  0.00     0.064 A 
ATOM      3  C   UNL d   1      44.800  26.413  57.846  0.00  0.00     0.064 A 
ATOM      4  C   UNL d   1      45.061  26.945  57.273  0.00  0.00     0.018 A 
ATOM      5  C   UNL d   1      45.070  26.562  56.552  0.00  0.00     0.019 A 
ATOM      6  C   UNL d   1      44.734  26.644  58.633  0.00  0.00     0.018 A 
ATOM      7  C   UNL d   1      45.260  27.724  57.493  0.00  0.00     0.003 A 
ATOM      8  C   UNL d   1      45.194  27.957  58.282  0.00  0.00     0.019 A 
ATOM      9  C   UNL d   1      44.930  27.414  58.855  0.00  0.00     0.003 A 
ATOM     10  C   UNL d   1      44.377  25.011  57.833  0.00  0.00     0.099 C 
ATOM     11  C   UNL d   1      44.740  25.212  56.087  0.00  0.00     0.019 C 
ENDROOT
BRANCH   8  12
ATOM     12  C   UNL d   1      45.389  28.725  58.502  0.00  0.00     0.102 C 
BRANCH  12  13
ATOM     13  N   UNL d   1      45.059  29.364  58.117  0.00  0.00    -0.206 NA
ATOM     14  C   UNL d   1      45.196  30.128  58.373  0.00  0.00     0.285 C 
ATOM     15  O   UNL d   1      45.676  30.257  59.031  0.00  0.00    -0.265 OA
BRANCH  14  16
ATOM     16  C   UNL d   1      44.862  30.775  57.984  0.00  0.00     0.087 A 
ATOM     17  S   UNL d   1      44.625  31.487  58.328  0.00  0.00    -0.082 SA
ATOM     18  C   UNL d   1      44.325  31.966  57.732  0.00  0.00     0.036 A 
ATOM     19  C   UNL d   1      44.371  31.559  57.011  0.00  0.00     0.008 A 
ATOM     20  C   UNL d   1      44.704  30.821  57.173  0.00  0.00     0.012 A 
ENDBRANCH  14  16
ENDBRANCH  12  13
ENDBRANCH   8  12
TORSDOF 3
ENDMDL
