MODEL 1
REMARK VINA RESULT:      -3.5      0.000      0.000
REMARK  4 active torsions:
REMARK  status: ('A' for Active; 'I' for Inactive)
REMARK    1  A    between atoms: C_6  and  S_1 
REMARK    2  A    between atoms: N_12  and  S_1 
REMARK    3  A    between atoms: N_4  and  C_2 
REMARK       I    between atoms: C_7  and  N_4 
REMARK    4  A    between atoms: C_10  and  C_7 
ROOT
ATOM      1  C   UNL d   1      33.151  20.671 -21.932  0.00  0.00     0.197 A 
ATOM      2  N   UNL d   1      33.240  20.706 -22.751  0.00  0.00    -0.221 NA
ATOM      3  S   UNL d   1      32.957  19.896 -21.725  0.00  0.00    -0.047 SA
ATOM      4  C   UNL d   1      32.769  18.353 -23.326  0.00  0.00     0.105 A 
ATOM      5  C   UNL d   1      32.925  19.449 -22.423  0.00  0.00     0.051 A 
ATOM      6  C   UNL d   1      33.099  19.945 -23.059  0.00  0.00     0.090 A 
ATOM      7  C   UNL d   1      32.759  18.650 -22.557  0.00  0.00     0.021 A 
ATOM      8  C   UNL d   1      32.945  18.856 -23.965  0.00  0.00     0.015 A 
ATOM      9  C   UNL d   1      33.108  19.647 -23.828  0.00  0.00     0.020 A 
ENDROOT
BRANCH   1  10
ATOM     10  N   UNL d   1      33.241  21.303 -21.409  0.00  0.00    -0.182 NA
ATOM     11  C   UNL d   1      32.608  21.681 -21.068  0.00  0.00     0.287 C 
ATOM     12  O   UNL d   1      31.845  21.437 -21.241  0.00  0.00    -0.265 OA
BRANCH  11  13
ATOM     13  C   UNL d   1      32.717  22.302 -20.556  0.00  0.00     0.087 A 
ATOM     14  S   UNL d   1      32.329  22.983 -20.760  0.00  0.00    -0.082 SA
ATOM     15  C   UNL d   1      32.482  23.558 -20.206  0.00  0.00     0.036 A 
ATOM     16  C   UNL d   1      32.981  23.225 -19.639  0.00  0.00     0.008 A 
ATOM     17  C   UNL d   1      33.128  22.452 -19.849  0.00  0.00     0.012 A 
ENDBRANCH  11  13
ENDBRANCH   1  10
BRANCH   4  18
ATOM     18  S   UNL d   1      32.605  17.559 -23.472  0.00  0.00     0.272 S 
ATOM     19  O   UNL d   1      31.934  17.931 -24.131  0.00  0.00    -0.200 OA
ATOM     20  O   UNL d   1      33.240  17.123 -22.847  0.00  0.00    -0.200 OA
BRANCH  18  21
ATOM     21  N   UNL d   1      32.303  16.844 -23.754  0.00  0.00    -0.226 N 
ATOM     22  C   UNL d   1      32.697  16.137 -23.581  0.00  0.00     0.111 C 
ATOM     23  C   UNL d   1      31.612  16.835 -24.206  0.00  0.00     0.111 C 
ENDBRANCH  18  21
ENDBRANCH   4  18
TORSDOF 4
ENDMDL
MODEL 2
REMARK VINA RESULT:      -2.7      1.179      5.224
REMARK  4 active torsions:
REMARK  status: ('A' for Active; 'I' for Inactive)
REMARK    1  A    between atoms: C_6  and  S_1 
REMARK    2  A    between atoms: N_12  and  S_1 
REMARK    3  A    between atoms: N_4  and  C_2 
REMARK       I    between atoms: C_7  and  N_4 
REMARK    4  A    between atoms: C_10  and  C_7 
ROOT
ATOM      1  C   UNL d   1      33.169  19.197 -22.630  0.00  0.00     0.197 A 
ATOM      2  N   UNL d   1      33.241  19.204 -21.809  0.00  0.00    -0.221 NA
ATOM      3  S   UNL d   1      33.024  19.969 -22.884  0.00  0.00    -0.047 SA
ATOM      4  C   UNL d   1      32.895  21.609 -21.376  0.00  0.00     0.105 A 
ATOM      5  C   UNL d   1      33.005  20.456 -22.213  0.00  0.00     0.051 A 
ATOM      6  C   UNL d   1      33.139  19.988 -21.547  0.00  0.00     0.090 A 
ATOM      7  C   UNL d   1      32.883  21.270 -22.127  0.00  0.00     0.021 A 
ATOM      8  C   UNL d   1      33.030  21.133 -20.705  0.00  0.00     0.015 A 
ATOM      9  C   UNL d   1      33.151  20.328 -20.795  0.00  0.00     0.020 A 
ENDROOT
BRANCH   1  10
ATOM     10  N   UNL d   1      33.233  18.533 -23.115  0.00  0.00    -0.182 NA
ATOM     11  C   UNL d   1      32.584  18.127 -23.386  0.00  0.00     0.287 C 
ATOM     12  O   UNL d   1      31.830  18.375 -23.179  0.00  0.00    -0.265 OA
BRANCH  11  13
ATOM     13  C   UNL d   1      32.666  17.475 -23.863  0.00  0.00     0.087 A 
ATOM     14  S   UNL d   1      32.183  16.853 -23.674  0.00  0.00    -0.082 SA
ATOM     15  C   UNL d   1      32.317  16.238 -24.189  0.00  0.00     0.036 A 
ATOM     16  C   UNL d   1      32.905  16.486 -24.716  0.00  0.00     0.008 A 
ATOM     17  C   UNL d   1      33.122  17.246 -24.519  0.00  0.00     0.012 A 
ENDBRANCH  11  13
ENDBRANCH   1  10
BRANCH   4  18
ATOM     18  S   UNL d   1      32.775  22.418 -21.278  0.00  0.00     0.272 S 
ATOM     19  O   UNL d   1      32.356  22.138 -20.401  0.00  0.00    -0.200 OA
ATOM     20  O   UNL d   1      33.169  22.765 -22.119  0.00  0.00    -0.200 OA
BRANCH  18  21
ATOM     21  N   UNL d   1      32.568  23.166 -20.998  0.00  0.00    -0.226 N 
ATOM     22  C   UNL d   1      32.965  23.482 -20.343  0.00  0.00     0.111 C 
ATOM     23  C   UNL d   1      31.969  23.597 -21.368  0.00  0.00     0.111 C 
ENDBRANCH  18  21
ENDBRANCH   4  18
TORSDOF 4
ENDMDL
MODEL 3
REMARK VINA RESULT:      -0.9      3.388      4.176
REMARK  4 active torsions:
REMARK  status: ('A' for Active; 'I' for Inactive)
REMARK    1  A    between atoms: C_6  and  S_1 
REMARK    2  A    between atoms: N_12  and  S_1 
REMARK    3  A    between atoms: N_4  and  C_2 
REMARK       I    between atoms: C_7  and  N_4 
REMARK    4  A    between atoms: C_10  and  C_7 
ROOT
ATOM      1  C   UNL d   1      32.931  23.086 -20.223  0.00  0.00     0.197 A 
ATOM      2  N   UNL d   1      33.169  22.356 -20.523  0.00  0.00    -0.221 NA
ATOM      3  S   UNL d   1      32.692  23.560 -20.855  0.00  0.00    -0.047 SA
ATOM      4  C   UNL d   1      32.780  22.741 -22.930  0.00  0.00     0.105 A 
ATOM      5  C   UNL d   1      32.783  23.118 -21.551  0.00  0.00     0.051 A 
ATOM      6  C   UNL d   1      33.077  22.374 -21.351  0.00  0.00     0.090 A 
ATOM      7  C   UNL d   1      32.634  23.303 -22.344  0.00  0.00     0.021 A 
ATOM      8  C   UNL d   1      33.077  21.991 -22.724  0.00  0.00     0.015 A 
ATOM      9  C   UNL d   1      33.224  21.813 -21.938  0.00  0.00     0.020 A 
ENDROOT
BRANCH   1  10
ATOM     10  N   UNL d   1      32.932  23.305 -19.428  0.00  0.00    -0.182 NA
ATOM     11  C   UNL d   1      32.846  22.766 -18.827  0.00  0.00     0.287 C 
ATOM     12  O   UNL d   1      32.753  21.970 -19.001  0.00  0.00    -0.265 OA
BRANCH  11  13
ATOM     13  C   UNL d   1      32.849  23.001 -18.049  0.00  0.00     0.087 A 
ATOM     14  S   UNL d   1      33.220  22.491 -17.542  0.00  0.00    -0.082 SA
ATOM     15  C   UNL d   1      33.186  22.787 -16.786  0.00  0.00     0.036 A 
ATOM     16  C   UNL d   1      32.780  23.505 -16.823  0.00  0.00     0.008 A 
ATOM     17  C   UNL d   1      32.570  23.641 -17.599  0.00  0.00     0.012 A 
ENDBRANCH  11  13
ENDBRANCH   1  10
BRANCH   4  18
ATOM     18  S   UNL d   1      32.636  22.913 -23.722  0.00  0.00     0.272 S 
ATOM     19  O   UNL d   1      33.235  22.117 -23.891  0.00  0.00    -0.200 OA
ATOM     20  O   UNL d   1      32.041  23.702 -23.633  0.00  0.00    -0.200 OA
BRANCH  18  21
ATOM     21  N   UNL d   1      32.616  22.920 -24.547  0.00  0.00    -0.226 N 
ATOM     22  C   UNL d   1      32.198  23.516 -24.941  0.00  0.00     0.111 C 
ATOM     23  C   UNL d   1      33.010  22.335 -24.976  0.00  0.00     0.111 C 
ENDBRANCH  18  21
ENDBRANCH   4  18
TORSDOF 4
ENDMDL
MODEL 4
REMARK VINA RESULT:      -0.9      1.770      2.695
REMARK  4 active torsions:
REMARK  status: ('A' for Active; 'I' for Inactive)
REMARK    1  A    between atoms: C_6  and  S_1 
REMARK    2  A    between atoms: N_12  and  S_1 
REMARK    3  A    between atoms: N_4  and  C_2 
REMARK       I    between atoms: C_7  and  N_4 
REMARK    4  A    between atoms: C_10  and  C_7 
ROOT
ATOM      1  C   UNL d   1      33.152  22.198 -19.933  0.00  0.00     0.197 A 
ATOM      2  N   UNL d   1      33.000  22.564 -20.656  0.00  0.00    -0.221 NA
ATOM      3  S   UNL d   1      33.240  21.389 -20.065  0.00  0.00    -0.047 SA
ATOM      4  C   UNL d   1      33.050  20.593 -22.141  0.00  0.00     0.105 A 
ATOM      5  C   UNL d   1      33.142  21.253 -20.877  0.00  0.00     0.051 A 
ATOM      6  C   UNL d   1      32.994  21.975 -21.247  0.00  0.00     0.090 A 
ATOM      7  C   UNL d   1      33.170  20.559 -21.326  0.00  0.00     0.021 A 
ATOM      8  C   UNL d   1      32.900  21.324 -22.511  0.00  0.00     0.015 A 
ATOM      9  C   UNL d   1      32.873  22.009 -22.062  0.00  0.00     0.020 A 
ENDROOT
BRANCH   1  10
ATOM     10  N   UNL d   1      33.206  22.578 -19.202  0.00  0.00    -0.182 NA
ATOM     11  C   UNL d   1      32.557  22.715 -18.733  0.00  0.00     0.287 C 
ATOM     12  O   UNL d   1      31.814  22.472 -18.981  0.00  0.00    -0.265 OA
BRANCH  11  13
ATOM     13  C   UNL d   1      32.630  23.090 -18.016  0.00  0.00     0.087 A 
ATOM     14  S   UNL d   1      31.930  23.236 -17.637  0.00  0.00    -0.082 SA
ATOM     15  C   UNL d   1      32.077  23.611 -16.931  0.00  0.00     0.036 A 
ATOM     16  C   UNL d   1      32.896  23.702 -16.869  0.00  0.00     0.008 A 
ATOM     17  C   UNL d   1      33.241  23.383 -17.535  0.00  0.00     0.012 A 
ENDBRANCH  11  13
ENDBRANCH   1  10
BRANCH   4  18
ATOM     18  S   UNL d   1      33.075  19.909 -22.599  0.00  0.00     0.272 S 
ATOM     19  O   UNL d   1      33.119  20.559 -23.372  0.00  0.00    -0.200 OA
ATOM     20  O   UNL d   1      33.035  19.213 -21.892  0.00  0.00    -0.200 OA
BRANCH  18  21
ATOM     21  N   UNL d   1      33.110  19.361 -23.216  0.00  0.00    -0.226 N 
ATOM     22  C   UNL d   1      33.012  18.555 -23.053  0.00  0.00     0.111 C 
ATOM     23  C   UNL d   1      33.241  19.615 -23.990  0.00  0.00     0.111 C 
ENDBRANCH  18  21
ENDBRANCH   4  18
TORSDOF 4
ENDMDL
