MODEL 1
REMARK VINA RESULT:      96.1      0.000      0.000
REMARK  2 active torsions:
REMARK  status: ('A' for Active; 'I' for Inactive)
REMARK    1  A    between atoms: N_7  and  C_3 
REMARK    2  A    between atoms: C_15  and  C_5 
ROOT
ATOM      1  N   UNL d   1     -56.861 -99.373 -44.906  0.00  0.00    -0.196 N 
ATOM      2  C   UNL d   1     -57.367 -99.263 -44.242  0.00  0.00     0.167 A 
ATOM      3  C   UNL d   1     -56.060 -99.556 -44.786  0.00  0.00     0.153 A 
ATOM      4  N   UNL d   1     -57.955 -99.118 -45.783  0.00  0.00    -0.163 NA
ATOM      5  C   UNL d   1     -58.149 -99.084 -44.358  0.00  0.00     0.055 A 
ATOM      6  N   UNL d   1     -57.054 -99.339 -43.481  0.00  0.00    -0.227 NA
ATOM      7  C   UNL d   1     -55.766 -99.629 -44.029  0.00  0.00     0.052 A 
ATOM      8  C   UNL d   1     -58.453 -99.009 -45.129  0.00  0.00     0.104 A 
ATOM      9  C   UNL d   1     -56.266 -99.520 -43.360  0.00  0.00     0.086 A 
ATOM     10  C   UNL d   1     -55.024 -99.800 -43.742  0.00  0.00     0.005 A 
ATOM     11  C   UNL d   1     -59.246 -98.827 -45.237  0.00  0.00     0.023 C 
ATOM     12  C   UNL d   1     -55.819 -99.627 -42.678  0.00  0.00     0.019 A 
ATOM     13  C   UNL d   1     -55.040 -99.802 -42.921  0.00  0.00     0.002 A 
ENDROOT
BRANCH   3  14
ATOM     14  N   UNL d   1     -55.546 -99.669 -45.454  0.00  0.00    -0.274 N 
ATOM     15  C   UNL d   1     -55.135-100.216 -45.946  0.00  0.00     0.149 A 
ATOM     16  N   UNL d   1     -54.718 -99.774 -46.536  0.00  0.00    -0.225 NA
ATOM     17  C   UNL d   1     -55.140-101.047 -45.863  0.00  0.00     0.041 C 
ATOM     18  C   UNL d   1     -54.880 -98.956 -46.398  0.00  0.00     0.120 A 
ATOM     19  C   UNL d   1     -55.382 -98.889 -45.741  0.00  0.00     0.104 A 
ENDBRANCH   3  14
BRANCH   5  20
ATOM     20  C   UNL d   1     -58.645 -98.975 -43.708  0.00  0.00     0.004 A 
ATOM     21  C   UNL d   1     -58.325 -98.868 -42.955  0.00  0.00     0.000 A 
ATOM     22  C   UNL d   1     -58.814 -98.760 -42.307  0.00  0.00     0.000 A 
ATOM     23  C   UNL d   1     -59.637 -98.759 -42.407  0.00  0.00     0.000 A 
ATOM     24  C   UNL d   1     -59.961 -98.864 -43.147  0.00  0.00     0.000 A 
ATOM     25  C   UNL d   1     -59.460 -98.974 -43.803  0.00  0.00     0.000 A 
ENDBRANCH   5  20
TORSDOF 2
ENDMDL
