MODEL 1
REMARK VINA RESULT:      39.6      0.000      0.000
REMARK  3 active torsions:
REMARK  status: ('A' for Active; 'I' for Inactive)
REMARK    1  A    between atoms: O_7  and  C_1 
REMARK    2  A    between atoms: C_12  and  O_7 
REMARK    3  A    between atoms: O_20  and  C_14 
ROOT
ATOM      1  C   UNL d   1     -50.688  25.259  33.311  0.00  0.00     0.163 A 
ATOM      2  C   UNL d   1     -50.856  24.464  33.317  0.00  0.00     0.222 A 
ATOM      3  C   UNL d   1     -51.637  24.218  33.319  0.00  0.00     0.064 A 
ATOM      4  C   UNL d   1     -52.244  24.788  33.315  0.00  0.00     0.106 A 
ATOM      5  C   UNL d   1     -51.261  25.797  33.306  0.00  0.00     0.150 A 
ATOM      6  O   UNL d   1     -52.047  25.583  33.308  0.00  0.00    -0.303 OA
ATOM      7  C   UNL d   1     -51.838  23.419  33.326  0.00  0.00     0.009 A 
ATOM      8  C   UNL d   1     -53.029  24.538  33.317  0.00  0.00     0.067 A 
ATOM      9  O   UNL d   1     -50.249  23.894  33.322  0.00  0.00    -0.284 OA
ATOM     10  C   UNL d   1     -53.204  23.729  33.324  0.00  0.00     0.198 A 
ATOM     11  C   UNL d   1     -52.631  23.191  33.328  0.00  0.00     0.042 A 
ATOM     12  O   UNL d   1     -53.998  23.461  33.326  0.00  0.00    -0.286 OA
ENDROOT
BRANCH   1  13
ATOM     13  O   UNL d   1     -49.856  25.528  33.308  0.00  0.00    -0.302 OA
BRANCH  13  14
ATOM     14  C   UNL d   1     -49.648  26.216  33.697  0.00  0.00     0.100 A 
ATOM     15  C   UNL d   1     -49.149  26.787  33.332  0.00  0.00     0.027 A 
ATOM     16  C   UNL d   1     -48.945  27.474  33.727  0.00  0.00     0.026 A 
ATOM     17  C   UNL d   1     -49.236  27.616  34.512  0.00  0.00     0.094 A 
ATOM     18  C   UNL d   1     -49.736  27.044  34.876  0.00  0.00     0.026 A 
ATOM     19  C   UNL d   1     -49.933  26.352  34.460  0.00  0.00     0.027 A 
BRANCH  17  20
ATOM     20  O   UNL d   1     -49.049  28.306  34.947  0.00  0.00    -0.328 OA
ATOM     21  C   UNL d   1     -48.301  28.568  35.234  0.00  0.00     0.181 C 
ENDBRANCH  17  20
ENDBRANCH  13  14
ENDBRANCH   1  13
TORSDOF 3
ENDMDL
