MODEL 1
REMARK VINA RESULT:      -5.4      0.000      0.000
REMARK  0 active torsions:
REMARK  status: ('A' for Active; 'I' for Inactive)
ROOT
ATOM      1  C   UNL d   1      53.142  31.167  53.270  0.00  0.00     0.221 A 
ATOM      2  N   UNL d   1      53.651  31.515  53.818  0.00  0.00    -0.217 NA
ATOM      3  N   UNL d   1      52.667  31.636  52.781  0.00  0.00    -0.216 NA
ATOM      4  S   UNL d   1      53.084  30.349  53.185  0.00  0.00    -0.037 SA
ATOM      5  C   UNL d   1      53.689  32.335  53.882  0.00  0.00     0.085 A 
ATOM      6  C   UNL d   1      52.709  32.462  52.850  0.00  0.00     0.103 A 
ATOM      7  C   UNL d   1      53.218  32.810  53.398  0.00  0.00     0.040 A 
ATOM      8  C   UNL d   1      54.205  32.664  54.437  0.00  0.00     0.021 C 
ENDROOT
TORSDOF 0
ENDMDL
MODEL 2
REMARK VINA RESULT:      -5.3      2.238      2.863
REMARK  0 active torsions:
REMARK  status: ('A' for Active; 'I' for Inactive)
ROOT
ATOM      1  C   UNL d   1      53.473  34.206  54.442  0.00  0.00     0.221 A 
ATOM      2  N   UNL d   1      53.373  33.467  54.087  0.00  0.00    -0.217 NA
ATOM      3  N   UNL d   1      54.079  34.330  54.991  0.00  0.00    -0.216 NA
ATOM      4  S   UNL d   1      52.981  34.844  54.267  0.00  0.00    -0.037 SA
ATOM      5  C   UNL d   1      53.879  32.847  54.280  0.00  0.00     0.085 A 
ATOM      6  C   UNL d   1      54.586  33.701  55.182  0.00  0.00     0.103 A 
ATOM      7  C   UNL d   1      54.487  32.962  54.828  0.00  0.00     0.040 A 
ATOM      8  C   UNL d   1      53.763  32.116  53.915  0.00  0.00     0.021 C 
ENDROOT
TORSDOF 0
ENDMDL
MODEL 3
REMARK VINA RESULT:      -5.3      1.914      2.215
REMARK  0 active torsions:
REMARK  status: ('A' for Active; 'I' for Inactive)
ROOT
ATOM      1  C   UNL d   1      53.159  33.835  53.737  0.00  0.00     0.221 A 
ATOM      2  N   UNL d   1      53.688  33.921  54.364  0.00  0.00    -0.217 NA
ATOM      3  N   UNL d   1      53.196  33.171  53.244  0.00  0.00    -0.216 NA
ATOM      4  S   UNL d   1      52.578  34.396  53.575  0.00  0.00    -0.037 SA
ATOM      5  C   UNL d   1      54.259  33.344  54.504  0.00  0.00     0.085 A 
ATOM      6  C   UNL d   1      53.774  32.592  53.389  0.00  0.00     0.103 A 
ATOM      7  C   UNL d   1      54.303  32.679  54.016  0.00  0.00     0.040 A 
ATOM      8  C   UNL d   1      54.779  33.449  55.136  0.00  0.00     0.021 C 
ENDROOT
TORSDOF 0
ENDMDL
MODEL 4
REMARK VINA RESULT:      -5.3      1.219      1.749
REMARK  0 active torsions:
REMARK  status: ('A' for Active; 'I' for Inactive)
ROOT
ATOM      1  C   UNL d   1      53.778  32.362  53.703  0.00  0.00     0.221 A 
ATOM      2  N   UNL d   1      53.832  31.541  53.757  0.00  0.00    -0.217 NA
ATOM      3  N   UNL d   1      53.169  32.715  53.269  0.00  0.00    -0.216 NA
ATOM      4  S   UNL d   1      54.320  32.861  54.073  0.00  0.00    -0.037 SA
ATOM      5  C   UNL d   1      53.277  31.065  53.377  0.00  0.00     0.085 A 
ATOM      6  C   UNL d   1      52.612  32.232  52.888  0.00  0.00     0.103 A 
ATOM      7  C   UNL d   1      52.665  31.411  52.942  0.00  0.00     0.040 A 
ATOM      8  C   UNL d   1      53.348  30.246  53.444  0.00  0.00     0.021 C 
ENDROOT
TORSDOF 0
ENDMDL
MODEL 5
REMARK VINA RESULT:      -5.0      1.536      2.046
REMARK  0 active torsions:
REMARK  status: ('A' for Active; 'I' for Inactive)
ROOT
ATOM      1  C   UNL d   1      53.724  32.848  54.318  0.00  0.00     0.221 A 
ATOM      2  N   UNL d   1      53.116  33.325  54.031  0.00  0.00    -0.217 NA
ATOM      3  N   UNL d   1      53.862  32.100  53.990  0.00  0.00    -0.216 NA
ATOM      4  S   UNL d   1      54.215  33.089  54.934  0.00  0.00    -0.037 SA
ATOM      5  C   UNL d   1      52.640  33.059  53.413  0.00  0.00     0.085 A 
ATOM      6  C   UNL d   1      53.380  31.837  53.368  0.00  0.00     0.103 A 
ATOM      7  C   UNL d   1      52.771  32.315  53.080  0.00  0.00     0.040 A 
ATOM      8  C   UNL d   1      52.037  33.552  53.140  0.00  0.00     0.021 C 
ENDROOT
TORSDOF 0
ENDMDL
MODEL 6
REMARK VINA RESULT:      -4.9      2.472      2.980
REMARK  0 active torsions:
REMARK  status: ('A' for Active; 'I' for Inactive)
ROOT
ATOM      1  C   UNL d   1      53.587  33.907  54.549  0.00  0.00     0.221 A 
ATOM      2  N   UNL d   1      53.089  33.685  53.930  0.00  0.00    -0.217 NA
ATOM      3  N   UNL d   1      53.615  34.694  54.803  0.00  0.00    -0.216 NA
ATOM      4  S   UNL d   1      54.072  33.365  54.936  0.00  0.00    -0.037 SA
ATOM      5  C   UNL d   1      52.614  34.247  53.560  0.00  0.00     0.085 A 
ATOM      6  C   UNL d   1      53.134  35.257  54.427  0.00  0.00     0.103 A 
ATOM      7  C   UNL d   1      52.636  35.035  53.809  0.00  0.00     0.040 A 
ATOM      8  C   UNL d   1      52.122  34.005  52.944  0.00  0.00     0.021 C 
ENDROOT
TORSDOF 0
ENDMDL
MODEL 7
REMARK VINA RESULT:      -4.8      1.737      2.005
REMARK  0 active torsions:
REMARK  status: ('A' for Active; 'I' for Inactive)
ROOT
ATOM      1  C   UNL d   1      53.202  32.988  53.515  0.00  0.00     0.221 A 
ATOM      2  N   UNL d   1      53.302  33.751  53.811  0.00  0.00    -0.217 NA
ATOM      3  N   UNL d   1      52.558  32.807  53.028  0.00  0.00    -0.216 NA
ATOM      4  S   UNL d   1      53.730  32.379  53.689  0.00  0.00    -0.037 SA
ATOM      5  C   UNL d   1      52.759  34.341  53.622  0.00  0.00     0.085 A 
ATOM      6  C   UNL d   1      52.014  33.404  52.840  0.00  0.00     0.103 A 
ATOM      7  C   UNL d   1      52.114  34.168  53.136  0.00  0.00     0.040 A 
ATOM      8  C   UNL d   1      52.876  35.098  53.927  0.00  0.00     0.021 C 
ENDROOT
TORSDOF 0
ENDMDL
MODEL 8
REMARK VINA RESULT:      -4.4      2.411      2.747
REMARK  0 active torsions:
REMARK  status: ('A' for Active; 'I' for Inactive)
ROOT
ATOM      1  C   UNL d   1      51.835  34.045  52.922  0.00  0.00     0.221 A 
ATOM      2  N   UNL d   1      52.134  34.688  53.344  0.00  0.00    -0.217 NA
ATOM      3  N   UNL d   1      52.177  33.296  53.000  0.00  0.00    -0.216 NA
ATOM      4  S   UNL d   1      51.192  34.119  52.411  0.00  0.00    -0.037 SA
ATOM      5  C   UNL d   1      52.778  34.586  53.848  0.00  0.00     0.085 A 
ATOM      6  C   UNL d   1      52.825  33.198  53.508  0.00  0.00     0.103 A 
ATOM      7  C   UNL d   1      53.125  33.841  53.931  0.00  0.00     0.040 A 
ATOM      8  C   UNL d   1      53.062  35.241  54.261  0.00  0.00     0.021 C 
ENDROOT
TORSDOF 0
ENDMDL
MODEL 9
REMARK VINA RESULT:      -3.4      9.648      9.898
REMARK  0 active torsions:
REMARK  status: ('A' for Active; 'I' for Inactive)
ROOT
ATOM      1  C   UNL d   1      45.106  29.273  58.153  0.00  0.00     0.221 A 
ATOM      2  N   UNL d   1      45.302  28.495  58.346  0.00  0.00    -0.217 NA
ATOM      3  N   UNL d   1      44.923  29.478  57.372  0.00  0.00    -0.216 NA
ATOM      4  S   UNL d   1      45.083  29.871  58.719  0.00  0.00    -0.037 SA
ATOM      5  C   UNL d   1      45.317  27.916  57.760  0.00  0.00     0.085 A 
ATOM      6  C   UNL d   1      44.940  28.891  56.786  0.00  0.00     0.103 A 
ATOM      7  C   UNL d   1      45.136  28.114  56.979  0.00  0.00     0.040 A 
ATOM      8  C   UNL d   1      45.516  27.144  57.973  0.00  0.00     0.021 C 
ENDROOT
TORSDOF 0
ENDMDL
