MODEL 1
REMARK VINA RESULT:      57.7      0.000      0.000
REMARK  9 active torsions:
REMARK  status: ('A' for Active; 'I' for Inactive)
REMARK    1  A    between atoms: S_10  and  C_3 
REMARK    2  A    between atoms: C_17  and  N_5 
REMARK    3  A    between atoms: C_12  and  S_10 
REMARK    4  A    between atoms: C_11  and  C_12 
REMARK       I    between atoms: N_13  and  C_11 
REMARK    5  A    between atoms: C_26  and  C_12 
REMARK    6  A    between atoms: C_23  and  N_13 
REMARK    7  A    between atoms: C_15  and  C_23 
REMARK    8  A    between atoms: C_22  and  C_17 
REMARK    9  A    between atoms: C_30  and  C_26 
ROOT
ATOM      1  C   UNL d   1     -51.781  24.557  33.313  0.00  0.00     0.081 A 
ATOM      2  C   UNL d   1     -52.083  25.327  33.313  0.00  0.00     0.117 A 
ATOM      3  C   UNL d   1     -50.749  25.845  33.312  0.00  0.00     0.182 A 
ATOM      4  N   UNL d   1     -51.572  25.966  33.312  0.00  0.00    -0.215 NA
ATOM      5  N   UNL d   1     -50.451  25.073  33.312  0.00  0.00    -0.253 N 
ATOM      6  C   UNL d   1     -50.968  24.427  33.312  0.00  0.00     0.268 A 
ATOM      7  S   UNL d   1     -52.903  25.279  33.313  0.00  0.00    -0.068 SA
ATOM      8  C   UNL d   1     -52.417  24.031  33.313  0.00  0.00     0.013 A 
ATOM      9  C   UNL d   1     -53.110  24.483  33.314  0.00  0.00     0.031 A 
ATOM     10  O   UNL d   1     -50.667  23.658  33.312  0.00  0.00    -0.267 OA
ATOM     11  C   UNL d   1     -52.632  23.239  33.313  0.00  0.00     0.001 A 
ATOM     12  C   UNL d   1     -53.751  23.963  33.314  0.00  0.00     0.006 A 
ATOM     13  C   UNL d   1     -53.456  23.189  33.314  0.00  0.00     0.001 A 
ENDROOT
BRANCH   3  14
ATOM     14  S   UNL d   1     -50.240  26.487  33.311  0.00  0.00    -0.045 SA
BRANCH  14  15
ATOM     15  C   UNL d   1     -49.911  26.757  34.014  0.00  0.00     0.093 C 
BRANCH  15  16
ATOM     16  C   UNL d   1     -49.138  27.063  34.024  0.00  0.00     0.285 C 
ATOM     17  N   UNL d   1     -48.968  27.742  34.455  0.00  0.00    -0.204 NA
ATOM     18  O   UNL d   1     -48.546  26.680  33.599  0.00  0.00    -0.265 OA
BRANCH  17  19
ATOM     19  C   UNL d   1     -48.206  28.046  34.465  0.00  0.00     0.127 C 
BRANCH  19  20
ATOM     20  C   UNL d   1     -48.008  28.652  34.986  0.00  0.00     0.119 A 
ATOM     21  O   UNL d   1     -47.302  28.734  35.388  0.00  0.00    -0.304 OA
ATOM     22  C   UNL d   1     -47.341  29.415  35.845  0.00  0.00     0.123 A 
ATOM     23  C   UNL d   1     -48.082  29.762  35.725  0.00  0.00     0.029 A 
ATOM     24  C   UNL d   1     -48.502  29.293  35.192  0.00  0.00     0.028 A 
ENDBRANCH  19  20
ENDBRANCH  17  19
ENDBRANCH  15  16
BRANCH  15  25
ATOM     25  C   UNL d   1     -50.342  26.725  34.715  0.00  0.00     0.057 C 
BRANCH  25  26
ATOM     26  C   UNL d   1     -50.525  27.430  35.106  0.00  0.00     0.235 C 
ATOM     27  O   UNL d   1     -51.004  27.410  35.781  0.00  0.00    -0.283 OA
ENDBRANCH  25  26
ENDBRANCH  15  25
ENDBRANCH  14  15
ENDBRANCH   3  14
BRANCH   5  28
ATOM     28  C   UNL d   1     -49.637  24.949  33.311  0.00  0.00     0.085 C 
BRANCH  28  29
ATOM     29  C   UNL d   1     -49.327  24.224  33.560  0.00  0.00     0.019 C 
ATOM     30  C   UNL d   1     -48.651  24.206  34.034  0.00  0.00     0.002 C 
ENDBRANCH  28  29
ENDBRANCH   5  28
TORSDOF 9
ENDMDL
