MODEL 1
REMARK VINA RESULT:      86.4      0.000      0.000
REMARK  4 active torsions:
REMARK  status: ('A' for Active; 'I' for Inactive)
REMARK       I    between atoms: N_3  and  C_1 
REMARK    1  A    between atoms: O_5  and  C_1 
REMARK    2  A    between atoms: C_2  and  O_8 
REMARK       I    between atoms: N_4  and  C_2 
REMARK    3  A    between atoms: C_6  and  O_5 
REMARK    4  A    between atoms: O_8  and  C_12 
ROOT
ATOM      1  C   UNL d   1     -56.453 -99.542 -44.317  0.00  0.00     0.105 A 
ATOM      2  C   UNL d   1     -55.873-100.119 -44.222  0.00  0.00     0.025 A 
ATOM      3  C   UNL d   1     -55.785-100.496 -43.497  0.00  0.00     0.027 A 
ATOM      4  C   UNL d   1     -55.195-101.086 -43.390  0.00  0.00     0.105 A 
ATOM      5  C   UNL d   1     -55.389-100.315 -44.845  0.00  0.00     0.002 A 
ATOM      6  C   UNL d   1     -54.804-100.893 -44.758  0.00  0.00     0.002 A 
ATOM      7  C   UNL d   1     -54.711-101.283 -44.013  0.00  0.00     0.025 A 
ATOM      8  C   UNL d   1     -56.542 -99.164 -45.043  0.00  0.00     0.025 A 
ATOM      9  C   UNL d   1     -56.058 -99.361 -45.666  0.00  0.00     0.002 A 
ATOM     10  C   UNL d   1     -55.473 -99.939 -45.578  0.00  0.00     0.000 A 
ENDROOT
BRANCH   1  11
ATOM     11  O   UNL d   1     -56.944 -99.343 -43.685  0.00  0.00    -0.259 OA
BRANCH  11  12
ATOM     12  C   UNL d   1     -57.710 -99.065 -43.828  0.00  0.00     0.378 C 
ATOM     13  N   UNL d   1     -58.283 -99.062 -43.218  0.00  0.00    -0.247 N 
ATOM     14  C   UNL d   1     -59.049 -98.780 -43.373  0.00  0.00     0.112 A 
ATOM     15  C   UNL d   1     -58.080 -99.340 -42.470  0.00  0.00     0.112 A 
ATOM     16  C   UNL d   1     -59.613 -98.781 -42.760  0.00  0.00     0.142 A 
ATOM     17  O   UNL d   1     -59.405 -99.064 -42.001  0.00  0.00    -0.300 OA
ATOM     18  C   UNL d   1     -58.639 -99.340 -41.863  0.00  0.00     0.142 A 
ATOM     19  O   UNL d   1     -57.922 -98.784 -44.578  0.00  0.00    -0.237 OA
ENDBRANCH  11  12
ENDBRANCH   1  11
BRANCH   4  20
ATOM     20  O   UNL d   1     -55.108-101.463 -42.661  0.00  0.00    -0.259 OA
BRANCH  20  21
ATOM     21  C   UNL d   1     -55.737-101.870 -42.331  0.00  0.00     0.378 C 
ATOM     22  N   UNL d   1     -55.685-102.171 -41.562  0.00  0.00    -0.247 N 
ATOM     23  C   UNL d   1     -56.330-102.579 -41.246  0.00  0.00     0.112 A 
ATOM     24  C   UNL d   1     -55.000-102.061 -41.130  0.00  0.00     0.112 A 
ATOM     25  C   UNL d   1     -56.277-102.878 -40.481  0.00  0.00     0.142 A 
ATOM     26  O   UNL d   1     -55.589-102.771 -40.039  0.00  0.00    -0.300 OA
ATOM     27  C   UNL d   1     -54.952-102.363 -40.364  0.00  0.00     0.142 A 
ATOM     28  O   UNL d   1     -56.424-101.975 -42.776  0.00  0.00    -0.237 OA
ENDBRANCH  20  21
ENDBRANCH   4  20
TORSDOF 4
ENDMDL
