MODEL 1
REMARK VINA RESULT:      72.9      0.000      0.000
REMARK  3 active torsions:
REMARK  status: ('A' for Active; 'I' for Inactive)
REMARK    1  A    between atoms: N_7  and  C_1 
REMARK    2  A    between atoms: C_11  and  N_3 
REMARK       I    between atoms: C_9  and  N_7 
REMARK    3  A    between atoms: C_12  and  C_9 
ROOT
ATOM      1  C   UNL d   1      60.109  48.839  50.823  0.00  0.00     0.169 A 
ATOM      2  C   UNL d   1      60.615  48.997  51.401  0.00  0.00     0.067 A 
ATOM      3  N   UNL d   1      59.468  49.278  50.938  0.00  0.00    -0.212 N 
ATOM      4  C   UNL d   1      60.286  49.537  51.878  0.00  0.00     0.116 A 
ATOM      5  N   UNL d   1      59.580  49.708  51.590  0.00  0.00    -0.163 NA
ATOM      6  S   UNL d   1      61.437  49.247  52.333  0.00  0.00     0.213 S 
ATOM      7  C   UNL d   1      60.795  49.689  52.451  0.00  0.00     0.120 A 
ATOM      8  C   UNL d   1      61.325  48.820  51.684  0.00  0.00     0.103 A 
ATOM      9  O   UNL d   1      61.474  49.705  52.967  0.00  0.00    -0.217 OA
ATOM     10  O   UNL d   1      61.968  48.848  52.189  0.00  0.00    -0.217 OA
ENDROOT
BRANCH   1  11
ATOM     11  N   UNL d   1      60.541  48.367  50.510  0.00  0.00    -0.187 NA
ATOM     12  C   UNL d   1      60.675  47.361  50.550  0.00  0.00     0.303 C 
ATOM     13  O   UNL d   1      60.247  46.915  51.007  0.00  0.00    -0.263 OA
BRANCH  12  14
ATOM     14  C   UNL d   1      61.261  47.012  50.078  0.00  0.00     0.158 A 
ATOM     15  O   UNL d   1      62.022  47.336  49.895  0.00  0.00    -0.300 OA
ATOM     16  C   UNL d   1      62.424  46.792  49.403  0.00  0.00     0.123 A 
ATOM     17  C   UNL d   1      61.924  46.130  49.274  0.00  0.00     0.029 A 
ATOM     18  C   UNL d   1      61.206  46.259  49.687  0.00  0.00     0.032 A 
ENDBRANCH  12  14
ENDBRANCH   1  11
BRANCH   3  19
ATOM     19  C   UNL d   1      58.784  49.289  50.453  0.00  0.00     0.085 A 
ATOM     20  C   UNL d   1      58.050  49.022  50.767  0.00  0.00     0.031 A 
ATOM     21  C   UNL d   1      57.378  49.032  50.291  0.00  0.00     0.059 A 
ATOM     22 CL   UNL d   1      56.640  48.769  50.589  0.00  0.00    -0.082 Cl
ATOM     23  C   UNL d   1      57.426  49.310  49.491  0.00  0.00     0.011 A 
ATOM     24  C   UNL d   1      58.164  49.573  49.193  0.00  0.00     0.002 A 
ATOM     25  C   UNL d   1      58.832  49.560  49.675  0.00  0.00     0.019 A 
ENDBRANCH   3  19
TORSDOF 3
ENDMDL
