MODEL 1
REMARK VINA RESULT:     153.6      0.000      0.000
REMARK  2 active torsions:
REMARK  status: ('A' for Active; 'I' for Inactive)
REMARK       I    between atoms: N_3  and  C_1 
REMARK       I    between atoms: N_4  and  C_1 
REMARK       I    between atoms: C_2  and  N_5 
REMARK       I    between atoms: N_6  and  C_2 
REMARK    1  A    between atoms: C_13  and  N_4 
REMARK    2  A    between atoms: C_14  and  N_4 
ROOT
ATOM      1  C   UNL d   1      61.341  44.700  51.505  0.00  0.00     0.339 C 
ATOM      2  C   UNL d   1      61.033  47.794  50.404  0.00  0.00     0.340 C 
ATOM      3  N   UNL d   1      61.262  45.485  51.226  0.00  0.00    -0.254 N 
ATOM      4  N   UNL d   1      61.721  44.134  51.044  0.00  0.00    -0.260 N 
ATOM      5  N   UNL d   1      61.108  47.022  50.681  0.00  0.00    -0.254 N 
ATOM      6  N   UNL d   1      60.653  48.364  50.864  0.00  0.00    -0.253 N 
ATOM      7  O   UNL d   1      61.034  44.493  52.249  0.00  0.00    -0.245 OA
ATOM      8  O   UNL d   1      61.337  47.995  49.669  0.00  0.00    -0.245 OA
ATOM      9  C   UNL d   1      60.873  46.048  51.708  0.00  0.00     0.104 A 
ATOM     10  C   UNL d   1      61.562  45.688  50.500  0.00  0.00     0.104 A 
ATOM     11  C   UNL d   1      61.485  46.458  50.227  0.00  0.00     0.104 A 
ATOM     12  C   UNL d   1      60.796  46.818  51.435  0.00  0.00     0.104 A 
ATOM     13  O   UNL d   1      59.891  49.507  51.783  0.00  0.00    -0.300 OA
ATOM     14  C   UNL d   1      60.579  49.136  50.582  0.00  0.00     0.111 A 
ATOM     15  C   UNL d   1      60.347  48.157  51.604  0.00  0.00     0.111 A 
ATOM     16  C   UNL d   1      59.966  48.734  52.061  0.00  0.00     0.142 A 
ATOM     17  C   UNL d   1      60.200  49.708  51.038  0.00  0.00     0.142 A 
ENDROOT
BRANCH   4  18
ATOM     18  C   UNL d   1      61.799  43.352  51.321  0.00  0.00     0.068 A 
ATOM     19  C   UNL d   1      61.200  43.021  51.796  0.00  0.00     0.018 A 
ATOM     20  C   UNL d   1      61.277  42.247  52.071  0.00  0.00     0.002 A 
ATOM     21  C   UNL d   1      61.947  41.805  51.874  0.00  0.00     0.000 A 
ATOM     22  C   UNL d   1      62.543  42.135  51.400  0.00  0.00     0.002 A 
ATOM     23  C   UNL d   1      62.466  42.909  51.126  0.00  0.00     0.018 A 
ENDBRANCH   4  18
BRANCH   4  24
ATOM     24  C   UNL d   1      62.025  44.334  50.310  0.00  0.00     0.068 A 
ATOM     25  C   UNL d   1      62.817  44.544  50.229  0.00  0.00     0.018 A 
ATOM     26  C   UNL d   1      63.109  44.741  49.494  0.00  0.00     0.002 A 
ATOM     27  C   UNL d   1      62.622  44.735  48.828  0.00  0.00     0.000 A 
ATOM     28  C   UNL d   1      61.823  44.523  48.912  0.00  0.00     0.002 A 
ATOM     29  C   UNL d   1      61.525  44.323  49.653  0.00  0.00     0.018 A 
ENDBRANCH   4  24
TORSDOF 2
ENDMDL
