MODEL 1
REMARK VINA RESULT:      -7.4      0.000      0.000
REMARK  4 active torsions:
REMARK  status: ('A' for Active; 'I' for Inactive)
REMARK    1  A    between atoms: C_2  and  S_1 
REMARK    2  A    between atoms: N_3  and  S_1 
REMARK    3  A    between atoms: C_6  and  N_3 
REMARK    4  A    between atoms: C_4  and  C_6 
REMARK       I    between atoms: N_5  and  C_4 
ROOT
ATOM      1  S   UNL d   1     -46.706  13.434  22.810  0.00  0.00     0.287 S 
ATOM      2  O   UNL d   1     -47.054  13.089  22.130  0.00  0.00    -0.198 OA
ATOM      3  O   UNL d   1     -46.349  13.771  23.494  0.00  0.00    -0.198 OA
ENDROOT
BRANCH   1   4
ATOM      4  C   UNL d   1     -46.204  12.750  22.895  0.00  0.00     0.126 A 
ATOM      5  C   UNL d   1     -46.467  12.095  23.332  0.00  0.00     0.071 A 
ATOM      6 CL   UNL d   1     -47.229  12.092  23.698  0.00  0.00    -0.082 Cl
ATOM      7  C   UNL d   1     -45.974  11.427  23.414  0.00  0.00     0.012 A 
ATOM      8  C   UNL d   1     -45.232  11.432  23.057  0.00  0.00     0.002 A 
ATOM      9  C   UNL d   1     -44.975  12.091  22.621  0.00  0.00     0.012 A 
ATOM     10  C   UNL d   1     -45.459  12.749  22.539  0.00  0.00     0.071 A 
ATOM     11 CL   UNL d   1     -45.205  13.406  22.106  0.00  0.00    -0.082 Cl
ENDBRANCH   1   4
BRANCH   1  12
ATOM     12  N   UNL d   1     -47.199  14.107  22.726  0.00  0.00    -0.152 NA
BRANCH  12  13
ATOM     13  C   UNL d   1     -48.008  14.056  22.934  0.00  0.00     0.173 C 
BRANCH  13  14
ATOM     14  C   UNL d   1     -48.493  14.731  22.865  0.00  0.00     0.285 C 
ATOM     15  N   UNL d   1     -49.289  14.709  23.085  0.00  0.00    -0.271 N 
ATOM     16  C   UNL d   1     -49.562  13.987  23.371  0.00  0.00     0.083 A 
ATOM     17  C   UNL d   1     -49.700  15.407  22.989  0.00  0.00     0.083 A 
ATOM     18  C   UNL d   1     -50.318  13.797  23.630  0.00  0.00     0.019 A 
ATOM     19  C   UNL d   1     -50.983  14.277  23.666  0.00  0.00     0.002 A 
ATOM     20  C   UNL d   1     -51.064  15.051  23.459  0.00  0.00     0.002 A 
ATOM     21  C   UNL d   1     -50.494  15.561  23.156  0.00  0.00     0.019 A 
ATOM     22  O   UNL d   1     -48.219  15.274  22.631  0.00  0.00    -0.265 OA
ENDBRANCH  13  14
ENDBRANCH  12  13
ENDBRANCH   1  12
TORSDOF 4
ENDMDL
MODEL 2
REMARK VINA RESULT:      -6.7      1.413      4.403
REMARK  4 active torsions:
REMARK  status: ('A' for Active; 'I' for Inactive)
REMARK    1  A    between atoms: C_2  and  S_1 
REMARK    2  A    between atoms: N_3  and  S_1 
REMARK    3  A    between atoms: C_6  and  N_3 
REMARK    4  A    between atoms: C_4  and  C_6 
REMARK       I    between atoms: N_5  and  C_4 
ROOT
ATOM      1  S   UNL d   1     -48.678  14.207  22.752  0.00  0.00     0.287 S 
ATOM      2  O   UNL d   1     -48.959  13.824  22.062  0.00  0.00    -0.198 OA
ATOM      3  O   UNL d   1     -48.406  14.594  23.449  0.00  0.00    -0.198 OA
ENDROOT
BRANCH   1   4
ATOM      4  C   UNL d   1     -49.481  14.386  22.976  0.00  0.00     0.126 A 
ATOM      5  C   UNL d   1     -49.976  13.784  23.259  0.00  0.00     0.071 A 
ATOM      6 CL   UNL d   1     -49.699  12.989  23.333  0.00  0.00    -0.082 Cl
ATOM      7  C   UNL d   1     -50.761  13.962  23.477  0.00  0.00     0.012 A 
ATOM      8  C   UNL d   1     -51.030  14.738  23.406  0.00  0.00     0.002 A 
ATOM      9  C   UNL d   1     -50.527  15.336  23.121  0.00  0.00     0.012 A 
ATOM     10  C   UNL d   1     -49.755  15.162  22.906  0.00  0.00     0.071 A 
ATOM     11 CL   UNL d   1     -49.254  15.755  22.622  0.00  0.00    -0.082 Cl
ENDBRANCH   1   4
BRANCH   1  12
ATOM     12  N   UNL d   1     -47.887  14.030  22.533  0.00  0.00    -0.152 NA
BRANCH  12  13
ATOM     13  C   UNL d   1     -47.457  13.456  22.964  0.00  0.00     0.173 C 
BRANCH  13  14
ATOM     14  C   UNL d   1     -46.663  13.302  22.761  0.00  0.00     0.285 C 
ATOM     15  N   UNL d   1     -46.295  12.595  22.981  0.00  0.00    -0.271 N 
ATOM     16  C   UNL d   1     -46.762  12.066  23.406  0.00  0.00     0.083 A 
ATOM     17  C   UNL d   1     -45.518  12.515  22.748  0.00  0.00     0.083 A 
ATOM     18  C   UNL d   1     -46.553  11.327  23.697  0.00  0.00     0.019 A 
ATOM     19  C   UNL d   1     -45.833  10.936  23.637  0.00  0.00     0.002 A 
ATOM     20  C   UNL d   1     -45.152  11.176  23.280  0.00  0.00     0.002 A 
ATOM     21  C   UNL d   1     -45.006  11.882  22.881  0.00  0.00     0.019 A 
ATOM     22  O   UNL d   1     -46.345  13.760  22.424  0.00  0.00    -0.265 OA
ENDBRANCH  13  14
ENDBRANCH  12  13
ENDBRANCH   1  12
TORSDOF 4
ENDMDL
MODEL 3
REMARK VINA RESULT:      -6.5      1.525      4.499
REMARK  4 active torsions:
REMARK  status: ('A' for Active; 'I' for Inactive)
REMARK    1  A    between atoms: C_2  and  S_1 
REMARK    2  A    between atoms: N_3  and  S_1 
REMARK    3  A    between atoms: C_6  and  N_3 
REMARK    4  A    between atoms: C_4  and  C_6 
REMARK       I    between atoms: N_5  and  C_4 
ROOT
ATOM      1  S   UNL d   1     -48.586  13.878  22.432  0.00  0.00     0.287 S 
ATOM      2  O   UNL d   1     -48.517  13.942  23.264  0.00  0.00    -0.198 OA
ATOM      3  O   UNL d   1     -48.667  13.815  21.596  0.00  0.00    -0.198 OA
ENDROOT
BRANCH   1   4
ATOM      4  C   UNL d   1     -49.431  13.974  22.498  0.00  0.00     0.126 A 
ATOM      5  C   UNL d   1     -49.747  14.699  22.750  0.00  0.00     0.071 A 
ATOM      6 CL   UNL d   1     -49.245  15.351  22.944  0.00  0.00    -0.082 Cl
ATOM      7  C   UNL d   1     -50.573  14.790  22.813  0.00  0.00     0.012 A 
ATOM      8  C   UNL d   1     -51.062  14.154  22.624  0.00  0.00     0.002 A 
ATOM      9  C   UNL d   1     -50.738  13.431  22.373  0.00  0.00     0.012 A 
ATOM     10  C   UNL d   1     -49.925  13.340  22.309  0.00  0.00     0.071 A 
ATOM     11 CL   UNL d   1     -49.600  12.622  22.060  0.00  0.00    -0.082 Cl
ENDBRANCH   1   4
BRANCH   1  12
ATOM     12  N   UNL d   1     -47.755  13.784  22.366  0.00  0.00    -0.152 NA
BRANCH  12  13
ATOM     13  C   UNL d   1     -47.371  13.179  22.798  0.00  0.00     0.173 C 
BRANCH  13  14
ATOM     14  C   UNL d   1     -46.562  13.030  22.664  0.00  0.00     0.285 C 
ATOM     15  N   UNL d   1     -46.204  12.338  22.941  0.00  0.00    -0.271 N 
ATOM     16  C   UNL d   1     -46.695  11.819  23.349  0.00  0.00     0.083 A 
ATOM     17  C   UNL d   1     -45.410  12.261  22.772  0.00  0.00     0.083 A 
ATOM     18  C   UNL d   1     -46.501  11.095  23.686  0.00  0.00     0.019 A 
ATOM     19  C   UNL d   1     -45.773  10.714  23.698  0.00  0.00     0.002 A 
ATOM     20  C   UNL d   1     -45.070  10.950  23.385  0.00  0.00     0.002 A 
ATOM     21  C   UNL d   1     -44.901  11.641  22.970  0.00  0.00     0.019 A 
ATOM     22  O   UNL d   1     -46.225  13.479  22.334  0.00  0.00    -0.265 OA
ENDBRANCH  13  14
ENDBRANCH  12  13
ENDBRANCH   1  12
TORSDOF 4
ENDMDL
MODEL 4
REMARK VINA RESULT:      -5.8      8.812      9.998
REMARK  4 active torsions:
REMARK  status: ('A' for Active; 'I' for Inactive)
REMARK    1  A    between atoms: C_2  and  S_1 
REMARK    2  A    between atoms: N_3  and  S_1 
REMARK    3  A    between atoms: C_6  and  N_3 
REMARK    4  A    between atoms: C_4  and  C_6 
REMARK       I    between atoms: N_5  and  C_4 
ROOT
ATOM      1  S   UNL d   1     -39.558  14.340  18.259  0.00  0.00     0.287 S 
ATOM      2  O   UNL d   1     -40.167  13.816  18.023  0.00  0.00    -0.198 OA
ATOM      3  O   UNL d   1     -38.940  14.867  18.485  0.00  0.00    -0.198 OA
ENDROOT
BRANCH   1   4
ATOM      4  C   UNL d   1     -39.247  14.329  17.465  0.00  0.00     0.126 A 
ATOM      5  C   UNL d   1     -38.810  13.675  17.200  0.00  0.00     0.071 A 
ATOM      6 CL   UNL d   1     -38.666  13.013  17.705  0.00  0.00    -0.082 Cl
ATOM      7  C   UNL d   1     -38.507  13.667  16.423  0.00  0.00     0.012 A 
ATOM      8  C   UNL d   1     -38.648  14.314  15.932  0.00  0.00     0.002 A 
ATOM      9  C   UNL d   1     -39.086  14.965  16.205  0.00  0.00     0.012 A 
ATOM     10  C   UNL d   1     -39.385  14.974  16.969  0.00  0.00     0.071 A 
ATOM     11 CL   UNL d   1     -39.821  15.622  17.242  0.00  0.00    -0.082 Cl
ENDBRANCH   1   4
BRANCH   1  12
ATOM     12  N   UNL d   1     -39.863  14.351  19.041  0.00  0.00    -0.152 NA
BRANCH  12  13
ATOM     13  C   UNL d   1     -39.352  14.203  19.687  0.00  0.00     0.173 C 
BRANCH  13  14
ATOM     14  C   UNL d   1     -39.654  14.233  20.463  0.00  0.00     0.285 C 
ATOM     15  N   UNL d   1     -39.223  13.932  21.101  0.00  0.00    -0.271 N 
ATOM     16  C   UNL d   1     -38.488  13.608  20.916  0.00  0.00     0.083 A 
ATOM     17  C   UNL d   1     -39.582  13.995  21.830  0.00  0.00     0.083 A 
ATOM     18  C   UNL d   1     -37.940  13.271  21.426  0.00  0.00     0.019 A 
ATOM     19  C   UNL d   1     -37.989  13.173  22.240  0.00  0.00     0.002 A 
ATOM     20  C   UNL d   1     -38.582  13.382  22.743  0.00  0.00     0.002 A 
ATOM     21  C   UNL d   1     -39.297  13.750  22.565  0.00  0.00     0.019 A 
ATOM     22  O   UNL d   1     -40.242  14.501  20.546  0.00  0.00    -0.265 OA
ENDBRANCH  13  14
ENDBRANCH  12  13
ENDBRANCH   1  12
TORSDOF 4
ENDMDL
MODEL 5
REMARK VINA RESULT:      -5.5      8.609      9.980
REMARK  4 active torsions:
REMARK  status: ('A' for Active; 'I' for Inactive)
REMARK    1  A    between atoms: C_2  and  S_1 
REMARK    2  A    between atoms: N_3  and  S_1 
REMARK    3  A    between atoms: C_6  and  N_3 
REMARK    4  A    between atoms: C_4  and  C_6 
REMARK       I    between atoms: N_5  and  C_4 
ROOT
ATOM      1  S   UNL d   1     -39.432  14.118  17.825  0.00  0.00     0.287 S 
ATOM      2  O   UNL d   1     -38.991  14.812  17.986  0.00  0.00    -0.198 OA
ATOM      3  O   UNL d   1     -39.868  13.418  17.653  0.00  0.00    -0.198 OA
ENDROOT
BRANCH   1   4
ATOM      4  C   UNL d   1     -38.953  13.978  17.133  0.00  0.00     0.126 A 
ATOM      5  C   UNL d   1     -39.044  14.459  16.463  0.00  0.00     0.071 A 
ATOM      6 CL   UNL d   1     -39.607  15.090  16.451  0.00  0.00    -0.082 Cl
ATOM      7  C   UNL d   1     -38.575  14.321  15.788  0.00  0.00     0.012 A 
ATOM      8  C   UNL d   1     -38.027  13.706  15.801  0.00  0.00     0.002 A 
ATOM      9  C   UNL d   1     -37.941  13.229  16.476  0.00  0.00     0.012 A 
ATOM     10  C   UNL d   1     -38.402  13.364  17.141  0.00  0.00     0.071 A 
ATOM     11 CL   UNL d   1     -38.318  12.890  17.814  0.00  0.00    -0.082 Cl
ENDBRANCH   1   4
BRANCH   1  12
ATOM     12  N   UNL d   1     -39.903  14.254  18.506  0.00  0.00    -0.152 NA
BRANCH  12  13
ATOM     13  C   UNL d   1     -39.563  14.615  19.180  0.00  0.00     0.173 C 
BRANCH  13  14
ATOM     14  C   UNL d   1     -40.049  14.807  19.830  0.00  0.00     0.285 C 
ATOM     15  N   UNL d   1     -39.733  15.155  20.510  0.00  0.00    -0.271 N 
ATOM     16  C   UNL d   1     -38.921  15.294  20.497  0.00  0.00     0.083 A 
ATOM     17  C   UNL d   1     -40.267  15.315  21.104  0.00  0.00     0.083 A 
ATOM     18  C   UNL d   1     -38.454  15.629  21.085  0.00  0.00     0.019 A 
ATOM     19  C   UNL d   1     -38.681  15.906  21.824  0.00  0.00     0.002 A 
ATOM     20  C   UNL d   1     -39.413  15.920  22.160  0.00  0.00     0.002 A 
ATOM     21  C   UNL d   1     -40.126  15.657  21.843  0.00  0.00     0.019 A 
ATOM     22  O   UNL d   1     -40.684  14.673  19.780  0.00  0.00    -0.265 OA
ENDBRANCH  13  14
ENDBRANCH  12  13
ENDBRANCH   1  12
TORSDOF 4
ENDMDL
MODEL 6
REMARK VINA RESULT:      -5.4      8.579      9.138
REMARK  4 active torsions:
REMARK  status: ('A' for Active; 'I' for Inactive)
REMARK    1  A    between atoms: C_2  and  S_1 
REMARK    2  A    between atoms: N_3  and  S_1 
REMARK    3  A    between atoms: C_6  and  N_3 
REMARK    4  A    between atoms: C_4  and  C_6 
REMARK       I    between atoms: N_5  and  C_4 
ROOT
ATOM      1  S   UNL d   1     -39.711  15.036  21.206  0.00  0.00     0.287 S 
ATOM      2  O   UNL d   1     -39.105  15.552  20.946  0.00  0.00    -0.198 OA
ATOM      3  O   UNL d   1     -40.313  14.511  21.477  0.00  0.00    -0.198 OA
ENDROOT
BRANCH   1   4
ATOM      4  C   UNL d   1     -39.191  14.739  21.814  0.00  0.00     0.126 A 
ATOM      5  C   UNL d   1     -38.820  14.003  21.718  0.00  0.00     0.071 A 
ATOM      6 CL   UNL d   1     -38.946  13.537  21.023  0.00  0.00    -0.082 Cl
ATOM      7  C   UNL d   1     -38.312  13.714  22.313  0.00  0.00     0.012 A 
ATOM      8  C   UNL d   1     -38.190  14.169  22.989  0.00  0.00     0.002 A 
ATOM      9  C   UNL d   1     -38.566  14.905  23.079  0.00  0.00     0.012 A 
ATOM     10  C   UNL d   1     -39.065  15.190  22.493  0.00  0.00     0.071 A 
ATOM     11 CL   UNL d   1     -39.440  15.922  22.580  0.00  0.00    -0.082 Cl
ENDBRANCH   1   4
BRANCH   1  12
ATOM     12  N   UNL d   1     -40.223  15.327  20.609  0.00  0.00    -0.152 NA
BRANCH  12  13
ATOM     13  C   UNL d   1     -40.014  15.235  19.804  0.00  0.00     0.173 C 
BRANCH  13  14
ATOM     14  C   UNL d   1     -40.514  15.544  19.213  0.00  0.00     0.285 C 
ATOM     15  N   UNL d   1     -40.385  15.377  18.413  0.00  0.00    -0.271 N 
ATOM     16  C   UNL d   1     -39.740  14.892  18.249  0.00  0.00     0.083 A 
ATOM     17  C   UNL d   1     -40.914  15.714  17.894  0.00  0.00     0.083 A 
ATOM     18  C   UNL d   1     -39.475  14.632  17.516  0.00  0.00     0.019 A 
ATOM     19  C   UNL d   1     -39.786  14.790  16.773  0.00  0.00     0.002 A 
ATOM     20  C   UNL d   1     -40.426  15.237  16.573  0.00  0.00     0.002 A 
ATOM     21  C   UNL d   1     -40.934  15.653  17.070  0.00  0.00     0.019 A 
ATOM     22  O   UNL d   1     -41.008  15.922  19.406  0.00  0.00    -0.265 OA
ENDBRANCH  13  14
ENDBRANCH  12  13
ENDBRANCH   1  12
TORSDOF 4
ENDMDL
MODEL 7
REMARK VINA RESULT:      -5.3      8.165     10.387
REMARK  4 active torsions:
REMARK  status: ('A' for Active; 'I' for Inactive)
REMARK    1  A    between atoms: C_2  and  S_1 
REMARK    2  A    between atoms: N_3  and  S_1 
REMARK    3  A    between atoms: C_6  and  N_3 
REMARK    4  A    between atoms: C_4  and  C_6 
REMARK       I    between atoms: N_5  and  C_4 
ROOT
ATOM      1  S   UNL d   1     -39.872  14.392  19.262  0.00  0.00     0.287 S 
ATOM      2  O   UNL d   1     -39.310  14.001  19.745  0.00  0.00    -0.198 OA
ATOM      3  O   UNL d   1     -40.442  14.792  18.787  0.00  0.00    -0.198 OA
ENDROOT
BRANCH   1   4
ATOM      4  C   UNL d   1     -40.111  14.865  19.930  0.00  0.00     0.126 A 
ATOM      5  C   UNL d   1     -40.839  14.719  20.302  0.00  0.00     0.071 A 
ATOM      6 CL   UNL d   1     -41.353  14.106  20.030  0.00  0.00    -0.082 Cl
ATOM      7  C   UNL d   1     -41.071  15.183  20.955  0.00  0.00     0.012 A 
ATOM      8  C   UNL d   1     -40.569  15.781  21.219  0.00  0.00     0.002 A 
ATOM      9  C   UNL d   1     -39.841  15.921  20.842  0.00  0.00     0.012 A 
ATOM     10  C   UNL d   1     -39.612  15.465  20.199  0.00  0.00     0.071 A 
ATOM     11 CL   UNL d   1     -38.889  15.603  19.822  0.00  0.00    -0.082 Cl
ENDBRANCH   1   4
BRANCH   1  12
ATOM     12  N   UNL d   1     -39.638  13.927  18.604  0.00  0.00    -0.152 NA
BRANCH  12  13
ATOM     13  C   UNL d   1     -39.350  14.302  17.914  0.00  0.00     0.173 C 
BRANCH  13  14
ATOM     14  C   UNL d   1     -39.022  13.838  17.303  0.00  0.00     0.285 C 
ATOM     15  N   UNL d   1     -38.711  14.189  16.622  0.00  0.00    -0.271 N 
ATOM     16  C   UNL d   1     -38.748  15.011  16.593  0.00  0.00     0.083 A 
ATOM     17  C   UNL d   1     -38.409  13.673  16.068  0.00  0.00     0.083 A 
ATOM     18  C   UNL d   1     -38.487  15.510  15.995  0.00  0.00     0.019 A 
ATOM     19  C   UNL d   1     -38.127  15.313  15.284  0.00  0.00     0.002 A 
ATOM     20  C   UNL d   1     -37.940  14.586  14.992  0.00  0.00     0.002 A 
ATOM     21  C   UNL d   1     -38.063  13.849  15.338  0.00  0.00     0.019 A 
ATOM     22  O   UNL d   1     -39.022  13.192  17.384  0.00  0.00    -0.265 OA
ENDBRANCH  13  14
ENDBRANCH  12  13
ENDBRANCH   1  12
TORSDOF 4
ENDMDL
