MODEL 1
REMARK VINA RESULT:      -5.8      0.000      0.000
REMARK  3 active torsions:
REMARK  status: ('A' for Active; 'I' for Inactive)
REMARK    1  A    between atoms: C_7  and  C_1 
REMARK    2  A    between atoms: N_8  and  C_7 
REMARK    3  A    between atoms: C_11  and  N_8 
ROOT
ATOM      1  C   UNL d   1     -41.190-122.384 -52.066  0.00  0.00     0.145 A 
ATOM      2  C   UNL d   1     -41.161-121.732 -51.572  0.00  0.00     0.304 A 
ATOM      3  C   UNL d   1     -41.200-123.144 -51.745  0.00  0.00     0.304 A 
ATOM      4  O   UNL d   1     -41.143-121.833 -50.753  0.00  0.00    -0.277 OA
ATOM      5  O   UNL d   1     -41.181-123.245 -50.926  0.00  0.00    -0.277 OA
ATOM      6  C   UNL d   1     -41.153-122.586 -50.431  0.00  0.00     0.203 A 
ATOM      7  O   UNL d   1     -41.151-120.955 -51.914  0.00  0.00    -0.259 OA
ATOM      8  O   UNL d   1     -41.229-123.816 -52.265  0.00  0.00    -0.259 OA
ATOM      9  C   UNL d   1     -41.156-123.247 -49.918  0.00  0.00     0.062 C 
ATOM     10  C   UNL d   1     -41.124-122.043 -49.801  0.00  0.00     0.062 C 
ENDROOT
BRANCH   1  11
ATOM     11  C   UNL d   1     -41.208-122.283 -52.893  0.00  0.00     0.111 C 
BRANCH  11  12
ATOM     12  N   UNL d   1     -41.902-122.440 -53.311  0.00  0.00    -0.225 NA
BRANCH  12  13
ATOM     13  C   UNL d   1     -41.945-122.264 -54.124  0.00  0.00     0.163 A 
ATOM     14  N   UNL d   1     -42.587-121.844 -54.420  0.00  0.00    -0.225 NA
ATOM     15  C   UNL d   1     -42.630-121.669 -55.230  0.00  0.00     0.101 A 
ATOM     16  C   UNL d   1     -42.031-121.916 -55.736  0.00  0.00     0.021 A 
ATOM     17  C   UNL d   1     -41.387-122.338 -55.441  0.00  0.00     0.005 A 
ATOM     18  C   UNL d   1     -41.344-122.513 -54.630  0.00  0.00     0.039 A 
ENDBRANCH  12  13
ENDBRANCH  11  12
ENDBRANCH   1  11
TORSDOF 3
ENDMDL
MODEL 2
REMARK VINA RESULT:      -5.0      1.332      3.897
REMARK  3 active torsions:
REMARK  status: ('A' for Active; 'I' for Inactive)
REMARK    1  A    between atoms: C_7  and  C_1 
REMARK    2  A    between atoms: N_8  and  C_7 
REMARK    3  A    between atoms: C_11  and  N_8 
ROOT
ATOM      1  C   UNL d   1     -41.513-122.435 -53.437  0.00  0.00     0.145 A 
ATOM      2  C   UNL d   1     -41.793-121.713 -53.703  0.00  0.00     0.304 A 
ATOM      3  C   UNL d   1     -41.428-123.064 -53.963  0.00  0.00     0.304 A 
ATOM      4  O   UNL d   1     -41.991-121.614 -54.499  0.00  0.00    -0.277 OA
ATOM      5  O   UNL d   1     -41.626-122.964 -54.759  0.00  0.00    -0.277 OA
ATOM      6  C   UNL d   1     -41.908-122.236 -55.024  0.00  0.00     0.203 A 
ATOM      7  O   UNL d   1     -41.877-121.073 -53.152  0.00  0.00    -0.259 OA
ATOM      8  O   UNL d   1     -41.137-123.810 -53.679  0.00  0.00    -0.259 OA
ATOM      9  C   UNL d   1     -41.897-122.729 -55.701  0.00  0.00     0.062 C 
ATOM     10  C   UNL d   1     -42.200-121.584 -55.450  0.00  0.00     0.062 C 
ENDROOT
BRANCH   1  11
ATOM     11  C   UNL d   1     -41.313-122.535 -52.634  0.00  0.00     0.111 C 
BRANCH  11  12
ATOM     12  N   UNL d   1     -41.907-122.657 -52.075  0.00  0.00    -0.225 NA
BRANCH  12  13
ATOM     13  C   UNL d   1     -41.706-122.863 -51.294  0.00  0.00     0.163 A 
ATOM     14  N   UNL d   1     -41.888-123.612 -51.007  0.00  0.00    -0.225 NA
ATOM     15  C   UNL d   1     -41.687-123.817 -50.228  0.00  0.00     0.101 A 
ATOM     16  C   UNL d   1     -41.306-123.273 -49.744  0.00  0.00     0.021 A 
ATOM     17  C   UNL d   1     -41.123-122.521 -50.031  0.00  0.00     0.005 A 
ATOM     18  C   UNL d   1     -41.324-122.316 -50.809  0.00  0.00     0.039 A 
ENDBRANCH  12  13
ENDBRANCH  11  12
ENDBRANCH   1  11
TORSDOF 3
ENDMDL
MODEL 3
REMARK VINA RESULT:      -4.9      1.451      4.179
REMARK  3 active torsions:
REMARK  status: ('A' for Active; 'I' for Inactive)
REMARK    1  A    between atoms: C_7  and  C_1 
REMARK    2  A    between atoms: N_8  and  C_7 
REMARK    3  A    between atoms: C_11  and  N_8 
ROOT
ATOM      1  C   UNL d   1     -41.432-122.412 -52.214  0.00  0.00     0.145 A 
ATOM      2  C   UNL d   1     -41.614-123.074 -52.660  0.00  0.00     0.304 A 
ATOM      3  C   UNL d   1     -41.314-121.685 -52.585  0.00  0.00     0.304 A 
ATOM      4  O   UNL d   1     -41.680-123.016 -53.481  0.00  0.00    -0.277 OA
ATOM      5  O   UNL d   1     -41.380-121.627 -53.407  0.00  0.00    -0.277 OA
ATOM      6  C   UNL d   1     -41.563-122.296 -53.853  0.00  0.00     0.203 A 
ATOM      7  O   UNL d   1     -41.733-123.817 -52.266  0.00  0.00    -0.259 OA
ATOM      8  O   UNL d   1     -41.125-121.002 -52.116  0.00  0.00    -0.259 OA
ATOM      9  C   UNL d   1     -41.485-121.674 -54.408  0.00  0.00     0.062 C 
ATOM     10  C   UNL d   1     -41.738-122.858 -54.441  0.00  0.00     0.062 C 
ENDROOT
BRANCH   1  11
ATOM     11  C   UNL d   1     -41.365-122.470 -51.386  0.00  0.00     0.111 C 
BRANCH  11  12
ATOM     12  N   UNL d   1     -42.039-122.408 -50.914  0.00  0.00    -0.225 NA
BRANCH  12  13
ATOM     13  C   UNL d   1     -42.009-122.640 -50.115  0.00  0.00     0.163 A 
ATOM     14  N   UNL d   1     -41.286-122.820 -49.766  0.00  0.00    -0.225 NA
ATOM     15  C   UNL d   1     -41.256-123.052 -48.969  0.00  0.00     0.101 A 
ATOM     16  C   UNL d   1     -41.949-123.101 -48.529  0.00  0.00     0.021 A 
ATOM     17  C   UNL d   1     -42.674-122.921 -48.878  0.00  0.00     0.005 A 
ATOM     18  C   UNL d   1     -42.704-122.690 -49.674  0.00  0.00     0.039 A 
ENDBRANCH  12  13
ENDBRANCH  11  12
ENDBRANCH   1  11
TORSDOF 3
ENDMDL
MODEL 4
REMARK VINA RESULT:      -3.0      2.002      2.971
REMARK  3 active torsions:
REMARK  status: ('A' for Active; 'I' for Inactive)
REMARK    1  A    between atoms: C_7  and  C_1 
REMARK    2  A    between atoms: N_8  and  C_7 
REMARK    3  A    between atoms: C_11  and  N_8 
ROOT
ATOM      1  C   UNL d   1     -42.320-122.997 -49.450  0.00  0.00     0.145 A 
ATOM      2  C   UNL d   1     -42.925-122.615 -49.053  0.00  0.00     0.304 A 
ATOM      3  C   UNL d   1     -41.754-123.423 -49.028  0.00  0.00     0.304 A 
ATOM      4  O   UNL d   1     -42.970-122.654 -48.229  0.00  0.00    -0.277 OA
ATOM      5  O   UNL d   1     -41.799-123.463 -48.204  0.00  0.00    -0.277 OA
ATOM      6  C   UNL d   1     -42.410-123.076 -47.807  0.00  0.00     0.203 A 
ATOM      7  O   UNL d   1     -43.502-122.179 -49.498  0.00  0.00    -0.259 OA
ATOM      8  O   UNL d   1     -41.129-123.817 -49.448  0.00  0.00    -0.259 OA
ATOM      9  C   UNL d   1     -41.953-123.442 -47.208  0.00  0.00     0.062 C 
ATOM     10  C   UNL d   1     -42.947-122.753 -47.260  0.00  0.00     0.062 C 
ENDROOT
BRANCH   1  11
ATOM     11  C   UNL d   1     -42.275-122.957 -50.281  0.00  0.00     0.111 C 
BRANCH  11  12
ATOM     12  N   UNL d   1     -42.046-122.254 -50.647  0.00  0.00    -0.225 NA
BRANCH  12  13
ATOM     13  C   UNL d   1     -41.781-122.264 -51.436  0.00  0.00     0.163 A 
ATOM     14  N   UNL d   1     -41.889-122.936 -51.898  0.00  0.00    -0.225 NA
ATOM     15  C   UNL d   1     -41.624-122.946 -52.684  0.00  0.00     0.101 A 
ATOM     16  C   UNL d   1     -41.254-122.284 -53.002  0.00  0.00     0.021 A 
ATOM     17  C   UNL d   1     -41.145-121.609 -52.540  0.00  0.00     0.005 A 
ATOM     18  C   UNL d   1     -41.410-121.599 -51.754  0.00  0.00     0.039 A 
ENDBRANCH  12  13
ENDBRANCH  11  12
ENDBRANCH   1  11
TORSDOF 3
ENDMDL
