MODEL 1
REMARK VINA RESULT:      88.9      0.000      0.000
REMARK  4 active torsions:
REMARK  status: ('A' for Active; 'I' for Inactive)
REMARK    1  A    between atoms: S_2  and  N_1 
REMARK    2  A    between atoms: C_10  and  S_2 
REMARK    3  A    between atoms: C_7  and  C_4 
REMARK    4  A    between atoms: C_11  and  C_5 
ROOT
ATOM      1  N   UNL d   1     -57.461 -99.279 -44.667  0.00  0.00    -0.152 N 
ATOM      2  N   UNL d   1     -57.634 -99.281 -45.491  0.00  0.00    -0.155 NA
ATOM      3  C   UNL d   1     -58.141 -99.029 -44.261  0.00  0.00     0.099 A 
ATOM      4  C   UNL d   1     -58.420 -99.034 -45.601  0.00  0.00     0.104 A 
ATOM      5  C   UNL d   1     -58.736 -98.877 -44.847  0.00  0.00     0.041 A 
ENDROOT
BRANCH   1   6
ATOM      6  S   UNL d   1     -56.760 -99.483 -44.316  0.00  0.00     0.286 S 
ATOM      7  O   UNL d   1     -56.326 -98.757 -44.670  0.00  0.00    -0.198 OA
ATOM      8  O   UNL d   1     -57.137-100.151 -43.985  0.00  0.00    -0.198 OA
BRANCH   6   9
ATOM      9  C   UNL d   1     -56.195 -99.883 -43.875  0.00  0.00     0.105 A 
ATOM     10  C   UNL d   1     -55.412 -99.620 -43.870  0.00  0.00     0.013 A 
ATOM     11  C   UNL d   1     -54.844-100.023 -43.426  0.00  0.00     0.001 A 
ATOM     12  C   UNL d   1     -55.076-100.677 -43.001  0.00  0.00     0.000 A 
ATOM     13  C   UNL d   1     -55.842-100.953 -42.993  0.00  0.00     0.001 A 
ATOM     14  C   UNL d   1     -56.410-100.550 -43.437  0.00  0.00     0.013 A 
ENDBRANCH   6   9
ENDBRANCH   1   6
BRANCH   3  15
ATOM     15  C   UNL d   1     -58.229 -98.943 -43.445  0.00  0.00     0.058 A 
ATOM     16  C   UNL d   1     -58.979 -98.850 -43.146  0.00  0.00     0.197 A 
ATOM     17  O   UNL d   1     -59.646 -98.838 -43.609  0.00  0.00    -0.286 OA
ATOM     18  C   UNL d   1     -59.070 -98.761 -42.302  0.00  0.00     0.042 A 
ATOM     19  C   UNL d   1     -58.404 -98.770 -41.812  0.00  0.00     0.003 A 
ATOM     20  C   UNL d   1     -57.671 -98.867 -42.168  0.00  0.00     0.000 A 
ATOM     21  C   UNL d   1     -57.586 -98.951 -42.958  0.00  0.00     0.005 A 
ENDBRANCH   3  15
BRANCH   4  22
ATOM     22  C   UNL d   1     -58.791 -98.963 -46.315  0.00  0.00     0.019 A 
ATOM     23  C   UNL d   1     -58.345 -98.982 -47.014  0.00  0.00     0.002 A 
ATOM     24  C   UNL d   1     -58.717 -98.911 -47.731  0.00  0.00     0.000 A 
ATOM     25  C   UNL d   1     -59.500 -98.826 -47.758  0.00  0.00     0.000 A 
ATOM     26  C   UNL d   1     -59.959 -98.804 -47.099  0.00  0.00     0.000 A 
ATOM     27  C   UNL d   1     -59.858 -98.756 -48.499  0.00  0.00     0.000 C 
ATOM     28  C   UNL d   1     -59.601 -98.874 -46.356  0.00  0.00     0.002 A 
ENDBRANCH   4  22
TORSDOF 4
ENDMDL
