MODEL 1
REMARK VINA RESULT:     102.1      0.000      0.000
REMARK  9 active torsions:
REMARK  status: ('A' for Active; 'I' for Inactive)
REMARK    1  A    between atoms: C_2  and  C_1 
REMARK    2  A    between atoms: C_3  and  C_1 
REMARK    3  A    between atoms: C_12  and  C_1 
REMARK    4  A    between atoms: C_13  and  N_4 
REMARK    5  A    between atoms: C_14  and  N_5 
REMARK    6  A    between atoms: C_17  and  C_12 
REMARK    7  A    between atoms: N_16  and  C_15 
REMARK    8  A    between atoms: C_32  and  N_16 
REMARK    9  A    between atoms: C_33  and  N_16 
ROOT
ATOM      1  C   UNL d   1      44.756 -15.540  37.491  0.00  0.00     0.075 C 
ENDROOT
BRANCH   1   2
ATOM      2  C   UNL d   1      44.057 -15.418  37.069  0.00  0.00     0.191 A 
ATOM      3  N   UNL d   1      43.633 -15.987  36.670  0.00  0.00    -0.192 N 
ATOM      4  N   UNL d   1      42.979 -15.626  36.330  0.00  0.00    -0.039 NA
ATOM      5  N   UNL d   1      43.004 -14.833  36.523  0.00  0.00    -0.022 NA
ATOM      6  N   UNL d   1      43.661 -14.702  36.974  0.00  0.00    -0.108 NA
BRANCH   3   7
ATOM      7  C   UNL d   1      43.789 -16.792  36.592  0.00  0.00     0.086 A 
ATOM      8  C   UNL d   1      43.199 -17.351  36.678  0.00  0.00     0.019 A 
ATOM      9  C   UNL d   1      43.364 -18.154  36.598  0.00  0.00     0.002 A 
ATOM     10  C   UNL d   1      44.119 -18.399  36.433  0.00  0.00     0.000 A 
ATOM     11  C   UNL d   1      44.727 -17.850  36.343  0.00  0.00     0.002 A 
ATOM     12  C   UNL d   1      44.286 -19.216  36.352  0.00  0.00     0.000 C 
ATOM     13  C   UNL d   1      44.562 -17.046  36.423  0.00  0.00     0.019 A 
ENDBRANCH   3   7
ENDBRANCH   1   2
BRANCH   1  14
ATOM     14  C   UNL d   1      45.471 -15.364  37.135  0.00  0.00     0.191 A 
ATOM     15  N   UNL d   1      45.817 -14.639  37.267  0.00  0.00    -0.192 N 
ATOM     16  N   UNL d   1      46.518 -14.615  36.848  0.00  0.00    -0.039 NA
ATOM     17  N   UNL d   1      46.611 -15.315  36.457  0.00  0.00    -0.022 NA
ATOM     18  N   UNL d   1      45.960 -15.785  36.634  0.00  0.00    -0.108 NA
BRANCH  15  19
ATOM     19  C   UNL d   1      45.516 -14.047  37.735  0.00  0.00     0.086 A 
ATOM     20  C   UNL d   1      45.359 -14.185  38.529  0.00  0.00     0.019 A 
ATOM     21  C   UNL d   1      45.056 -13.596  39.009  0.00  0.00     0.002 A 
ATOM     22  C   UNL d   1      44.907 -12.850  38.678  0.00  0.00     0.000 A 
ATOM     23  C   UNL d   1      45.062 -12.706  37.886  0.00  0.00     0.002 A 
ATOM     24  C   UNL d   1      44.596 -12.239  39.162  0.00  0.00     0.000 C 
ATOM     25  C   UNL d   1      45.367 -13.306  37.413  0.00  0.00     0.019 A 
ENDBRANCH  15  19
ENDBRANCH   1  14
BRANCH   1  26
ATOM     26  C   UNL d   1      44.892 -15.883  38.408  0.00  0.00     0.006 C 
BRANCH  26  27
ATOM     27  C   UNL d   1      45.256 -16.487  38.859  0.00  0.00     0.000 A 
ATOM     28  C   UNL d   1      46.075 -16.807  38.841  0.00  0.00     0.002 A 
ATOM     29  C   UNL d   1      46.310 -17.457  39.391  0.00  0.00     0.018 A 
ATOM     30  C   UNL d   1      45.724 -17.792  39.966  0.00  0.00     0.064 A 
ATOM     31  C   UNL d   1      44.895 -17.466  39.982  0.00  0.00     0.018 A 
ATOM     32  C   UNL d   1      44.662 -16.822  39.437  0.00  0.00     0.002 A 
BRANCH  30  33
ATOM     33  N   UNL d   1      45.964 -18.446  40.517  0.00  0.00    -0.304 N 
BRANCH  33  34
ATOM     34  C   UNL d   1      45.551 -18.537  41.292  0.00  0.00     0.080 C 
ATOM     35  C   UNL d   1      45.857 -18.119  42.012  0.00  0.00     0.021 C 
ENDBRANCH  33  34
BRANCH  33  36
ATOM     36  C   UNL d   1      46.614 -19.001  40.288  0.00  0.00     0.080 C 
ATOM     37  C   UNL d   1      46.634 -19.822  40.618  0.00  0.00     0.021 C 
ENDBRANCH  33  36
ENDBRANCH  30  33
ENDBRANCH  26  27
ENDBRANCH   1  26
TORSDOF 9
ENDMDL
MODEL 2
REMARK VINA RESULT:     103.9      1.330      1.825
REMARK  9 active torsions:
REMARK  status: ('A' for Active; 'I' for Inactive)
REMARK    1  A    between atoms: C_2  and  C_1 
REMARK    2  A    between atoms: C_3  and  C_1 
REMARK    3  A    between atoms: C_12  and  C_1 
REMARK    4  A    between atoms: C_13  and  N_4 
REMARK    5  A    between atoms: C_14  and  N_5 
REMARK    6  A    between atoms: C_17  and  C_12 
REMARK    7  A    between atoms: N_16  and  C_15 
REMARK    8  A    between atoms: C_32  and  N_16 
REMARK    9  A    between atoms: C_33  and  N_16 
ROOT
ATOM      1  C   UNL d   1      44.222 -15.887  37.438  0.00  0.00     0.075 C 
ENDROOT
BRANCH   1   2
ATOM      2  C   UNL d   1      43.841 -15.264  37.055  0.00  0.00     0.191 A 
ATOM      3  N   UNL d   1      43.090 -15.282  36.739  0.00  0.00    -0.192 N 
ATOM      4  N   UNL d   1      42.932 -14.546  36.414  0.00  0.00    -0.039 NA
ATOM      5  N   UNL d   1      43.588 -14.075  36.531  0.00  0.00    -0.022 NA
ATOM      6  N   UNL d   1      44.146 -14.510  36.922  0.00  0.00    -0.108 NA
BRANCH   3   7
ATOM      7  C   UNL d   1      42.548 -15.904  36.724  0.00  0.00     0.086 A 
ATOM      8  C   UNL d   1      41.811 -15.833  37.070  0.00  0.00     0.019 A 
ATOM      9  C   UNL d   1      41.275 -16.458  37.051  0.00  0.00     0.002 A 
ATOM     10  C   UNL d   1      41.476 -17.154  36.686  0.00  0.00     0.000 A 
ATOM     11  C   UNL d   1      42.216 -17.243  36.333  0.00  0.00     0.002 A 
ATOM     12  C   UNL d   1      40.932 -17.790  36.667  0.00  0.00     0.000 C 
ATOM     13  C   UNL d   1      42.752 -16.618  36.352  0.00  0.00     0.019 A 
ENDBRANCH   3   7
ENDBRANCH   1   2
BRANCH   1  14
ATOM     14  C   UNL d   1      44.750 -16.349  37.016  0.00  0.00     0.191 A 
ATOM     15  N   UNL d   1      45.491 -16.060  36.847  0.00  0.00    -0.192 N 
ATOM     16  N   UNL d   1      45.894 -16.631  36.426  0.00  0.00    -0.039 NA
ATOM     17  N   UNL d   1      45.414 -17.272  36.331  0.00  0.00    -0.022 NA
ATOM     18  N   UNL d   1      44.698 -17.100  36.698  0.00  0.00    -0.108 NA
BRANCH  15  19
ATOM     19  C   UNL d   1      45.776 -15.329  37.062  0.00  0.00     0.086 A 
ATOM     20  C   UNL d   1      45.755 -14.703  36.531  0.00  0.00     0.019 A 
ATOM     21  C   UNL d   1      46.039 -13.964  36.737  0.00  0.00     0.002 A 
ATOM     22  C   UNL d   1      46.352 -13.856  37.498  0.00  0.00     0.000 A 
ATOM     23  C   UNL d   1      46.376 -14.476  38.032  0.00  0.00     0.002 A 
ATOM     24  C   UNL d   1      46.646 -13.100  37.718  0.00  0.00     0.000 C 
ATOM     25  C   UNL d   1      46.087 -15.216  37.814  0.00  0.00     0.019 A 
ENDBRANCH  15  19
ENDBRANCH   1  14
BRANCH   1  26
ATOM     26  C   UNL d   1      44.152 -16.196  38.375  0.00  0.00     0.006 C 
BRANCH  26  27
ATOM     27  C   UNL d   1      44.439 -16.755  38.927  0.00  0.00     0.000 A 
ATOM     28  C   UNL d   1      44.752 -17.569  38.816  0.00  0.00     0.002 A 
ATOM     29  C   UNL d   1      45.021 -18.042  39.512  0.00  0.00     0.018 A 
ATOM     30  C   UNL d   1      44.977 -17.699  40.329  0.00  0.00     0.064 A 
ATOM     31  C   UNL d   1      44.659 -16.874  40.439  0.00  0.00     0.018 A 
ATOM     32  C   UNL d   1      44.393 -16.406  39.750  0.00  0.00     0.002 A 
BRANCH  30  33
ATOM     33  N   UNL d   1      45.248 -18.177  41.027  0.00  0.00    -0.304 N 
BRANCH  33  34
ATOM     34  C   UNL d   1      44.823 -18.922  41.238  0.00  0.00     0.080 C 
ATOM     35  C   UNL d   1      45.276 -19.676  41.355  0.00  0.00     0.021 C 
ENDBRANCH  33  34
BRANCH  33  36
ATOM     36  C   UNL d   1      45.941 -17.906  41.506  0.00  0.00     0.080 C 
ATOM     37  C   UNL d   1      45.887 -17.880  42.389  0.00  0.00     0.021 C 
ENDBRANCH  33  36
ENDBRANCH  30  33
ENDBRANCH  26  27
ENDBRANCH   1  26
TORSDOF 9
ENDMDL
