MODEL 1
REMARK VINA RESULT:      -2.1      0.000      0.000
REMARK  6 active torsions:
REMARK  status: ('A' for Active; 'I' for Inactive)
REMARK    1  A    between atoms: C_10  and  N_1 
REMARK    2  A    between atoms: S_8  and  C_6 
REMARK    3  A    between atoms: C_13  and  S_8 
REMARK    4  A    between atoms: C_11  and  C_13 
REMARK    5  A    between atoms: O_18  and  C_11 
REMARK    6  A    between atoms: C_23  and  O_18 
ROOT
ATOM      1  N   UNL d   1      29.361  16.753 -24.199  0.00  0.00    -0.193 N 
ATOM      2  N   UNL d   1      29.421  17.355 -24.749  0.00  0.00    -0.058 NA
ATOM      3  C   UNL d   1      30.121  16.568 -23.948  0.00  0.00     0.188 A 
ATOM      4  C   UNL d   1      30.643  17.063 -24.352  0.00  0.00     0.164 A 
ATOM      5  N   UNL d   1      30.197  17.546 -24.844  0.00  0.00    -0.125 NA
ATOM      6  C   UNL d   1      31.445  17.012 -24.221  0.00  0.00     0.135 A 
ATOM      7  N   UNL d   1      30.401  16.021 -23.414  0.00  0.00    -0.203 NA
ATOM      8  N   UNL d   1      31.736  16.458 -23.679  0.00  0.00    -0.216 NA
ATOM      9  C   UNL d   1      31.214  15.963 -23.276  0.00  0.00     0.201 A 
ENDROOT
BRANCH   6  10
ATOM     10  S   UNL d   1      31.968  17.507 -24.624  0.00  0.00    -0.061 SA
BRANCH  10  11
ATOM     11  C   UNL d   1      32.711  17.651 -24.327  0.00  0.00     0.094 C 
ATOM     12  C   UNL d   1      33.209  17.020 -24.163  0.00  0.00     0.013 C 
BRANCH  11  13
ATOM     13  C   UNL d   1      32.956  18.428 -24.194  0.00  0.00     0.306 C 
ATOM     14  O   UNL d   1      33.241  18.889 -24.809  0.00  0.00    -0.258 OA
BRANCH  13  15
ATOM     15  O   UNL d   1      32.912  18.740 -23.429  0.00  0.00    -0.271 OA
BRANCH  15  16
ATOM     16  C   UNL d   1      33.220  19.489 -23.272  0.00  0.00     0.126 C 
ATOM     17  C   UNL d   1      33.078  19.850 -22.540  0.00  0.00     0.029 C 
ENDBRANCH  15  16
ENDBRANCH  13  15
ENDBRANCH  11  13
ENDBRANCH  10  11
ENDBRANCH   6  10
BRANCH   1  18
ATOM     18  C   UNL d   1      28.652  16.424 -23.968  0.00  0.00     0.086 A 
ATOM     19  C   UNL d   1      28.242  16.737 -23.323  0.00  0.00     0.022 A 
ATOM     20  C   UNL d   1      27.523  16.407 -23.086  0.00  0.00     0.031 A 
ATOM     21  C   UNL d   1      27.212  15.768 -23.488  0.00  0.00     0.140 A 
ATOM     22  C   UNL d   1      27.621  15.455 -24.134  0.00  0.00     0.031 A 
ATOM     23  F   UNL d   1      26.470  15.453 -23.218  0.00  0.00    -0.204 F 
ATOM     24  C   UNL d   1      28.337  15.776 -24.377  0.00  0.00     0.022 A 
ENDBRANCH   1  18
TORSDOF 6
ENDMDL
