MODEL 1
REMARK VINA RESULT:      45.9      0.000      0.000
REMARK  5 active torsions:
REMARK  status: ('A' for Active; 'I' for Inactive)
REMARK    1  A    between atoms: N_2  and  C_1 
REMARK    2  A    between atoms: N_3  and  C_1 
REMARK       I    between atoms: C_4  and  N_2 
REMARK    3  A    between atoms: C_7  and  N_3 
REMARK    4  A    between atoms: C_8  and  C_4 
REMARK    5  A    between atoms: C_9  and  C_8 
ROOT
ATOM      1  C   UNL d   1      59.161  49.461  50.560  0.00  0.00     0.209 C 
ATOM      2  S   UNL d   1      59.036  49.158  51.335  0.00  0.00    -0.038 SA
ENDROOT
BRANCH   1   3
ATOM      3  N   UNL d   1      59.899  49.610  50.317  0.00  0.00    -0.180 NA
ATOM      4  C   UNL d   1      60.517  49.136  50.532  0.00  0.00     0.281 C 
ATOM      5  O   UNL d   1      61.294  49.297  50.273  0.00  0.00    -0.265 OA
BRANCH   4   6
ATOM      6  C   UNL d   1      60.390  48.486  51.011  0.00  0.00     0.063 C 
BRANCH   6   7
ATOM      7  C   UNL d   1      60.783  47.776  50.861  0.00  0.00     0.005 A 
ATOM      8  C   UNL d   1      60.693  47.150  51.384  0.00  0.00     0.000 A 
ATOM      9  C   UNL d   1      61.084  46.424  51.247  0.00  0.00     0.000 A 
ATOM     10  C   UNL d   1      61.562  46.349  50.576  0.00  0.00     0.000 A 
ATOM     11  C   UNL d   1      61.657  46.972  50.048  0.00  0.00     0.000 A 
ATOM     12  C   UNL d   1      61.265  47.706  50.181  0.00  0.00     0.000 A 
ENDBRANCH   6   7
ENDBRANCH   4   6
ENDBRANCH   1   3
BRANCH   1  13
ATOM     13  N   UNL d   1      58.525  49.593  50.080  0.00  0.00    -0.281 N 
ATOM     14  C   UNL d   1      58.579  49.707  49.202  0.00  0.00     0.101 C 
BRANCH  13  15
ATOM     15  C   UNL d   1      57.783  49.630  50.379  0.00  0.00     0.066 A 
ATOM     16  C   UNL d   1      57.639  49.668  51.191  0.00  0.00     0.018 A 
ATOM     17  C   UNL d   1      56.873  49.705  51.486  0.00  0.00     0.002 A 
ATOM     18  C   UNL d   1      56.214  49.706  50.960  0.00  0.00     0.000 A 
ATOM     19  C   UNL d   1      56.358  49.669  50.148  0.00  0.00     0.002 A 
ATOM     20  C   UNL d   1      57.145  49.631  49.862  0.00  0.00     0.018 A 
ENDBRANCH  13  15
ENDBRANCH   1  13
TORSDOF 5
ENDMDL
