MODEL 1
REMARK VINA RESULT:      -6.9      0.000      0.000
REMARK  2 active torsions:
REMARK  status: ('A' for Active; 'I' for Inactive)
REMARK    1  A    between atoms: C_9  and  N_1 
REMARK    2  A    between atoms: C_2  and  C_10 
ROOT
ATOM      1  C   UNL d   1     -46.380  12.968  22.753  0.00  0.00     0.070 A 
ATOM      2  C   UNL d   1     -47.864  13.719  22.894  0.00  0.00     0.024 A 
ATOM      3  C   UNL d   1     -47.003  12.737  22.275  0.00  0.00     0.018 A 
ATOM      4  C   UNL d   1     -46.467  13.565  23.305  0.00  0.00     0.018 A 
ATOM      5  C   UNL d   1     -47.757  13.118  22.347  0.00  0.00     0.004 A 
ATOM      6  C   UNL d   1     -47.217  13.945  23.376  0.00  0.00     0.004 A 
ENDROOT
BRANCH   2   7
ATOM      7  C   UNL d   1     -48.478  14.029  22.952  0.00  0.00     0.111 A 
ATOM      8  N   UNL d   1     -49.211  13.642  23.335  0.00  0.00    -0.239 NA
ATOM      9  C   UNL d   1     -49.817  14.241  23.271  0.00  0.00     0.088 A 
ATOM     10  C   UNL d   1     -50.549  14.192  23.514  0.00  0.00     0.020 A 
ATOM     11  C   UNL d   1     -49.512  14.913  22.900  0.00  0.00     0.049 A 
ATOM     12  C   UNL d   1     -51.055  14.868  23.388  0.00  0.00     0.002 A 
ATOM     13  C   UNL d   1     -50.759  15.521  23.027  0.00  0.00     0.001 A 
ATOM     14  C   UNL d   1     -49.982  15.571  22.771  0.00  0.00     0.008 A 
ATOM     15  S   UNL d   1     -48.635  14.727  22.710  0.00  0.00    -0.066 SA
ENDBRANCH   2   7
BRANCH   1  16
ATOM     16  N   UNL d   1     -45.638  12.593  22.683  0.00  0.00    -0.242 N 
ATOM     17  C   UNL d   1     -45.493  11.877  23.063  0.00  0.00     0.267 A 
ATOM     18  C   UNL d   1     -44.718  11.657  22.885  0.00  0.00     0.066 A 
ATOM     19  O   UNL d   1     -46.024  11.414  23.562  0.00  0.00    -0.267 OA
ATOM     20  C   UNL d   1     -44.391  12.256  22.385  0.00  0.00     0.066 A 
ATOM     21  C   UNL d   1     -44.986  12.835  22.271  0.00  0.00     0.267 A 
ATOM     22  O   UNL d   1     -44.902  13.517  21.819  0.00  0.00    -0.267 OA
ENDBRANCH   1  16
TORSDOF 2
ENDMDL
MODEL 2
REMARK VINA RESULT:      -6.7      1.965      4.784
REMARK  2 active torsions:
REMARK  status: ('A' for Active; 'I' for Inactive)
REMARK    1  A    between atoms: C_9  and  N_1 
REMARK    2  A    between atoms: C_2  and  C_10 
ROOT
ATOM      1  C   UNL d   1     -49.187  13.950  22.875  0.00  0.00     0.070 A 
ATOM      2  C   UNL d   1     -47.894  12.916  23.090  0.00  0.00     0.024 A 
ATOM      3  C   UNL d   1     -49.232  13.345  23.426  0.00  0.00     0.018 A 
ATOM      4  C   UNL d   1     -48.516  14.061  22.422  0.00  0.00     0.018 A 
ATOM      5  C   UNL d   1     -48.575  12.820  23.535  0.00  0.00     0.004 A 
ATOM      6  C   UNL d   1     -47.862  13.539  22.530  0.00  0.00     0.004 A 
ENDROOT
BRANCH   2   7
ATOM      7  C   UNL d   1     -47.359  12.489  23.178  0.00  0.00     0.111 A 
ATOM      8  N   UNL d   1     -46.493  12.710  22.990  0.00  0.00    -0.239 NA
ATOM      9  C   UNL d   1     -46.053  12.005  23.191  0.00  0.00     0.088 A 
ATOM     10  C   UNL d   1     -45.289  11.901  23.134  0.00  0.00     0.020 A 
ATOM     11  C   UNL d   1     -46.566  11.421  23.467  0.00  0.00     0.049 A 
ATOM     12  C   UNL d   1     -44.974  11.142  23.370  0.00  0.00     0.002 A 
ATOM     13  C   UNL d   1     -45.473  10.574  23.639  0.00  0.00     0.001 A 
ATOM     14  C   UNL d   1     -46.283  10.688  23.698  0.00  0.00     0.008 A 
ATOM     15  S   UNL d   1     -47.408  11.783  23.441  0.00  0.00    -0.066 SA
ENDBRANCH   2   7
BRANCH   1  16
ATOM     16  N   UNL d   1     -49.833  14.467  22.768  0.00  0.00    -0.242 N 
ATOM     17  C   UNL d   1     -50.450  14.267  22.260  0.00  0.00     0.267 A 
ATOM     18  C   UNL d   1     -50.994  14.887  22.279  0.00  0.00     0.066 A 
ATOM     19  O   UNL d   1     -50.546  13.554  21.783  0.00  0.00    -0.267 OA
ATOM     20  C   UNL d   1     -50.695  15.472  22.811  0.00  0.00     0.066 A 
ATOM     21  C   UNL d   1     -49.964  15.188  23.107  0.00  0.00     0.267 A 
ATOM     22  O   UNL d   1     -49.485  15.586  23.644  0.00  0.00    -0.267 OA
ENDBRANCH   1  16
TORSDOF 2
ENDMDL
MODEL 3
REMARK VINA RESULT:      -6.5      1.736      4.720
REMARK  2 active torsions:
REMARK  status: ('A' for Active; 'I' for Inactive)
REMARK    1  A    between atoms: C_9  and  N_1 
REMARK    2  A    between atoms: C_2  and  C_10 
ROOT
ATOM      1  C   UNL d   1     -49.020  14.069  22.784  0.00  0.00     0.070 A 
ATOM      2  C   UNL d   1     -47.464  13.487  22.619  0.00  0.00     0.024 A 
ATOM      3  C   UNL d   1     -48.846  13.522  22.199  0.00  0.00     0.018 A 
ATOM      4  C   UNL d   1     -48.443  14.341  23.295  0.00  0.00     0.018 A 
ATOM      5  C   UNL d   1     -48.056  13.226  22.116  0.00  0.00     0.004 A 
ATOM      6  C   UNL d   1     -47.657  14.047  23.212  0.00  0.00     0.004 A 
ENDROOT
BRANCH   2   7
ATOM      7  C   UNL d   1     -46.821  13.247  22.551  0.00  0.00     0.111 A 
ATOM      8  N   UNL d   1     -46.188  13.629  22.014  0.00  0.00    -0.239 NA
ATOM      9  C   UNL d   1     -45.500  13.133  22.123  0.00  0.00     0.088 A 
ATOM     10  C   UNL d   1     -44.808  13.216  21.789  0.00  0.00     0.020 A 
ATOM     11  C   UNL d   1     -45.672  12.524  22.653  0.00  0.00     0.049 A 
ATOM     12  C   UNL d   1     -44.202  12.647  21.986  0.00  0.00     0.002 A 
ATOM     13  C   UNL d   1     -44.368  12.055  22.502  0.00  0.00     0.001 A 
ATOM     14  C   UNL d   1     -45.103  11.969  22.853  0.00  0.00     0.008 A 
ATOM     15  S   UNL d   1     -46.545  12.640  22.905  0.00  0.00    -0.066 SA
ENDBRANCH   2   7
BRANCH   1  16
ATOM     16  N   UNL d   1     -49.798  14.360  22.866  0.00  0.00    -0.242 N 
ATOM     17  C   UNL d   1     -50.362  13.934  23.288  0.00  0.00     0.267 A 
ATOM     18  C   UNL d   1     -51.064  14.367  23.265  0.00  0.00     0.066 A 
ATOM     19  O   UNL d   1     -50.274  13.176  23.692  0.00  0.00    -0.267 OA
ATOM     20  C   UNL d   1     -50.917  15.069  22.818  0.00  0.00     0.066 A 
ATOM     21  C   UNL d   1     -50.114  15.045  22.576  0.00  0.00     0.267 A 
ATOM     22  O   UNL d   1     -49.738  15.622  22.127  0.00  0.00    -0.267 OA
ENDBRANCH   1  16
TORSDOF 2
ENDMDL
MODEL 4
REMARK VINA RESULT:      -6.2      8.366      8.998
REMARK  2 active torsions:
REMARK  status: ('A' for Active; 'I' for Inactive)
REMARK    1  A    between atoms: C_9  and  N_1 
REMARK    2  A    between atoms: C_2  and  C_10 
ROOT
ATOM      1  C   UNL d   1     -38.983  14.203  21.666  0.00  0.00     0.070 A 
ATOM      2  C   UNL d   1     -39.584  14.575  20.154  0.00  0.00     0.024 A 
ATOM      3  C   UNL d   1     -38.479  14.470  21.079  0.00  0.00     0.018 A 
ATOM      4  C   UNL d   1     -39.784  14.112  21.529  0.00  0.00     0.018 A 
ATOM      5  C   UNL d   1     -38.784  14.659  20.311  0.00  0.00     0.004 A 
ATOM      6  C   UNL d   1     -40.087  14.301  20.764  0.00  0.00     0.004 A 
ENDROOT
BRANCH   2   7
ATOM      7  C   UNL d   1     -39.832  14.729  19.529  0.00  0.00     0.111 A 
ATOM      8  N   UNL d   1     -40.306  15.487  19.341  0.00  0.00    -0.239 NA
ATOM      9  C   UNL d   1     -40.483  15.417  18.508  0.00  0.00     0.088 A 
ATOM     10  C   UNL d   1     -40.878  15.919  18.072  0.00  0.00     0.020 A 
ATOM     11  C   UNL d   1     -40.166  14.716  18.209  0.00  0.00     0.049 A 
ATOM     12  C   UNL d   1     -40.984  15.728  17.246  0.00  0.00     0.002 A 
ATOM     13  C   UNL d   1     -40.676  15.046  16.955  0.00  0.00     0.001 A 
ATOM     14  C   UNL d   1     -40.258  14.516  17.420  0.00  0.00     0.008 A 
ATOM     15  S   UNL d   1     -39.751  14.301  18.913  0.00  0.00    -0.066 SA
ENDBRANCH   2   7
BRANCH   1  16
ATOM     16  N   UNL d   1     -38.683  14.016  22.422  0.00  0.00    -0.242 N 
ATOM     17  C   UNL d   1     -38.710  14.569  23.032  0.00  0.00     0.267 A 
ATOM     18  C   UNL d   1     -38.374  14.217  23.698  0.00  0.00     0.066 A 
ATOM     19  O   UNL d   1     -39.023  15.373  23.017  0.00  0.00    -0.267 OA
ATOM     20  C   UNL d   1     -38.139  13.434  23.481  0.00  0.00     0.066 A 
ATOM     21  C   UNL d   1     -38.342  13.328  22.675  0.00  0.00     0.267 A 
ATOM     22  O   UNL d   1     -38.211  12.643  22.240  0.00  0.00    -0.267 OA
ENDBRANCH   1  16
TORSDOF 2
ENDMDL
MODEL 5
REMARK VINA RESULT:      -6.2      8.644      9.480
REMARK  2 active torsions:
REMARK  status: ('A' for Active; 'I' for Inactive)
REMARK    1  A    between atoms: C_9  and  N_1 
REMARK    2  A    between atoms: C_2  and  C_10 
ROOT
ATOM      1  C   UNL d   1     -39.692  14.821  18.857  0.00  0.00     0.070 A 
ATOM      2  C   UNL d   1     -39.260  14.541  20.445  0.00  0.00     0.024 A 
ATOM      3  C   UNL d   1     -40.081  15.211  19.463  0.00  0.00     0.018 A 
ATOM      4  C   UNL d   1     -39.089  14.291  19.012  0.00  0.00     0.018 A 
ATOM      5  C   UNL d   1     -39.861  15.069  20.270  0.00  0.00     0.004 A 
ATOM      6  C   UNL d   1     -38.871  14.149  19.815  0.00  0.00     0.004 A 
ENDROOT
BRANCH   2   7
ATOM      7  C   UNL d   1     -39.081  14.425  21.101  0.00  0.00     0.111 A 
ATOM      8  N   UNL d   1     -39.305  13.671  21.565  0.00  0.00    -0.239 NA
ATOM      9  C   UNL d   1     -38.959  13.795  22.337  0.00  0.00     0.088 A 
ATOM     10  C   UNL d   1     -38.988  13.315  22.943  0.00  0.00     0.020 A 
ATOM     11  C   UNL d   1     -38.571  14.523  22.360  0.00  0.00     0.049 A 
ATOM     12  C   UNL d   1     -38.598  13.561  23.662  0.00  0.00     0.002 A 
ATOM     13  C   UNL d   1     -38.221  14.270  23.684  0.00  0.00     0.001 A 
ATOM     14  C   UNL d   1     -38.192  14.775  23.040  0.00  0.00     0.008 A 
ATOM     15  S   UNL d   1     -38.678  14.898  21.530  0.00  0.00    -0.066 SA
ENDBRANCH   2   7
BRANCH   1  16
ATOM     16  N   UNL d   1     -39.908  14.961  18.063  0.00  0.00    -0.242 N 
ATOM     17  C   UNL d   1     -40.560  14.580  17.733  0.00  0.00     0.267 A 
ATOM     18  C   UNL d   1     -40.622  14.836  16.951  0.00  0.00     0.066 A 
ATOM     19  O   UNL d   1     -41.099  14.016  18.102  0.00  0.00    -0.267 OA
ATOM     20  C   UNL d   1     -39.993  15.382  16.809  0.00  0.00     0.066 A 
ATOM     21  C   UNL d   1     -39.556  15.446  17.522  0.00  0.00     0.267 A 
ATOM     22  O   UNL d   1     -38.893  15.922  17.629  0.00  0.00    -0.267 OA
ENDBRANCH   1  16
TORSDOF 2
ENDMDL
