MODEL 1
REMARK VINA RESULT:      -8.8      0.000      0.000
REMARK  1 active torsions:
REMARK  status: ('A' for Active; 'I' for Inactive)
REMARK    1  A    between atoms: C_9  and  N_4 
ROOT
ATOM      1  C   UNL d   1     -49.355  13.303  22.096  0.00  0.00     0.096 A 
ATOM      2  C   UNL d   1     -49.285  13.766  22.764  0.00  0.00     0.109 A 
ATOM      3  N   UNL d   1     -48.642  13.501  23.199  0.00  0.00    -0.162 NA
ATOM      4  N   UNL d   1     -48.316  12.865  22.787  0.00  0.00    -0.195 N 
ATOM      5  C   UNL d   1     -48.757  12.746  22.111  0.00  0.00     0.283 A 
ATOM      6  C   UNL d   1     -49.965  13.446  21.548  0.00  0.00     0.105 A 
ATOM      7  C   UNL d   1     -49.818  14.375  22.894  0.00  0.00     0.037 A 
ATOM      8  N   UNL d   1     -50.496  14.056  21.681  0.00  0.00    -0.244 NA
ATOM      9  C   UNL d   1     -50.427  14.527  22.357  0.00  0.00     0.083 A 
ATOM     10  O   UNL d   1     -48.620  12.165  21.542  0.00  0.00    -0.265 OA
ATOM     11  C   UNL d   1     -49.750  14.846  23.568  0.00  0.00     0.003 A 
ATOM     12  C   UNL d   1     -50.961  15.144  22.494  0.00  0.00     0.019 A 
ATOM     13  C   UNL d   1     -50.288  15.460  23.698  0.00  0.00     0.000 A 
ATOM     14  C   UNL d   1     -50.889  15.607  23.165  0.00  0.00     0.002 A 
ENDROOT
BRANCH   4  15
ATOM     15  C   UNL d   1     -47.657  12.422  23.018  0.00  0.00     0.086 A 
ATOM     16  C   UNL d   1     -46.900  12.665  22.791  0.00  0.00     0.020 A 
ATOM     17  C   UNL d   1     -46.246  12.231  23.016  0.00  0.00     0.013 A 
ATOM     18  C   UNL d   1     -46.338  11.548  23.471  0.00  0.00     0.058 A 
ATOM     19  C   UNL d   1     -47.096  11.305  23.697  0.00  0.00     0.013 A 
ATOM     20 CL   UNL d   1     -45.692  11.112  23.698  0.00  0.00    -0.082 Cl
ATOM     21  C   UNL d   1     -47.748  11.735  23.475  0.00  0.00     0.020 A 
ENDBRANCH   4  15
TORSDOF 1
ENDMDL
MODEL 2
REMARK VINA RESULT:      -8.3      1.142      1.673
REMARK  1 active torsions:
REMARK  status: ('A' for Active; 'I' for Inactive)
REMARK    1  A    between atoms: C_9  and  N_4 
ROOT
ATOM      1  C   UNL d   1     -48.298  14.262  22.775  0.00  0.00     0.096 A 
ATOM      2  C   UNL d   1     -48.769  13.654  22.501  0.00  0.00     0.109 A 
ATOM      3  N   UNL d   1     -48.347  12.953  22.551  0.00  0.00    -0.162 NA
ATOM      4  N   UNL d   1     -47.605  13.137  22.861  0.00  0.00    -0.195 N 
ATOM      5  C   UNL d   1     -47.579  13.942  22.998  0.00  0.00     0.283 A 
ATOM      6  C   UNL d   1     -48.585  15.043  22.789  0.00  0.00     0.105 A 
ATOM      7  C   UNL d   1     -49.529  13.817  22.238  0.00  0.00     0.037 A 
ATOM      8  N   UNL d   1     -49.345  15.202  22.525  0.00  0.00    -0.244 NA
ATOM      9  C   UNL d   1     -49.824  14.588  22.247  0.00  0.00     0.083 A 
ATOM     10  O   UNL d   1     -46.937  14.358  23.307  0.00  0.00    -0.265 OA
ATOM     11  C   UNL d   1     -50.008  13.206  21.960  0.00  0.00     0.003 A 
ATOM     12  C   UNL d   1     -50.591  14.745  21.980  0.00  0.00     0.019 A 
ATOM     13  C   UNL d   1     -50.774  13.371  21.695  0.00  0.00     0.000 A 
ATOM     14  C   UNL d   1     -51.063  14.135  21.705  0.00  0.00     0.002 A 
ENDROOT
BRANCH   4  15
ATOM     15  C   UNL d   1     -46.993  12.603  23.010  0.00  0.00     0.086 A 
ATOM     16  C   UNL d   1     -47.109  11.985  23.547  0.00  0.00     0.020 A 
ATOM     17  C   UNL d   1     -46.507  11.454  23.698  0.00  0.00     0.013 A 
ATOM     18  C   UNL d   1     -45.780  11.532  23.313  0.00  0.00     0.058 A 
ATOM     19  C   UNL d   1     -45.665  12.150  22.776  0.00  0.00     0.013 A 
ATOM     20 CL   UNL d   1     -45.178  11.007  23.458  0.00  0.00    -0.082 Cl
ATOM     21  C   UNL d   1     -46.262  12.679  22.625  0.00  0.00     0.020 A 
ENDBRANCH   4  15
TORSDOF 1
ENDMDL
MODEL 3
REMARK VINA RESULT:      -7.1      8.957     10.504
REMARK  1 active torsions:
REMARK  status: ('A' for Active; 'I' for Inactive)
REMARK    1  A    between atoms: C_9  and  N_4 
ROOT
ATOM      1  C   UNL d   1     -40.295  14.463  19.216  0.00  0.00     0.096 A 
ATOM      2  C   UNL d   1     -39.611  14.837  19.458  0.00  0.00     0.109 A 
ATOM      3  N   UNL d   1     -39.054  14.777  18.860  0.00  0.00    -0.162 NA
ATOM      4  N   UNL d   1     -39.405  14.358  18.242  0.00  0.00    -0.195 N 
ATOM      5  C   UNL d   1     -40.167  14.167  18.464  0.00  0.00     0.283 A 
ATOM      6  C   UNL d   1     -40.960  14.436  19.715  0.00  0.00     0.105 A 
ATOM      7  C   UNL d   1     -39.582  15.188  20.199  0.00  0.00     0.037 A 
ATOM      8  N   UNL d   1     -40.927  14.789  20.455  0.00  0.00    -0.244 NA
ATOM      9  C   UNL d   1     -40.235  15.169  20.704  0.00  0.00     0.083 A 
ATOM     10  O   UNL d   1     -40.711  13.748  18.008  0.00  0.00    -0.265 OA
ATOM     11  C   UNL d   1     -38.893  15.568  20.448  0.00  0.00     0.003 A 
ATOM     12  C   UNL d   1     -40.199  15.525  21.449  0.00  0.00     0.019 A 
ATOM     13  C   UNL d   1     -38.865  15.922  21.195  0.00  0.00     0.000 A 
ATOM     14  C   UNL d   1     -39.512  15.901  21.691  0.00  0.00     0.002 A 
ENDROOT
BRANCH   4  15
ATOM     15  C   UNL d   1     -39.049  14.164  17.522  0.00  0.00     0.086 A 
ATOM     16  C   UNL d   1     -39.072  14.702  16.895  0.00  0.00     0.020 A 
ATOM     17  C   UNL d   1     -38.723  14.516  16.181  0.00  0.00     0.013 A 
ATOM     18  C   UNL d   1     -38.345  13.788  16.083  0.00  0.00     0.058 A 
ATOM     19  C   UNL d   1     -38.322  13.249  16.710  0.00  0.00     0.013 A 
ATOM     20 CL   UNL d   1     -37.995  13.596  15.375  0.00  0.00    -0.082 Cl
ATOM     21  C   UNL d   1     -38.669  13.433  17.421  0.00  0.00     0.020 A 
ENDBRANCH   4  15
TORSDOF 1
ENDMDL
MODEL 4
REMARK VINA RESULT:      -6.2      9.594     10.153
REMARK  1 active torsions:
REMARK  status: ('A' for Active; 'I' for Inactive)
REMARK    1  A    between atoms: C_9  and  N_4 
ROOT
ATOM      1  C   UNL d   1     -39.328  14.488  18.722  0.00  0.00     0.096 A 
ATOM      2  C   UNL d   1     -39.922  15.048  18.725  0.00  0.00     0.109 A 
ATOM      3  N   UNL d   1     -39.980  15.362  19.480  0.00  0.00    -0.162 NA
ATOM      4  N   UNL d   1     -39.411  14.987  19.945  0.00  0.00    -0.195 N 
ATOM      5  C   UNL d   1     -39.013  14.451  19.475  0.00  0.00     0.283 A 
ATOM      6  C   UNL d   1     -39.145  14.074  18.024  0.00  0.00     0.105 A 
ATOM      7  C   UNL d   1     -40.339  15.202  18.036  0.00  0.00     0.037 A 
ATOM      8  N   UNL d   1     -39.563  14.231  17.336  0.00  0.00    -0.244 NA
ATOM      9  C   UNL d   1     -40.166  14.798  17.337  0.00  0.00     0.083 A 
ATOM     10  O   UNL d   1     -38.399  13.957  19.721  0.00  0.00    -0.265 OA
ATOM     11  C   UNL d   1     -40.939  15.767  18.035  0.00  0.00     0.003 A 
ATOM     12  C   UNL d   1     -40.590  14.958  16.645  0.00  0.00     0.019 A 
ATOM     13  C   UNL d   1     -41.359  15.922  17.340  0.00  0.00     0.000 A 
ATOM     14  C   UNL d   1     -41.185  15.521  16.650  0.00  0.00     0.002 A 
ENDROOT
BRANCH   4  15
ATOM     15  C   UNL d   1     -39.266  15.127  20.746  0.00  0.00     0.086 A 
ATOM     16  C   UNL d   1     -38.810  15.779  20.973  0.00  0.00     0.020 A 
ATOM     17  C   UNL d   1     -38.665  15.922  21.763  0.00  0.00     0.013 A 
ATOM     18  C   UNL d   1     -38.972  15.416  22.339  0.00  0.00     0.058 A 
ATOM     19  C   UNL d   1     -39.427  14.764  22.112  0.00  0.00     0.013 A 
ATOM     20 CL   UNL d   1     -38.830  15.552  23.128  0.00  0.00    -0.082 Cl
ATOM     21  C   UNL d   1     -39.574  14.620  21.327  0.00  0.00     0.020 A 
ENDBRANCH   4  15
TORSDOF 1
ENDMDL
MODEL 5
REMARK VINA RESULT:      -6.2      9.750     10.684
REMARK  1 active torsions:
REMARK  status: ('A' for Active; 'I' for Inactive)
REMARK    1  A    between atoms: C_9  and  N_4 
ROOT
ATOM      1  C   UNL d   1     -38.640  13.829  19.565  0.00  0.00     0.096 A 
ATOM      2  C   UNL d   1     -39.141  14.206  20.088  0.00  0.00     0.109 A 
ATOM      3  N   UNL d   1     -39.679  14.653  19.659  0.00  0.00    -0.162 NA
ATOM      4  N   UNL d   1     -39.502  14.546  18.861  0.00  0.00    -0.195 N 
ATOM      5  C   UNL d   1     -38.864  14.039  18.807  0.00  0.00     0.283 A 
ATOM      6  C   UNL d   1     -38.034  13.334  19.846  0.00  0.00     0.105 A 
ATOM      7  C   UNL d   1     -39.044  14.094  20.894  0.00  0.00     0.037 A 
ATOM      8  N   UNL d   1     -37.940  13.225  20.653  0.00  0.00    -0.244 NA
ATOM      9  C   UNL d   1     -38.446  13.605  21.186  0.00  0.00     0.083 A 
ATOM     10  O   UNL d   1     -38.508  13.785  18.107  0.00  0.00    -0.265 OA
ATOM     11  C   UNL d   1     -39.547  14.473  21.427  0.00  0.00     0.003 A 
ATOM     12  C   UNL d   1     -38.353  13.497  22.000  0.00  0.00     0.019 A 
ATOM     13  C   UNL d   1     -39.448  14.360  22.240  0.00  0.00     0.000 A 
ATOM     14  C   UNL d   1     -38.856  13.876  22.524  0.00  0.00     0.002 A 
ENDROOT
BRANCH   4  15
ATOM     15  C   UNL d   1     -39.900  14.890  18.224  0.00  0.00     0.086 A 
ATOM     16  C   UNL d   1     -40.586  14.534  17.928  0.00  0.00     0.020 A 
ATOM     17  C   UNL d   1     -40.983  14.870  17.298  0.00  0.00     0.013 A 
ATOM     18  C   UNL d   1     -40.701  15.567  16.955  0.00  0.00     0.058 A 
ATOM     19  C   UNL d   1     -40.015  15.922  17.251  0.00  0.00     0.013 A 
ATOM     20 CL   UNL d   1     -41.091  15.906  16.329  0.00  0.00    -0.082 Cl
ATOM     21  C   UNL d   1     -39.619  15.590  17.877  0.00  0.00     0.020 A 
ENDBRANCH   4  15
TORSDOF 1
ENDMDL
