MODEL 1
REMARK VINA RESULT:      -3.7      0.000      0.000
REMARK  5 active torsions:
REMARK  status: ('A' for Active; 'I' for Inactive)
REMARK    1  A    between atoms: C_3  and  S_1 
REMARK    2  A    between atoms: N_10  and  S_1 
REMARK    3  A    between atoms: C_19  and  N_10 
REMARK    4  A    between atoms: C_21  and  C_19 
REMARK    5  A    between atoms: C_22  and  C_21 
ROOT
ATOM      1  N   UNL d   1      56.497   0.500  33.988  0.00  0.00    -0.273 N 
ATOM      2  C   UNL d   1      57.403   0.295  31.697  0.00  0.00     0.104 A 
ATOM      3  C   UNL d   1      56.799   0.431  33.222  0.00  0.00     0.067 A 
ATOM      4  C   UNL d   1      56.288   0.306  32.591  0.00  0.00     0.017 A 
ATOM      5  C   UNL d   1      57.612   0.489  33.093  0.00  0.00     0.017 A 
ATOM      6  C   UNL d   1      55.684   0.443  34.117  0.00  0.00     0.265 A 
ATOM      7  C   UNL d   1      56.590   0.237  31.826  0.00  0.00     0.014 A 
ATOM      8  C   UNL d   1      57.914   0.421  32.333  0.00  0.00     0.014 A 
ATOM      9  C   UNL d   1      55.475   0.249  32.721  0.00  0.00     0.006 A 
ATOM     10  C   UNL d   1      55.173   0.317  33.481  0.00  0.00     0.061 A 
ATOM     11  O   UNL d   1      55.374   0.511  34.889  0.00  0.00    -0.267 OA
ATOM     12  C   UNL d   1      57.008   0.626  34.623  0.00  0.00     0.083 A 
ATOM     13  C   UNL d   1      58.121   0.613  33.720  0.00  0.00     0.003 A 
ATOM     14  C   UNL d   1      57.820   0.682  34.485  0.00  0.00     0.019 A 
ENDROOT
BRANCH   2  15
ATOM     15  S   UNL d   1      57.704   0.225  30.927  0.00  0.00     0.271 S 
ATOM     16  O   UNL d   1      57.008  -0.169  30.696  0.00  0.00    -0.200 OA
ATOM     17  O   UNL d   1      58.399   0.618  31.152  0.00  0.00    -0.200 OA
BRANCH  15  18
ATOM     18  N   UNL d   1      58.004   0.154  30.150  0.00  0.00    -0.228 N 
ATOM     19  C   UNL d   1      57.774   0.681  29.563  0.00  0.00     0.111 C 
BRANCH  18  20
ATOM     20  C   UNL d   1      58.535  -0.449  29.967  0.00  0.00     0.092 C 
BRANCH  20  21
ATOM     21  C   UNL d   1      58.901  -0.467  29.227  0.00  0.00     0.020 C 
BRANCH  21  22
ATOM     22  C   UNL d   1      59.449  -1.058  29.052  0.00  0.00     0.002 C 
ATOM     23  C   UNL d   1      60.223  -0.867  28.890  0.00  0.00     0.000 C 
ENDBRANCH  21  22
ENDBRANCH  20  21
ENDBRANCH  18  20
ENDBRANCH  15  18
ENDBRANCH   2  15
TORSDOF 5
ENDMDL
MODEL 2
REMARK VINA RESULT:      -3.2      1.555      4.836
REMARK  5 active torsions:
REMARK  status: ('A' for Active; 'I' for Inactive)
REMARK    1  A    between atoms: C_3  and  S_1 
REMARK    2  A    between atoms: N_10  and  S_1 
REMARK    3  A    between atoms: C_19  and  N_10 
REMARK    4  A    between atoms: C_21  and  C_19 
REMARK    5  A    between atoms: C_22  and  C_21 
ROOT
ATOM      1  N   UNL d   1      59.883  -0.705  29.108  0.00  0.00    -0.273 N 
ATOM      2  C   UNL d   1      58.030  -0.244  30.678  0.00  0.00     0.104 A 
ATOM      3  C   UNL d   1      59.265  -0.551  29.633  0.00  0.00     0.067 A 
ATOM      4  C   UNL d   1      59.272   0.137  30.081  0.00  0.00     0.017 A 
ATOM      5  C   UNL d   1      58.642  -1.087  29.705  0.00  0.00     0.017 A 
ATOM      6  C   UNL d   1      60.506  -0.169  29.036  0.00  0.00     0.265 A 
ATOM      7  C   UNL d   1      58.653   0.292  30.606  0.00  0.00     0.014 A 
ATOM      8  C   UNL d   1      58.026  -0.934  30.226  0.00  0.00     0.014 A 
ATOM      9  C   UNL d   1      59.895   0.673  30.009  0.00  0.00     0.006 A 
ATOM     10  C   UNL d   1      60.511   0.521  29.488  0.00  0.00     0.061 A 
ATOM     11  O   UNL d   1      61.133  -0.321  28.507  0.00  0.00    -0.267 OA
ATOM     12  C   UNL d   1      59.878  -1.396  28.656  0.00  0.00     0.083 A 
ATOM     13  C   UNL d   1      58.634  -1.772  29.259  0.00  0.00     0.003 A 
ATOM     14  C   UNL d   1      59.252  -1.927  28.735  0.00  0.00     0.019 A 
ENDROOT
BRANCH   2  15
ATOM     15  S   UNL d   1      57.410  -0.086  31.206  0.00  0.00     0.271 S 
ATOM     16  O   UNL d   1      56.917  -0.599  30.774  0.00  0.00    -0.200 OA
ATOM     17  O   UNL d   1      57.896   0.427  31.640  0.00  0.00    -0.200 OA
BRANCH  15  18
ATOM     18  N   UNL d   1      56.783   0.071  31.736  0.00  0.00    -0.228 N 
ATOM     19  C   UNL d   1      56.254   0.682  31.588  0.00  0.00     0.111 C 
BRANCH  18  20
ATOM     20  C   UNL d   1      56.691  -0.388  32.414  0.00  0.00     0.092 C 
BRANCH  20  21
ATOM     21  C   UNL d   1      56.010  -0.314  32.874  0.00  0.00     0.020 C 
BRANCH  21  22
ATOM     22  C   UNL d   1      55.954  -0.711  33.595  0.00  0.00     0.002 C 
ATOM     23  C   UNL d   1      55.555  -0.375  34.220  0.00  0.00     0.000 C 
ENDBRANCH  21  22
ENDBRANCH  20  21
ENDBRANCH  18  20
ENDBRANCH  15  18
ENDBRANCH   2  15
TORSDOF 5
ENDMDL
MODEL 3
REMARK VINA RESULT:      -2.3      1.607      5.068
REMARK  5 active torsions:
REMARK  status: ('A' for Active; 'I' for Inactive)
REMARK    1  A    between atoms: C_3  and  S_1 
REMARK    2  A    between atoms: N_10  and  S_1 
REMARK    3  A    between atoms: C_19  and  N_10 
REMARK    4  A    between atoms: C_21  and  C_19 
REMARK    5  A    between atoms: C_22  and  C_21 
ROOT
ATOM      1  N   UNL d   1      60.408  -1.795  28.855  0.00  0.00    -0.273 N 
ATOM      2  C   UNL d   1      58.613  -0.518  29.976  0.00  0.00     0.104 A 
ATOM      3  C   UNL d   1      59.808  -1.369  29.230  0.00  0.00     0.067 A 
ATOM      4  C   UNL d   1      59.181  -1.768  29.579  0.00  0.00     0.017 A 
ATOM      5  C   UNL d   1      59.840  -0.545  29.253  0.00  0.00     0.017 A 
ATOM      6  C   UNL d   1      60.376  -2.620  28.833  0.00  0.00     0.265 A 
ATOM      7  C   UNL d   1      58.581  -1.342  29.954  0.00  0.00     0.014 A 
ATOM      8  C   UNL d   1      59.245  -0.120  29.625  0.00  0.00     0.014 A 
ATOM      9  C   UNL d   1      59.149  -2.592  29.556  0.00  0.00     0.006 A 
ATOM     10  C   UNL d   1      59.745  -3.017  29.184  0.00  0.00     0.061 A 
ATOM     11  O   UNL d   1      60.980  -3.054  28.455  0.00  0.00    -0.267 OA
ATOM     12  C   UNL d   1      61.040  -1.397  28.503  0.00  0.00     0.083 A 
ATOM     13  C   UNL d   1      60.464  -0.147  28.905  0.00  0.00     0.003 A 
ATOM     14  C   UNL d   1      61.064  -0.572  28.531  0.00  0.00     0.019 A 
ENDROOT
BRANCH   2  15
ATOM     15  S   UNL d   1      58.009  -0.092  30.353  0.00  0.00     0.271 S 
ATOM     16  O   UNL d   1      58.403  -0.185  31.080  0.00  0.00    -0.200 OA
ATOM     17  O   UNL d   1      57.611   0.003  29.631  0.00  0.00    -0.200 OA
BRANCH  15  18
ATOM     18  N   UNL d   1      57.402   0.336  30.736  0.00  0.00    -0.228 N 
ATOM     19  C   UNL d   1      56.797   0.682  30.301  0.00  0.00     0.111 C 
BRANCH  18  20
ATOM     20  C   UNL d   1      57.407   0.414  31.556  0.00  0.00     0.092 C 
BRANCH  20  21
ATOM     21  C   UNL d   1      56.699   0.373  31.980  0.00  0.00     0.020 C 
BRANCH  21  22
ATOM     22  C   UNL d   1      56.713   0.306  32.802  0.00  0.00     0.002 C 
ATOM     23  C   UNL d   1      56.019   0.290  33.226  0.00  0.00     0.000 C 
ENDBRANCH  21  22
ENDBRANCH  20  21
ENDBRANCH  18  20
ENDBRANCH  15  18
ENDBRANCH   2  15
TORSDOF 5
ENDMDL
MODEL 4
REMARK VINA RESULT:      -1.8     10.073     10.327
REMARK  5 active torsions:
REMARK  status: ('A' for Active; 'I' for Inactive)
REMARK    1  A    between atoms: C_3  and  S_1 
REMARK    2  A    between atoms: N_10  and  S_1 
REMARK    3  A    between atoms: C_19  and  N_10 
REMARK    4  A    between atoms: C_21  and  C_19 
REMARK    5  A    between atoms: C_22  and  C_21 
ROOT
ATOM      1  N   UNL d   1      59.993  -9.710  34.676  0.00  0.00    -0.273 N 
ATOM      2  C   UNL d   1      58.523  -9.752  32.688  0.00  0.00     0.104 A 
ATOM      3  C   UNL d   1      59.502  -9.724  34.013  0.00  0.00     0.067 A 
ATOM      4  C   UNL d   1      58.686  -9.733  34.108  0.00  0.00     0.017 A 
ATOM      5  C   UNL d   1      59.830  -9.728  33.256  0.00  0.00     0.017 A 
ATOM      6  C   UNL d   1      59.664  -9.705  35.433  0.00  0.00     0.265 A 
ATOM      7  C   UNL d   1      58.195  -9.747  33.445  0.00  0.00     0.014 A 
ATOM      8  C   UNL d   1      59.343  -9.742  32.595  0.00  0.00     0.014 A 
ATOM      9  C   UNL d   1      58.357  -9.728  34.865  0.00  0.00     0.006 A 
ATOM     10  C   UNL d   1      58.844  -9.714  35.526  0.00  0.00     0.061 A 
ATOM     11  O   UNL d   1      60.157  -9.691  36.106  0.00  0.00    -0.267 OA
ATOM     12  C   UNL d   1      60.813  -9.700  34.582  0.00  0.00     0.083 A 
ATOM     13  C   UNL d   1      60.642  -9.719  33.159  0.00  0.00     0.003 A 
ATOM     14  C   UNL d   1      61.133  -9.705  33.822  0.00  0.00     0.019 A 
ENDROOT
BRANCH   2  15
ATOM     15  S   UNL d   1      58.027  -9.766  32.024  0.00  0.00     0.271 S 
ATOM     16  O   UNL d   1      58.695  -9.716  31.530  0.00  0.00    -0.200 OA
ATOM     17  O   UNL d   1      57.358  -9.816  32.511  0.00  0.00    -0.200 OA
BRANCH  15  18
ATOM     18  N   UNL d   1      57.530  -9.780  31.352  0.00  0.00    -0.228 N 
ATOM     19  C   UNL d   1      56.713  -9.756  31.437  0.00  0.00     0.111 C 
BRANCH  18  20
ATOM     20  C   UNL d   1      57.858  -9.818  30.597  0.00  0.00     0.092 C 
BRANCH  20  21
ATOM     21  C   UNL d   1      57.380  -9.704  29.933  0.00  0.00     0.020 C 
BRANCH  21  22
ATOM     22  C   UNL d   1      57.712  -9.727  29.178  0.00  0.00     0.002 C 
ATOM     23  C   UNL d   1      57.278  -9.493  28.531  0.00  0.00     0.000 C 
ENDBRANCH  21  22
ENDBRANCH  20  21
ENDBRANCH  18  20
ENDBRANCH  15  18
ENDBRANCH   2  15
TORSDOF 5
ENDMDL
