MODEL 1
REMARK VINA RESULT:      -7.6      0.000      0.000
REMARK  7 active torsions:
REMARK  status: ('A' for Active; 'I' for Inactive)
REMARK    1  A    between atoms: C_2  and  C_1 
REMARK    2  A    between atoms: C_16  and  N_4 
REMARK    3  A    between atoms: C_14  and  C_21 
REMARK    4  A    between atoms: C_22  and  C_16 
REMARK    5  A    between atoms: C_21  and  C_23 
REMARK    6  A    between atoms: C_25  and  C_22 
REMARK    7  A    between atoms: C_23  and  C_25 
ROOT
ATOM      1  C   UNL d   1      52.140  33.424  52.913  0.00  0.00     0.093 A 
ATOM      2  N   UNL d   1      50.955  33.914  52.642  0.00  0.00    -0.259 N 
ATOM      3  C   UNL d   1      51.466  34.159  52.061  0.00  0.00     0.153 A 
ATOM      4  C   UNL d   1      51.373  33.461  53.165  0.00  0.00     0.272 A 
ATOM      5  S   UNL d   1      52.203  33.854  52.230  0.00  0.00    -0.053 SA
ATOM      6  S   UNL d   1      51.251  34.636  51.417  0.00  0.00    -0.052 SA
ATOM      7  O   UNL d   1      51.057  33.092  53.859  0.00  0.00    -0.266 OA
ENDROOT
BRANCH   1   8
ATOM      8  C   UNL d   1      52.702  32.990  53.351  0.00  0.00     0.069 A 
ATOM      9  C   UNL d   1      52.856  32.188  53.232  0.00  0.00     0.265 A 
ATOM     10  N   UNL d   1      53.428  31.950  53.749  0.00  0.00    -0.272 N 
ATOM     11  O   UNL d   1      52.482  31.696  52.668  0.00  0.00    -0.267 OA
ATOM     12  C   UNL d   1      53.739  31.174  53.804  0.00  0.00     0.102 C 
ATOM     13  C   UNL d   1      53.643  32.599  54.201  0.00  0.00     0.067 A 
ATOM     14  C   UNL d   1      53.187  33.252  53.952  0.00  0.00     0.021 A 
ATOM     15  C   UNL d   1      54.184  32.691  54.801  0.00  0.00     0.018 A 
ATOM     16  C   UNL d   1      53.290  33.985  54.315  0.00  0.00     0.002 A 
ATOM     17  C   UNL d   1      53.831  34.102  54.925  0.00  0.00     0.000 A 
ATOM     18  C   UNL d   1      54.285  33.433  55.167  0.00  0.00     0.002 A 
ENDBRANCH   1   8
BRANCH   2  19
ATOM     19  C   UNL d   1      50.141  34.102  52.683  0.00  0.00     0.084 C 
BRANCH  19  20
ATOM     20  C   UNL d   1      49.913  34.806  53.009  0.00  0.00     0.019 C 
BRANCH  20  21
ATOM     21  C   UNL d   1      49.122  35.061  52.922  0.00  0.00     0.002 C 
BRANCH  21  22
ATOM     22  C   UNL d   1      48.794  35.537  53.489  0.00  0.00     0.006 C 
BRANCH  22  23
ATOM     23  C   UNL d   1      48.108  35.979  53.306  0.00  0.00     0.070 C 
BRANCH  23  24
ATOM     24  C   UNL d   1      47.614  36.223  53.899  0.00  0.00     0.211 C 
ATOM     25  O   UNL d   1      46.821  35.985  53.906  0.00  0.00    -0.644 OA
ATOM     26  O   UNL d   1      47.883  36.708  54.504  0.00  0.00    -0.644 OA
ENDBRANCH  23  24
ENDBRANCH  22  23
ENDBRANCH  21  22
ENDBRANCH  20  21
ENDBRANCH  19  20
ENDBRANCH   2  19
TORSDOF 7
ENDMDL
MODEL 2
REMARK VINA RESULT:      -7.3      0.621      1.495
REMARK  7 active torsions:
REMARK  status: ('A' for Active; 'I' for Inactive)
REMARK    1  A    between atoms: C_2  and  C_1 
REMARK    2  A    between atoms: C_16  and  N_4 
REMARK    3  A    between atoms: C_14  and  C_21 
REMARK    4  A    between atoms: C_22  and  C_16 
REMARK    5  A    between atoms: C_21  and  C_23 
REMARK    6  A    between atoms: C_25  and  C_22 
REMARK    7  A    between atoms: C_23  and  C_25 
ROOT
ATOM      1  C   UNL d   1      52.125  33.472  52.968  0.00  0.00     0.093 A 
ATOM      2  N   UNL d   1      50.931  33.946  52.706  0.00  0.00    -0.259 N 
ATOM      3  C   UNL d   1      51.415  34.127  52.080  0.00  0.00     0.153 A 
ATOM      4  C   UNL d   1      51.371  33.543  53.251  0.00  0.00     0.272 A 
ATOM      5  S   UNL d   1      52.158  33.831  52.244  0.00  0.00    -0.053 SA
ATOM      6  S   UNL d   1      51.173  34.541  51.403  0.00  0.00    -0.052 SA
ATOM      7  O   UNL d   1      51.085  33.247  53.992  0.00  0.00    -0.266 OA
ENDROOT
BRANCH   1   8
ATOM      8  C   UNL d   1      52.704  33.076  53.420  0.00  0.00     0.069 A 
ATOM      9  C   UNL d   1      53.166  33.444  53.996  0.00  0.00     0.265 A 
ATOM     10  N   UNL d   1      53.665  32.899  54.320  0.00  0.00    -0.272 N 
ATOM     11  O   UNL d   1      53.128  34.251  54.212  0.00  0.00    -0.267 OA
ATOM     12  C   UNL d   1      54.224  33.053  54.926  0.00  0.00     0.102 C 
ATOM     13  C   UNL d   1      53.524  32.180  53.954  0.00  0.00     0.067 A 
ATOM     14  C   UNL d   1      52.921  32.290  53.388  0.00  0.00     0.021 A 
ATOM     15  C   UNL d   1      53.855  31.443  54.051  0.00  0.00     0.018 A 
ATOM     16  C   UNL d   1      52.664  31.653  52.932  0.00  0.00     0.002 A 
ATOM     17  C   UNL d   1      52.984  30.898  53.013  0.00  0.00     0.000 A 
ATOM     18  C   UNL d   1      53.594  30.800  53.589  0.00  0.00     0.002 A 
ENDBRANCH   1   8
BRANCH   2  19
ATOM     19  C   UNL d   1      50.121  34.147  52.767  0.00  0.00     0.084 C 
BRANCH  19  20
ATOM     20  C   UNL d   1      49.914  34.875  53.052  0.00  0.00     0.019 C 
BRANCH  20  21
ATOM     21  C   UNL d   1      49.129  35.144  52.956  0.00  0.00     0.002 C 
BRANCH  21  22
ATOM     22  C   UNL d   1      48.805  35.631  53.516  0.00  0.00     0.006 C 
BRANCH  22  23
ATOM     23  C   UNL d   1      48.100  36.045  53.340  0.00  0.00     0.070 C 
BRANCH  23  24
ATOM     24  C   UNL d   1      47.594  36.252  53.938  0.00  0.00     0.211 C 
ATOM     25  O   UNL d   1      47.865  36.706  54.576  0.00  0.00    -0.644 OA
ATOM     26  O   UNL d   1      46.807  36.021  53.927  0.00  0.00    -0.644 OA
ENDBRANCH  23  24
ENDBRANCH  22  23
ENDBRANCH  21  22
ENDBRANCH  20  21
ENDBRANCH  19  20
ENDBRANCH   2  19
TORSDOF 7
ENDMDL
MODEL 3
REMARK VINA RESULT:      -6.2      1.575      5.295
REMARK  7 active torsions:
REMARK  status: ('A' for Active; 'I' for Inactive)
REMARK    1  A    between atoms: C_2  and  C_1 
REMARK    2  A    between atoms: C_16  and  N_4 
REMARK    3  A    between atoms: C_14  and  C_21 
REMARK    4  A    between atoms: C_22  and  C_16 
REMARK    5  A    between atoms: C_21  and  C_23 
REMARK    6  A    between atoms: C_25  and  C_22 
REMARK    7  A    between atoms: C_23  and  C_25 
ROOT
ATOM      1  C   UNL d   1      50.979  34.387  52.826  0.00  0.00     0.093 A 
ATOM      2  N   UNL d   1      51.905  33.541  53.205  0.00  0.00    -0.259 N 
ATOM      3  C   UNL d   1      52.274  34.219  52.952  0.00  0.00     0.153 A 
ATOM      4  C   UNL d   1      51.108  33.648  53.126  0.00  0.00     0.272 A 
ATOM      5  S   UNL d   1      51.697  34.745  52.717  0.00  0.00    -0.053 SA
ATOM      6  S   UNL d   1      53.096  34.332  52.945  0.00  0.00    -0.052 SA
ATOM      7  O   UNL d   1      50.513  33.078  53.325  0.00  0.00    -0.266 OA
ENDROOT
BRANCH   1   8
ATOM      8  C   UNL d   1      50.200  34.650  52.686  0.00  0.00     0.069 A 
ATOM      9  C   UNL d   1      49.745  35.053  53.244  0.00  0.00     0.265 A 
ATOM     10  N   UNL d   1      49.024  35.221  52.923  0.00  0.00    -0.272 N 
ATOM     11  O   UNL d   1      49.987  35.258  54.018  0.00  0.00    -0.267 OA
ATOM     12  C   UNL d   1      48.402  35.627  53.313  0.00  0.00     0.102 C 
ATOM     13  C   UNL d   1      49.014  34.926  52.159  0.00  0.00     0.067 A 
ATOM     14  C   UNL d   1      49.752  34.567  52.010  0.00  0.00     0.021 A 
ATOM     15  C   UNL d   1      48.444  34.931  51.579  0.00  0.00     0.018 A 
ATOM     16  C   UNL d   1      49.898  34.220  51.276  0.00  0.00     0.002 A 
ATOM     17  C   UNL d   1      49.336  34.213  50.673  0.00  0.00     0.000 A 
ATOM     18  C   UNL d   1      48.593  34.579  50.838  0.00  0.00     0.002 A 
ENDBRANCH   1   8
BRANCH   2  19
ATOM     19  C   UNL d   1      52.292  32.858  53.494  0.00  0.00     0.084 C 
BRANCH  19  20
ATOM     20  C   UNL d   1      52.402  32.226  53.000  0.00  0.00     0.019 C 
BRANCH  20  21
ATOM     21  C   UNL d   1      52.941  31.625  53.217  0.00  0.00     0.002 C 
BRANCH  21  22
ATOM     22  C   UNL d   1      52.706  30.851  53.185  0.00  0.00     0.006 C 
BRANCH  22  23
ATOM     23  C   UNL d   1      53.249  30.250  53.392  0.00  0.00     0.070 C 
BRANCH  23  24
ATOM     24  C   UNL d   1      52.978  29.532  53.649  0.00  0.00     0.211 C 
ATOM     25  O   UNL d   1      52.404  29.122  53.215  0.00  0.00    -0.644 OA
ATOM     26  O   UNL d   1      53.262  29.193  54.341  0.00  0.00    -0.644 OA
ENDBRANCH  23  24
ENDBRANCH  22  23
ENDBRANCH  21  22
ENDBRANCH  20  21
ENDBRANCH  19  20
ENDBRANCH   2  19
TORSDOF 7
ENDMDL
MODEL 4
REMARK VINA RESULT:      -4.8      2.223      5.293
REMARK  7 active torsions:
REMARK  status: ('A' for Active; 'I' for Inactive)
REMARK    1  A    between atoms: C_2  and  C_1 
REMARK    2  A    between atoms: C_16  and  N_4 
REMARK    3  A    between atoms: C_14  and  C_21 
REMARK    4  A    between atoms: C_22  and  C_16 
REMARK    5  A    between atoms: C_21  and  C_23 
REMARK    6  A    between atoms: C_25  and  C_22 
REMARK    7  A    between atoms: C_23  and  C_25 
ROOT
ATOM      1  C   UNL d   1      52.592  33.427  53.255  0.00  0.00     0.093 A 
ATOM      2  N   UNL d   1      53.401  32.461  53.615  0.00  0.00    -0.259 N 
ATOM      3  C   UNL d   1      53.559  33.106  54.081  0.00  0.00     0.153 A 
ATOM      4  C   UNL d   1      52.805  32.662  53.107  0.00  0.00     0.272 A 
ATOM      5  S   UNL d   1      53.055  33.707  53.857  0.00  0.00    -0.053 SA
ATOM      6  S   UNL d   1      54.137  33.126  54.676  0.00  0.00    -0.052 SA
ATOM      7  O   UNL d   1      52.465  32.152  52.521  0.00  0.00    -0.266 OA
ENDROOT
BRANCH   1   8
ATOM      8  C   UNL d   1      51.984  33.784  52.809  0.00  0.00     0.069 A 
ATOM      9  C   UNL d   1      52.087  34.076  52.044  0.00  0.00     0.265 A 
ATOM     10  N   UNL d   1      51.387  34.380  51.782  0.00  0.00    -0.272 N 
ATOM     11  O   UNL d   1      52.799  34.061  51.606  0.00  0.00    -0.267 OA
ATOM     12  C   UNL d   1      51.262  34.730  51.031  0.00  0.00     0.102 C 
ATOM     13  C   UNL d   1      50.833  34.285  52.378  0.00  0.00     0.067 A 
ATOM     14  C   UNL d   1      51.207  33.911  53.023  0.00  0.00     0.021 A 
ATOM     15  C   UNL d   1      50.046  34.484  52.429  0.00  0.00     0.018 A 
ATOM     16  C   UNL d   1      50.776  33.745  53.706  0.00  0.00     0.002 A 
ATOM     17  C   UNL d   1      49.978  33.936  53.781  0.00  0.00     0.000 A 
ATOM     18  C   UNL d   1      49.612  34.315  53.120  0.00  0.00     0.002 A 
ENDBRANCH   1   8
BRANCH   2  19
ATOM     19  C   UNL d   1      53.792  31.723  53.660  0.00  0.00     0.084 C 
BRANCH  19  20
ATOM     20  C   UNL d   1      53.356  31.050  53.768  0.00  0.00     0.019 C 
BRANCH  20  21
ATOM     21  C   UNL d   1      53.735  30.306  53.733  0.00  0.00     0.002 C 
BRANCH  21  22
ATOM     22  C   UNL d   1      53.369  29.658  54.052  0.00  0.00     0.006 C 
BRANCH  22  23
ATOM     23  C   UNL d   1      53.808  29.135  54.533  0.00  0.00     0.070 C 
BRANCH  23  24
ATOM     24  C   UNL d   1      53.443  28.502  54.880  0.00  0.00     0.211 C 
ATOM     25  O   UNL d   1      53.425  27.767  54.497  0.00  0.00    -0.644 OA
ATOM     26  O   UNL d   1      53.083  28.569  55.615  0.00  0.00    -0.644 OA
ENDBRANCH  23  24
ENDBRANCH  22  23
ENDBRANCH  21  22
ENDBRANCH  20  21
ENDBRANCH  19  20
ENDBRANCH   2  19
TORSDOF 7
ENDMDL
