MODEL 1
REMARK VINA RESULT:      16.5      0.000      0.000
REMARK  1 active torsions:
REMARK  status: ('A' for Active; 'I' for Inactive)
REMARK    1  A    between atoms: C_6  and  C_1 
ROOT
ATOM      1  C   UNL d   1      58.636  49.675  50.580  0.00  0.00     0.111 A 
ATOM      2  N   UNL d   1      58.501  49.685  49.770  0.00  0.00    -0.239 NA
ATOM      3  S   UNL d   1      57.914  49.659  50.964  0.00  0.00    -0.066 SA
ATOM      4  C   UNL d   1      57.680  49.676  49.647  0.00  0.00     0.088 A 
ATOM      5  C   UNL d   1      57.313  49.659  50.384  0.00  0.00     0.049 A 
ATOM      6  C   UNL d   1      57.222  49.680  48.963  0.00  0.00     0.020 A 
ATOM      7  C   UNL d   1      56.491  49.647  50.436  0.00  0.00     0.008 A 
ATOM      8  C   UNL d   1      56.033  49.651  49.752  0.00  0.00     0.001 A 
ATOM      9  C   UNL d   1      56.400  49.668  49.015  0.00  0.00     0.002 A 
ENDROOT
BRANCH   1  10
ATOM     10  C   UNL d   1      59.397  49.680  50.916  0.00  0.00     0.024 A 
ATOM     11  C   UNL d   1      60.065  49.670  50.431  0.00  0.00     0.004 A 
ATOM     12  C   UNL d   1      60.819  49.676  50.772  0.00  0.00     0.021 A 
ATOM     13  C   UNL d   1      60.907  49.692  51.598  0.00  0.00     0.103 A 
ATOM     14  C   UNL d   1      60.233  49.702  52.076  0.00  0.00     0.021 A 
ATOM     15  N   UNL d   1      61.665  49.697  51.936  0.00  0.00    -0.148 N 
ATOM     16  C   UNL d   1      59.479  49.696  51.736  0.00  0.00     0.004 A 
ENDBRANCH   1  10
TORSDOF 1
ENDMDL
MODEL 2
REMARK VINA RESULT:      18.3      0.911      3.811
REMARK  1 active torsions:
REMARK  status: ('A' for Active; 'I' for Inactive)
REMARK    1  A    between atoms: C_6  and  C_1 
ROOT
ATOM      1  C   UNL d   1      58.985  49.707  50.608  0.00  0.00     0.111 A 
ATOM      2  N   UNL d   1      59.697  49.708  50.199  0.00  0.00    -0.239 NA
ATOM      3  S   UNL d   1      59.146  49.707  51.410  0.00  0.00    -0.066 SA
ATOM      4  C   UNL d   1      60.313  49.708  50.756  0.00  0.00     0.088 A 
ATOM      5  C   UNL d   1      59.975  49.707  51.507  0.00  0.00     0.049 A 
ATOM      6  C   UNL d   1      61.132  49.708  50.676  0.00  0.00     0.020 A 
ATOM      7  C   UNL d   1      60.456  49.707  52.176  0.00  0.00     0.008 A 
ATOM      8  C   UNL d   1      61.275  49.707  52.097  0.00  0.00     0.001 A 
ATOM      9  C   UNL d   1      61.613  49.708  51.346  0.00  0.00     0.002 A 
ENDROOT
BRANCH   1  10
ATOM     10  C   UNL d   1      58.243  49.707  50.232  0.00  0.00     0.024 A 
ATOM     11  C   UNL d   1      57.549  49.707  50.680  0.00  0.00     0.004 A 
ATOM     12  C   UNL d   1      56.815  49.707  50.298  0.00  0.00     0.021 A 
ATOM     13  C   UNL d   1      56.772  49.707  49.469  0.00  0.00     0.103 A 
ATOM     14  C   UNL d   1      57.471  49.707  49.027  0.00  0.00     0.021 A 
ATOM     15  N   UNL d   1      56.034  49.707  49.090  0.00  0.00    -0.148 N 
ATOM     16  C   UNL d   1      58.206  49.707  49.408  0.00  0.00     0.004 A 
ENDBRANCH   1  10
TORSDOF 1
ENDMDL
