MODEL 1
REMARK VINA RESULT:      -7.6      0.000      0.000
REMARK  9 active torsions:
REMARK  status: ('A' for Active; 'I' for Inactive)
REMARK    1  A    between atoms: C_2  and  N_1 
REMARK    2  A    between atoms: C_4  and  C_2 
REMARK    3  A    between atoms: C_6  and  C_2 
REMARK    4  A    between atoms: C_8  and  N_3 
REMARK       I    between atoms: C_5  and  N_7 
REMARK    5  A    between atoms: O_17  and  C_5 
REMARK    6  A    between atoms: N_7  and  C_6 
REMARK    7  A    between atoms: C_22  and  O_17 
REMARK    8  A    between atoms: O_26  and  C_21 
REMARK    9  A    between atoms: C_25  and  C_22 
ROOT
ATOM      1  C   UNL d   1      52.065  33.758  53.037  0.00  0.00     0.107 C 
ENDROOT
BRANCH   1   2
ATOM      2  N   UNL d   1      51.320  34.018  52.770  0.00  0.00    -0.298 N 
ATOM      3  C   UNL d   1      50.679  34.017  53.277  0.00  0.00     0.100 A 
ATOM      4  C   UNL d   1      49.934  34.277  53.010  0.00  0.00     0.100 A 
ATOM      5  N   UNL d   1      49.848  34.536  52.231  0.00  0.00    -0.301 N 
ATOM      6  C   UNL d   1      50.506  34.533  51.725  0.00  0.00     0.100 A 
ATOM      7  C   UNL d   1      51.233  34.277  51.991  0.00  0.00     0.100 A 
BRANCH   5   8
ATOM      8  C   UNL d   1      49.129  34.790  51.963  0.00  0.00     0.064 A 
ATOM      9  C   UNL d   1      48.853  34.552  51.223  0.00  0.00     0.020 A 
ATOM     10  C   UNL d   1      48.118  34.814  50.953  0.00  0.00     0.026 A 
ATOM     11  C   UNL d   1      47.660  35.314  51.424  0.00  0.00     0.094 A 
ATOM     12  C   UNL d   1      47.936  35.552  52.164  0.00  0.00     0.026 A 
ATOM     13  C   UNL d   1      48.670  35.289  52.430  0.00  0.00     0.020 A 
BRANCH  11  14
ATOM     14  O   UNL d   1      46.914  35.579  51.147  0.00  0.00    -0.328 OA
ATOM     15  C   UNL d   1      46.299  35.668  51.686  0.00  0.00     0.181 C 
ENDBRANCH  11  14
ENDBRANCH   5   8
ENDBRANCH   1   2
BRANCH   1  16
ATOM     16  C   UNL d   1      52.480  34.222  53.600  0.00  0.00     0.118 A 
ATOM     17  O   UNL d   1      52.461  34.243  54.427  0.00  0.00    -0.304 OA
ATOM     18  C   UNL d   1      53.003  34.823  54.670  0.00  0.00     0.123 A 
ATOM     19  C   UNL d   1      53.348  35.152  54.009  0.00  0.00     0.029 A 
ATOM     20  C   UNL d   1      53.025  34.780  53.342  0.00  0.00     0.028 A 
ENDBRANCH   1  16
BRANCH   1  21
ATOM     21  C   UNL d   1      52.399  33.059  52.762  0.00  0.00     0.124 C 
BRANCH  21  22
ATOM     22  N   UNL d   1      52.386  32.374  53.247  0.00  0.00    -0.183 NA
ATOM     23  C   UNL d   1      52.675  31.667  52.969  0.00  0.00     0.392 C 
ATOM     24  O   UNL d   1      52.986  31.621  52.202  0.00  0.00    -0.236 OA
BRANCH  23  25
ATOM     25  O   UNL d   1      52.658  31.000  53.452  0.00  0.00    -0.256 OA
BRANCH  25  26
ATOM     26  C   UNL d   1      53.328  30.522  53.520  0.00  0.00     0.128 C 
BRANCH  26  27
ATOM     27  C   UNL d   1      53.333  29.891  54.051  0.00  0.00     0.025 A 
ATOM     28  C   UNL d   1      53.280  30.034  54.862  0.00  0.00     0.002 A 
ATOM     29  C   UNL d   1      53.284  29.403  55.393  0.00  0.00     0.000 A 
ATOM     30  C   UNL d   1      53.341  28.628  55.113  0.00  0.00     0.000 A 
ATOM     31  C   UNL d   1      53.394  28.489  54.306  0.00  0.00     0.000 A 
ATOM     32  C   UNL d   1      53.390  29.117  53.771  0.00  0.00     0.002 A 
ENDBRANCH  26  27
ENDBRANCH  25  26
ENDBRANCH  23  25
ENDBRANCH  21  22
ENDBRANCH   1  21
TORSDOF 9
ENDMDL
MODEL 2
REMARK VINA RESULT:      -6.7      1.142      6.137
REMARK  9 active torsions:
REMARK  status: ('A' for Active; 'I' for Inactive)
REMARK    1  A    between atoms: C_2  and  N_1 
REMARK    2  A    between atoms: C_4  and  C_2 
REMARK    3  A    between atoms: C_6  and  C_2 
REMARK    4  A    between atoms: C_8  and  N_3 
REMARK       I    between atoms: C_5  and  N_7 
REMARK    5  A    between atoms: O_17  and  C_5 
REMARK    6  A    between atoms: N_7  and  C_6 
REMARK    7  A    between atoms: C_22  and  O_17 
REMARK    8  A    between atoms: O_26  and  C_21 
REMARK    9  A    between atoms: C_25  and  C_22 
ROOT
ATOM      1  C   UNL d   1      52.074  34.011  52.983  0.00  0.00     0.107 C 
ENDROOT
BRANCH   1   2
ATOM      2  N   UNL d   1      52.273  33.215  53.128  0.00  0.00    -0.298 N 
ATOM      3  C   UNL d   1      52.972  32.908  52.838  0.00  0.00     0.100 A 
ATOM      4  C   UNL d   1      53.171  32.112  52.982  0.00  0.00     0.100 A 
ATOM      5  N   UNL d   1      52.658  31.637  53.420  0.00  0.00    -0.301 N 
ATOM      6  C   UNL d   1      51.950  31.960  53.711  0.00  0.00     0.100 A 
ATOM      7  C   UNL d   1      51.760  32.740  53.566  0.00  0.00     0.100 A 
BRANCH   5   8
ATOM      8  C   UNL d   1      52.842  30.864  53.566  0.00  0.00     0.064 A 
ATOM      9  C   UNL d   1      52.657  30.280  53.013  0.00  0.00     0.020 A 
ATOM     10  C   UNL d   1      52.847  29.491  53.166  0.00  0.00     0.026 A 
ATOM     11  C   UNL d   1      53.222  29.287  53.872  0.00  0.00     0.094 A 
ATOM     12  C   UNL d   1      53.407  29.870  54.425  0.00  0.00     0.026 A 
ATOM     13  C   UNL d   1      53.216  30.656  54.269  0.00  0.00     0.020 A 
BRANCH  11  14
ATOM     14  O   UNL d   1      53.414  28.485  54.025  0.00  0.00    -0.328 OA
ATOM     15  C   UNL d   1      53.643  28.269  54.784  0.00  0.00     0.181 C 
ENDBRANCH  11  14
ENDBRANCH   5   8
ENDBRANCH   1   2
BRANCH   1  16
ATOM     16  C   UNL d   1      52.427  34.611  53.453  0.00  0.00     0.118 A 
ATOM     17  O   UNL d   1      52.294  34.857  54.232  0.00  0.00    -0.304 OA
ATOM     18  C   UNL d   1      52.820  35.481  54.385  0.00  0.00     0.123 A 
ATOM     19  C   UNL d   1      53.266  35.616  53.716  0.00  0.00     0.029 A 
ATOM     20  C   UNL d   1      53.024  35.076  53.135  0.00  0.00     0.028 A 
ENDBRANCH   1  16
BRANCH   1  21
ATOM     21  C   UNL d   1      51.542  34.220  52.392  0.00  0.00     0.124 C 
BRANCH  21  22
ATOM     22  N   UNL d   1      50.757  34.433  52.598  0.00  0.00    -0.183 NA
ATOM     23  C   UNL d   1      50.190  34.520  52.021  0.00  0.00     0.392 C 
ATOM     24  O   UNL d   1      50.386  34.397  51.226  0.00  0.00    -0.236 OA
BRANCH  23  25
ATOM     25  O   UNL d   1      49.421  34.730  52.232  0.00  0.00    -0.256 OA
BRANCH  25  26
ATOM     26  C   UNL d   1      48.873  34.931  51.648  0.00  0.00     0.128 C 
BRANCH  26  27
ATOM     27  C   UNL d   1      48.182  35.333  51.852  0.00  0.00     0.025 A 
ATOM     28  C   UNL d   1      47.522  35.293  51.358  0.00  0.00     0.002 A 
ATOM     29  C   UNL d   1      46.831  35.695  51.561  0.00  0.00     0.000 A 
ATOM     30  C   UNL d   1      46.800  36.136  52.259  0.00  0.00     0.000 A 
ATOM     31  C   UNL d   1      47.458  36.174  52.748  0.00  0.00     0.000 A 
ATOM     32  C   UNL d   1      48.152  35.774  52.548  0.00  0.00     0.002 A 
ENDBRANCH  26  27
ENDBRANCH  25  26
ENDBRANCH  23  25
ENDBRANCH  21  22
ENDBRANCH   1  21
TORSDOF 9
ENDMDL
