MODEL 1
REMARK VINA RESULT:     -12.0      0.000      0.000
REMARK  3 active torsions:
REMARK  status: ('A' for Active; 'I' for Inactive)
REMARK    1  A    between atoms: C_8  and  C_1 
REMARK    2  A    between atoms: O_13  and  C_6 
REMARK    3  A    between atoms: C_17  and  O_13 
ROOT
ATOM      1  C   UNL d   1      53.438  32.471  53.724  0.00  0.00     0.009 A 
ATOM      2  C   UNL d   1      52.786  32.903  53.453  0.00  0.00     0.046 A 
ATOM      3  C   UNL d   1      52.229  32.538  52.959  0.00  0.00     0.105 A 
ATOM      4  O   UNL d   1      52.325  31.751  52.742  0.00  0.00    -0.273 OA
ATOM      5  C   UNL d   1      53.537  31.684  53.508  0.00  0.00     0.069 A 
ATOM      6  C   UNL d   1      52.688  33.690  53.668  0.00  0.00     0.102 A 
ATOM      7  C   UNL d   1      52.982  31.320  53.017  0.00  0.00     0.300 A 
ATOM      8  C   UNL d   1      51.579  32.963  52.687  0.00  0.00     0.025 A 
ATOM      9  C   UNL d   1      52.038  34.119  53.397  0.00  0.00     0.025 A 
ATOM     10  O   UNL d   1      53.078  30.527  52.797  0.00  0.00    -0.259 OA
ATOM     11  C   UNL d   1      51.483  33.756  52.907  0.00  0.00     0.004 A 
ATOM     12  C   UNL d   1      50.832  34.176  52.632  0.00  0.00     0.000 C 
ENDROOT
BRANCH   1  13
ATOM     13  C   UNL d   1      53.996  32.836  54.217  0.00  0.00     0.000 A 
ATOM     14  C   UNL d   1      54.655  33.214  53.885  0.00  0.00     0.000 A 
ATOM     15  C   UNL d   1      55.218  33.584  54.383  0.00  0.00     0.000 A 
ATOM     16  C   UNL d   1      55.117  33.571  55.199  0.00  0.00     0.000 A 
ATOM     17  C   UNL d   1      54.448  33.187  55.525  0.00  0.00     0.000 A 
ATOM     18  C   UNL d   1      53.894  32.823  55.034  0.00  0.00     0.000 A 
ENDBRANCH   1  13
BRANCH   6  19
ATOM     19  O   UNL d   1      53.245  34.056  54.162  0.00  0.00    -0.305 OA
BRANCH  19  20
ATOM     20  C   UNL d   1      53.058  34.746  54.553  0.00  0.00     0.123 C 
ATOM     21  C   UNL d   1      53.240  35.471  54.209  0.00  0.00     0.029 C 
ENDBRANCH  19  20
ENDBRANCH   6  19
TORSDOF 3
ENDMDL
MODEL 2
REMARK VINA RESULT:     -11.6      0.672      2.758
REMARK  3 active torsions:
REMARK  status: ('A' for Active; 'I' for Inactive)
REMARK    1  A    between atoms: C_8  and  C_1 
REMARK    2  A    between atoms: O_13  and  C_6 
REMARK    3  A    between atoms: C_17  and  O_13 
ROOT
ATOM      1  C   UNL d   1      52.540  32.643  53.237  0.00  0.00     0.009 A 
ATOM      2  C   UNL d   1      53.143  32.858  53.763  0.00  0.00     0.046 A 
ATOM      3  C   UNL d   1      53.716  32.299  53.979  0.00  0.00     0.105 A 
ATOM      4  O   UNL d   1      53.684  31.536  53.673  0.00  0.00    -0.273 OA
ATOM      5  C   UNL d   1      52.506  31.882  52.929  0.00  0.00     0.069 A 
ATOM      6  C   UNL d   1      53.177  33.619  54.071  0.00  0.00     0.102 A 
ATOM      7  C   UNL d   1      53.076  31.326  53.145  0.00  0.00     0.300 A 
ATOM      8  C   UNL d   1      54.317  32.507  54.502  0.00  0.00     0.025 A 
ATOM      9  C   UNL d   1      53.778  33.831  54.594  0.00  0.00     0.025 A 
ATOM     10  O   UNL d   1      53.044  30.557  52.836  0.00  0.00    -0.259 OA
ATOM     11  C   UNL d   1      54.348  33.275  54.810  0.00  0.00     0.004 A 
ATOM     12  C   UNL d   1      54.951  33.477  55.331  0.00  0.00     0.000 C 
ENDROOT
BRANCH   1  13
ATOM     13  C   UNL d   1      51.968  33.202  53.020  0.00  0.00     0.000 A 
ATOM     14  C   UNL d   1      51.262  33.258  53.453  0.00  0.00     0.000 A 
ATOM     15  C   UNL d   1      50.683  33.823  53.234  0.00  0.00     0.000 A 
ATOM     16  C   UNL d   1      50.815  34.320  52.592  0.00  0.00     0.000 A 
ATOM     17  C   UNL d   1      51.530  34.256  52.162  0.00  0.00     0.000 A 
ATOM     18  C   UNL d   1      52.100  33.700  52.378  0.00  0.00     0.000 A 
ENDBRANCH   1  13
BRANCH   6  19
ATOM     19  O   UNL d   1      52.605  34.178  53.854  0.00  0.00    -0.305 OA
BRANCH  19  20
ATOM     20  C   UNL d   1      52.511  34.862  54.289  0.00  0.00     0.123 C 
ATOM     21  C   UNL d   1      52.937  35.535  54.085  0.00  0.00     0.029 C 
ENDBRANCH  19  20
ENDBRANCH   6  19
TORSDOF 3
ENDMDL
MODEL 3
REMARK VINA RESULT:     -10.5      1.049      3.756
REMARK  3 active torsions:
REMARK  status: ('A' for Active; 'I' for Inactive)
REMARK    1  A    between atoms: C_8  and  C_1 
REMARK    2  A    between atoms: O_13  and  C_6 
REMARK    3  A    between atoms: C_17  and  O_13 
ROOT
ATOM      1  C   UNL d   1      52.481  34.691  53.770  0.00  0.00     0.009 A 
ATOM      2  C   UNL d   1      52.969  34.132  54.137  0.00  0.00     0.046 A 
ATOM      3  C   UNL d   1      53.504  34.375  54.721  0.00  0.00     0.105 A 
ATOM      4  O   UNL d   1      53.549  35.169  54.934  0.00  0.00    -0.273 OA
ATOM      5  C   UNL d   1      52.523  35.485  53.981  0.00  0.00     0.069 A 
ATOM      6  C   UNL d   1      52.926  33.338  53.927  0.00  0.00     0.102 A 
ATOM      7  C   UNL d   1      53.056  35.727  54.562  0.00  0.00     0.300 A 
ATOM      8  C   UNL d   1      53.992  33.823  55.089  0.00  0.00     0.025 A 
ATOM      9  C   UNL d   1      53.413  32.783  54.293  0.00  0.00     0.025 A 
ATOM     10  O   UNL d   1      53.101  36.527  54.777  0.00  0.00    -0.259 OA
ATOM     11  C   UNL d   1      53.946  33.025  54.874  0.00  0.00     0.004 A 
ATOM     12  C   UNL d   1      54.435  32.478  55.244  0.00  0.00     0.000 C 
ENDROOT
BRANCH   1  13
ATOM     13  C   UNL d   1      51.945  34.447  53.186  0.00  0.00     0.000 A 
ATOM     14  C   UNL d   1      51.176  34.222  53.400  0.00  0.00     0.000 A 
ATOM     15  C   UNL d   1      50.635  33.976  52.810  0.00  0.00     0.000 A 
ATOM     16  C   UNL d   1      50.867  33.958  52.021  0.00  0.00     0.000 A 
ATOM     17  C   UNL d   1      51.645  34.187  51.815  0.00  0.00     0.000 A 
ATOM     18  C   UNL d   1      52.177  34.430  52.396  0.00  0.00     0.000 A 
ENDBRANCH   1  13
BRANCH   6  19
ATOM     19  O   UNL d   1      52.391  33.095  53.342  0.00  0.00    -0.305 OA
BRANCH  19  20
ATOM     20  C   UNL d   1      52.196  32.306  53.266  0.00  0.00     0.123 C 
ATOM     21  C   UNL d   1      52.621  31.831  52.746  0.00  0.00     0.029 C 
ENDBRANCH  19  20
ENDBRANCH   6  19
TORSDOF 3
ENDMDL
MODEL 4
REMARK VINA RESULT:     -10.3      1.021      2.559
REMARK  3 active torsions:
REMARK  status: ('A' for Active; 'I' for Inactive)
REMARK    1  A    between atoms: C_8  and  C_1 
REMARK    2  A    between atoms: O_13  and  C_6 
REMARK    3  A    between atoms: C_17  and  O_13 
ROOT
ATOM      1  C   UNL d   1      53.145  34.200  54.057  0.00  0.00     0.009 A 
ATOM      2  C   UNL d   1      52.449  34.145  53.612  0.00  0.00     0.046 A 
ATOM      3  C   UNL d   1      51.951  34.805  53.549  0.00  0.00     0.105 A 
ATOM      4  O   UNL d   1      52.150  35.509  53.926  0.00  0.00    -0.273 OA
ATOM      5  C   UNL d   1      53.346  34.901  54.435  0.00  0.00     0.069 A 
ATOM      6  C   UNL d   1      52.248  33.444  53.234  0.00  0.00     0.102 A 
ATOM      7  C   UNL d   1      52.851  35.558  54.372  0.00  0.00     0.300 A 
ATOM      8  C   UNL d   1      51.258  34.757  53.107  0.00  0.00     0.025 A 
ATOM      9  C   UNL d   1      51.555  33.391  52.792  0.00  0.00     0.025 A 
ATOM     10  O   UNL d   1      53.050  36.268  54.752  0.00  0.00    -0.259 OA
ATOM     11  C   UNL d   1      51.059  34.048  52.728  0.00  0.00     0.004 A 
ATOM     12  C   UNL d   1      50.366  34.005  52.289  0.00  0.00     0.000 C 
ENDROOT
BRANCH   1  13
ATOM     13  C   UNL d   1      53.643  33.540  54.121  0.00  0.00     0.000 A 
ATOM     14  C   UNL d   1      54.230  33.409  53.549  0.00  0.00     0.000 A 
ATOM     15  C   UNL d   1      54.733  32.742  53.614  0.00  0.00     0.000 A 
ATOM     16  C   UNL d   1      54.645  32.219  54.242  0.00  0.00     0.000 A 
ATOM     17  C   UNL d   1      54.050  32.359  54.814  0.00  0.00     0.000 A 
ATOM     18  C   UNL d   1      53.554  33.016  54.751  0.00  0.00     0.000 A 
ENDBRANCH   1  13
BRANCH   6  19
ATOM     19  O   UNL d   1      52.746  32.784  53.298  0.00  0.00    -0.305 OA
BRANCH  19  20
ATOM     20  C   UNL d   1      52.671  32.160  52.778  0.00  0.00     0.123 C 
ATOM     21  C   UNL d   1      52.278  31.477  53.016  0.00  0.00     0.029 C 
ENDBRANCH  19  20
ENDBRANCH   6  19
TORSDOF 3
ENDMDL
MODEL 5
REMARK VINA RESULT:      -9.7      1.004      2.736
REMARK  3 active torsions:
REMARK  status: ('A' for Active; 'I' for Inactive)
REMARK    1  A    between atoms: C_8  and  C_1 
REMARK    2  A    between atoms: O_13  and  C_6 
REMARK    3  A    between atoms: C_17  and  O_13 
ROOT
ATOM      1  C   UNL d   1      54.033  32.910  54.390  0.00  0.00     0.009 A 
ATOM      2  C   UNL d   1      53.508  33.528  54.223  0.00  0.00     0.046 A 
ATOM      3  C   UNL d   1      53.660  34.286  54.521  0.00  0.00     0.105 A 
ATOM      4  O   UNL d   1      54.328  34.422  54.981  0.00  0.00    -0.273 OA
ATOM      5  C   UNL d   1      54.702  33.043  54.849  0.00  0.00     0.069 A 
ATOM      6  C   UNL d   1      52.840  33.395  53.763  0.00  0.00     0.102 A 
ATOM      7  C   UNL d   1      54.853  33.798  55.146  0.00  0.00     0.300 A 
ATOM      8  C   UNL d   1      53.141  34.904  54.357  0.00  0.00     0.025 A 
ATOM      9  C   UNL d   1      52.318  34.011  53.597  0.00  0.00     0.025 A 
ATOM     10  O   UNL d   1      55.526  33.936  55.610  0.00  0.00    -0.259 OA
ATOM     11  C   UNL d   1      52.468  34.766  53.894  0.00  0.00     0.004 A 
ATOM     12  C   UNL d   1      51.954  35.386  53.734  0.00  0.00     0.000 C 
ENDROOT
BRANCH   1  13
ATOM     13  C   UNL d   1      53.882  32.151  54.092  0.00  0.00     0.000 A 
ATOM     14  C   UNL d   1      53.462  31.604  54.552  0.00  0.00     0.000 A 
ATOM     15  C   UNL d   1      53.309  30.837  54.251  0.00  0.00     0.000 A 
ATOM     16  C   UNL d   1      53.575  30.629  53.501  0.00  0.00     0.000 A 
ATOM     17  C   UNL d   1      53.998  31.188  53.044  0.00  0.00     0.000 A 
ATOM     18  C   UNL d   1      54.149  31.943  53.341  0.00  0.00     0.000 A 
ENDBRANCH   1  13
BRANCH   6  19
ATOM     19  O   UNL d   1      52.688  32.636  53.465  0.00  0.00    -0.305 OA
BRANCH  19  20
ATOM     20  C   UNL d   1      52.145  32.530  52.866  0.00  0.00     0.123 C 
ATOM     21  C   UNL d   1      51.363  32.357  53.052  0.00  0.00     0.029 C 
ENDBRANCH  19  20
ENDBRANCH   6  19
TORSDOF 3
ENDMDL
MODEL 6
REMARK VINA RESULT:      -9.3      1.115      2.530
REMARK  3 active torsions:
REMARK  status: ('A' for Active; 'I' for Inactive)
REMARK    1  A    between atoms: C_8  and  C_1 
REMARK    2  A    between atoms: O_13  and  C_6 
REMARK    3  A    between atoms: C_17  and  O_13 
ROOT
ATOM      1  C   UNL d   1      52.600  33.235  53.104  0.00  0.00     0.009 A 
ATOM      2  C   UNL d   1      52.736  33.906  53.570  0.00  0.00     0.046 A 
ATOM      3  C   UNL d   1      52.334  34.611  53.400  0.00  0.00     0.105 A 
ATOM      4  O   UNL d   1      51.805  34.643  52.772  0.00  0.00    -0.273 OA
ATOM      5  C   UNL d   1      52.071  33.264  52.476  0.00  0.00     0.069 A 
ATOM      6  C   UNL d   1      53.265  33.878  54.199  0.00  0.00     0.102 A 
ATOM      7  C   UNL d   1      51.671  33.965  52.306  0.00  0.00     0.300 A 
ATOM      8  C   UNL d   1      52.466  35.282  53.860  0.00  0.00     0.025 A 
ATOM      9  C   UNL d   1      53.399  34.547  54.662  0.00  0.00     0.025 A 
ATOM     10  O   UNL d   1      51.137  33.998  51.673  0.00  0.00    -0.259 OA
ATOM     11  C   UNL d   1      53.000  35.249  54.493  0.00  0.00     0.004 A 
ATOM     12  C   UNL d   1      53.127  35.920  54.949  0.00  0.00     0.000 C 
ENDROOT
BRANCH   1  13
ATOM     13  C   UNL d   1      53.001  32.530  53.274  0.00  0.00     0.000 A 
ATOM     14  C   UNL d   1      52.642  31.957  53.755  0.00  0.00     0.000 A 
ATOM     15  C   UNL d   1      53.047  31.245  53.927  0.00  0.00     0.000 A 
ATOM     16  C   UNL d   1      53.799  31.114  53.620  0.00  0.00     0.000 A 
ATOM     17  C   UNL d   1      54.153  31.698  53.136  0.00  0.00     0.000 A 
ATOM     18  C   UNL d   1      53.754  32.400  52.967  0.00  0.00     0.000 A 
ENDBRANCH   1  13
BRANCH   6  19
ATOM     19  O   UNL d   1      53.666  33.173  54.369  0.00  0.00    -0.305 OA
BRANCH  19  20
ATOM     20  C   UNL d   1      54.037  33.073  55.088  0.00  0.00     0.123 C 
ATOM     21  C   UNL d   1      54.829  33.283  55.170  0.00  0.00     0.029 C 
ENDBRANCH  19  20
ENDBRANCH   6  19
TORSDOF 3
ENDMDL
