MODEL 1
REMARK VINA RESULT:      30.9      0.000      0.000
REMARK  2 active torsions:
REMARK  status: ('A' for Active; 'I' for Inactive)
REMARK    1  A    between atoms: C_2  and  N_1 
REMARK    2  A    between atoms: C_4  and  C_7 
ROOT
ATOM      1  C   UNL d   1     -52.391  24.481  33.619  0.00  0.00     0.146 A 
ATOM      2  C   UNL d   1     -51.701  24.926  33.699  0.00  0.00     0.027 A 
ATOM      3  C   UNL d   1     -51.721  25.757  33.582  0.00  0.00     0.021 A 
ATOM      4  C   UNL d   1     -53.101  24.853  33.423  0.00  0.00     0.125 A 
ATOM      5  C   UNL d   1     -52.430  26.122  33.387  0.00  0.00     0.003 A 
ATOM      6  C   UNL d   1     -53.120  25.685  33.306  0.00  0.00     0.023 A 
ATOM      7  N   UNL d   1     -53.794  24.408  33.342  0.00  0.00    -0.146 N 
ENDROOT
BRANCH   3   8
ATOM      8  C   UNL d   1     -51.031  26.195  33.663  0.00  0.00     0.103 A 
ATOM      9  N   UNL d   1     -50.316  25.831  33.865  0.00  0.00    -0.145 NA
ATOM     10  N   UNL d   1     -49.626  26.268  33.947  0.00  0.00    -0.106 NA
ATOM     11  C   UNL d   1     -49.644  27.085  33.825  0.00  0.00     0.297 A 
ATOM     12  C   UNL d   1     -50.360  27.457  33.621  0.00  0.00     0.066 A 
ATOM     13  O   UNL d   1     -48.954  27.531  33.905  0.00  0.00    -0.264 OA
ATOM     14  C   UNL d   1     -51.050  27.011  33.541  0.00  0.00     0.024 A 
ATOM     15  C   UNL d   1     -51.762  27.384  33.338  0.00  0.00     0.002 C 
ENDBRANCH   3   8
BRANCH   1  16
ATOM     16  N   UNL d   1     -52.371  23.662  33.734  0.00  0.00    -0.112 N 
ATOM     17  O   UNL d   1     -51.840  23.198  33.308  0.00  0.00    -0.532 OA
ATOM     18  O   UNL d   1     -52.883  23.309  34.276  0.00  0.00    -0.532 OA
ENDBRANCH   1  16
TORSDOF 2
ENDMDL
MODEL 2
REMARK VINA RESULT:      31.3      1.277      3.730
REMARK  2 active torsions:
REMARK  status: ('A' for Active; 'I' for Inactive)
REMARK    1  A    between atoms: C_2  and  N_1 
REMARK    2  A    between atoms: C_4  and  C_7 
ROOT
ATOM      1  C   UNL d   1     -50.367  25.713  33.821  0.00  0.00     0.146 A 
ATOM      2  C   UNL d   1     -51.129  25.396  33.808  0.00  0.00     0.027 A 
ATOM      3  C   UNL d   1     -51.251  24.606  33.548  0.00  0.00     0.021 A 
ATOM      4  C   UNL d   1     -49.726  25.254  33.578  0.00  0.00     0.125 A 
ATOM      5  C   UNL d   1     -50.609  24.155  33.308  0.00  0.00     0.003 A 
ATOM      6  C   UNL d   1     -49.849  24.465  33.318  0.00  0.00     0.023 A 
ATOM      7  N   UNL d   1     -48.961  25.571  33.590  0.00  0.00    -0.146 N 
ENDROOT
BRANCH   3   8
ATOM      8  C   UNL d   1     -52.011  24.297  33.538  0.00  0.00     0.103 A 
ATOM      9  N   UNL d   1     -52.145  23.498  33.367  0.00  0.00    -0.145 NA
ATOM     10  N   UNL d   1     -52.906  23.188  33.356  0.00  0.00    -0.106 NA
ATOM     11  C   UNL d   1     -53.549  23.680  33.519  0.00  0.00     0.297 A 
ATOM     12  C   UNL d   1     -53.421  24.485  33.691  0.00  0.00     0.066 A 
ATOM     13  O   UNL d   1     -54.316  23.376  33.510  0.00  0.00    -0.264 OA
ATOM     14  C   UNL d   1     -52.654  24.789  33.700  0.00  0.00     0.024 A 
ATOM     15  C   UNL d   1     -52.529  25.590  33.872  0.00  0.00     0.002 C 
ENDBRANCH   3   8
BRANCH   1  16
ATOM     16  N   UNL d   1     -50.247  26.490  34.077  0.00  0.00    -0.112 N 
ATOM     17  O   UNL d   1     -50.290  27.114  33.538  0.00  0.00    -0.532 OA
ATOM     18  O   UNL d   1     -50.084  26.643  34.871  0.00  0.00    -0.532 OA
ENDBRANCH   1  16
TORSDOF 2
ENDMDL
