MODEL 1
REMARK VINA RESULT:      70.6      0.000      0.000
REMARK  5 active torsions:
REMARK  status: ('A' for Active; 'I' for Inactive)
REMARK    1  A    between atoms: S_3  and  N_1 
REMARK    2  A    between atoms: C_7  and  C_4 
REMARK    3  A    between atoms: C_8  and  C_5 
REMARK    4  A    between atoms: O_21  and  C_13 
REMARK    5  A    between atoms: O_22  and  C_15 
ROOT
ATOM      1  N   UNL d   1     -55.215-101.840 -41.526  0.00  0.00    -0.155 N 
ATOM      2  N   UNL d   1     -55.217-102.114 -40.760  0.00  0.00    -0.155 NA
ATOM      3  C   UNL d   1     -55.005-101.493 -40.263  0.00  0.00     0.110 A 
ATOM      4  C   UNL d   1     -55.001-101.044 -41.504  0.00  0.00     0.096 A 
ATOM      5  C   UNL d   1     -54.873-100.837 -40.726  0.00  0.00     0.041 A 
ENDROOT
BRANCH   4   6
ATOM      6  C   UNL d   1     -54.930-100.548 -42.155  0.00  0.00     0.021 A 
ATOM      7  C   UNL d   1     -55.001-100.855 -42.917  0.00  0.00     0.028 A 
ATOM      8  C   UNL d   1     -54.929-100.355 -43.573  0.00  0.00     0.116 A 
ATOM      9  C   UNL d   1     -54.787 -99.552 -43.463  0.00  0.00     0.116 A 
ATOM     10  C   UNL d   1     -54.715 -99.244 -42.701  0.00  0.00     0.026 A 
ATOM     11  C   UNL d   1     -54.787 -99.741 -42.050  0.00  0.00     0.004 A 
BRANCH   8  12
ATOM     12  O   UNL d   1     -55.001-100.662 -44.335  0.00  0.00    -0.326 OA
ATOM     13  C   UNL d   1     -54.742-101.426 -44.497  0.00  0.00     0.181 C 
ENDBRANCH   8  12
BRANCH   9  14
ATOM     14  O   UNL d   1     -54.715 -99.052 -44.118  0.00  0.00    -0.326 OA
ATOM     15  C   UNL d   1     -55.251 -99.110 -44.745  0.00  0.00     0.181 C 
ENDBRANCH   9  14
ENDBRANCH   4   6
BRANCH   1  16
ATOM     16  S   UNL d   1     -55.393-102.274 -42.193  0.00  0.00     0.266 S 
ATOM     17  O   UNL d   1     -55.564-102.716 -42.889  0.00  0.00    -0.203 OA
ATOM     18  O   UNL d   1     -56.033-102.614 -41.806  0.00  0.00    -0.203 OA
ATOM     19  C   UNL d   1     -54.760-101.940 -42.581  0.00  0.00     0.165 C 
ENDBRANCH   1  16
BRANCH   3  20
ATOM     20  C   UNL d   1     -54.940-101.540 -39.436  0.00  0.00     0.049 A 
ATOM     21  S   UNL d   1     -54.723-100.922 -38.939  0.00  0.00    -0.085 SA
ATOM     22  C   UNL d   1     -54.723-101.195 -38.144  0.00  0.00     0.035 A 
ATOM     23  C   UNL d   1     -54.946-101.990 -38.171  0.00  0.00     0.007 A 
ATOM     24  C   UNL d   1     -55.077-102.193 -38.971  0.00  0.00     0.009 A 
ENDBRANCH   3  20
TORSDOF 5
ENDMDL
