MODEL 1
REMARK VINA RESULT:      46.0      0.000      0.000
REMARK  2 active torsions:
REMARK  status: ('A' for Active; 'I' for Inactive)
REMARK    1  A    between atoms: N_2  and  S_1 
REMARK    2  A    between atoms: C_4  and  S_1 
ROOT
ATOM      1  N   UNL d   1     -56.466 -99.267 -44.735  0.00  0.00    -0.231 N 
ATOM      2  C   UNL d   1     -55.944 -99.881 -44.535  0.00  0.00     0.075 A 
ATOM      3  C   UNL d   1     -55.249 -99.982 -44.954  0.00  0.00     0.017 A 
ATOM      4  C   UNL d   1     -56.278 -98.755 -45.362  0.00  0.00     0.092 A 
ATOM      5  C   UNL d   1     -56.131-100.393 -43.909  0.00  0.00     0.018 A 
ATOM      6  C   UNL d   1     -55.583 -98.856 -45.780  0.00  0.00     0.020 A 
ATOM      7  C   UNL d   1     -55.060 -99.471 -45.581  0.00  0.00     0.003 A 
ATOM      8  C   UNL d   1     -54.726-100.597 -44.755  0.00  0.00     0.002 A 
ATOM      9  C   UNL d   1     -55.613-100.998 -43.716  0.00  0.00     0.002 A 
ATOM     10  C   UNL d   1     -54.917-101.099 -44.134  0.00  0.00     0.000 A 
ENDROOT
BRANCH   1  11
ATOM     11  S   UNL d   1     -57.162 -99.166 -44.316  0.00  0.00     0.271 S 
ATOM     12  O   UNL d   1     -57.716 -99.475 -45.161  0.00  0.00    -0.200 OA
ATOM     13  O   UNL d   1     -56.689 -98.901 -43.594  0.00  0.00    -0.200 OA
BRANCH  11  14
ATOM     14  C   UNL d   1     -57.867 -99.063 -43.891  0.00  0.00     0.104 A 
ATOM     15  C   UNL d   1     -57.834 -98.868 -43.091  0.00  0.00     0.014 A 
ATOM     16  C   UNL d   1     -58.527 -98.766 -42.668  0.00  0.00     0.012 A 
ATOM     17  C   UNL d   1     -59.254 -98.857 -43.038  0.00  0.00     0.058 A 
ATOM     18  C   UNL d   1     -59.286 -99.053 -43.839  0.00  0.00     0.012 A 
ATOM     19 CL   UNL d   1     -59.959 -98.755 -42.613  0.00  0.00    -0.082 Cl
ATOM     20  C   UNL d   1     -58.581 -99.155 -44.263  0.00  0.00     0.014 A 
ENDBRANCH  11  14
ENDBRANCH   1  11
TORSDOF 2
ENDMDL
