MODEL 1
REMARK VINA RESULT:      -3.0      0.000      0.000
REMARK  8 active torsions:
REMARK  status: ('A' for Active; 'I' for Inactive)
REMARK       I    between atoms: N_3  and  C_1 
REMARK    1  A    between atoms: C_11  and  C_1 
REMARK    2  A    between atoms: C_7  and  N_3 
REMARK    3  A    between atoms: C_5  and  O_8 
REMARK    4  A    between atoms: C_12  and  C_7 
REMARK    5  A    between atoms: O_8  and  C_15 
REMARK    6  A    between atoms: C_9  and  C_12 
REMARK    7  A    between atoms: C_19  and  C_11 
REMARK    8  A    between atoms: C_15  and  C_19 
ROOT
ATOM      1  C   UNL d   1     -41.690-122.521 -51.685  0.00  0.00     0.328 C 
ATOM      2  O   UNL d   1     -42.113-121.834 -51.514  0.00  0.00    -0.251 OA
ATOM      3  N   UNL d   1     -41.428-122.663 -52.460  0.00  0.00    -0.362 NA
ENDROOT
BRANCH   1   4
ATOM      4  C   UNL d   1     -41.529-123.066 -51.088  0.00  0.00     0.078 C 
BRANCH   4   5
ATOM      5  C   UNL d   1     -41.123-122.834 -50.416  0.00  0.00     0.033 C 
BRANCH   5   6
ATOM      6  C   UNL d   1     -41.279-123.194 -49.691  0.00  0.00     0.123 C 
BRANCH   6   7
ATOM      7  O   UNL d   1     -41.450-122.734 -49.028  0.00  0.00    -0.305 OA
BRANCH   7   8
ATOM      8  C   UNL d   1     -41.694-123.091 -48.328  0.00  0.00     0.100 A 
ATOM      9  C   UNL d   1     -42.495-123.276 -48.210  0.00  0.00     0.025 A 
ATOM     10  C   UNL d   1     -42.734-123.634 -47.504  0.00  0.00     0.002 A 
ATOM     11  C   UNL d   1     -43.529-123.817 -47.392  0.00  0.00     0.000 C 
ATOM     12  C   UNL d   1     -42.183-123.808 -46.916  0.00  0.00     0.000 A 
ATOM     13  C   UNL d   1     -41.388-123.626 -47.027  0.00  0.00     0.002 A 
ATOM     14  C   UNL d   1     -41.138-123.266 -47.733  0.00  0.00     0.025 A 
ENDBRANCH   7   8
ENDBRANCH   6   7
ENDBRANCH   5   6
ENDBRANCH   4   5
ENDBRANCH   1   4
BRANCH   3  15
ATOM     15  C   UNL d   1     -41.169-122.803 -53.227  0.00  0.00     0.165 C 
BRANCH  15  16
ATOM     16  C   UNL d   1     -41.693-123.094 -53.793  0.00  0.00     0.035 C 
BRANCH  16  17
ATOM     17  C   UNL d   1     -41.879-122.639 -54.448  0.00  0.00     0.003 A 
ATOM     18  C   UNL d   1     -42.667-122.430 -54.610  0.00  0.00     0.000 A 
ATOM     19  C   UNL d   1     -42.847-121.973 -55.269  0.00  0.00     0.000 A 
ATOM     20  C   UNL d   1     -42.245-121.719 -55.773  0.00  0.00     0.000 A 
ATOM     21  C   UNL d   1     -41.457-121.927 -55.612  0.00  0.00     0.000 A 
ATOM     22  C   UNL d   1     -41.277-122.385 -54.952  0.00  0.00     0.000 A 
ENDBRANCH  16  17
ENDBRANCH  15  16
ENDBRANCH   3  15
TORSDOF 8
ENDMDL
