MODEL 1
REMARK VINA RESULT:      -8.2      0.000      0.000
REMARK  4 active torsions:
REMARK  status: ('A' for Active; 'I' for Inactive)
REMARK    1  A    between atoms: C_4  and  C_1 
REMARK    2  A    between atoms: N_7  and  C_2 
REMARK       I    between atoms: N_8  and  C_4 
REMARK       I    between atoms: C_11  and  N_7 
REMARK    3  A    between atoms: C_13  and  N_8 
REMARK    4  A    between atoms: C_22  and  C_11 
ROOT
ATOM      1  C   UNL d   1     -48.631  14.407  22.097  0.00  0.00     0.175 A 
ATOM      2  C   UNL d   1     -49.222  14.082  22.477  0.00  0.00     0.114 A 
ATOM      3  O   UNL d   1     -48.442  13.943  21.509  0.00  0.00    -0.301 OA
ATOM      4  C   UNL d   1     -49.400  13.417  22.125  0.00  0.00     0.043 A 
ATOM      5  C   UNL d   1     -48.917  13.329  21.525  0.00  0.00     0.102 A 
ATOM      6  C   UNL d   1     -49.932  12.883  22.269  0.00  0.00     0.004 A 
ATOM      7  C   UNL d   1     -48.968  12.712  21.074  0.00  0.00     0.025 A 
ATOM      8  C   UNL d   1     -49.984  12.258  21.813  0.00  0.00     0.000 A 
ATOM      9  C   UNL d   1     -49.503  12.175  21.219  0.00  0.00     0.002 A 
ENDROOT
BRANCH   1  10
ATOM     10  C   UNL d   1     -48.293  15.070  22.270  0.00  0.00     0.303 C 
ATOM     11  N   UNL d   1     -46.921  14.949  22.858  0.00  0.00    -0.206 NA
ATOM     12  O   UNL d   1     -48.574  15.779  22.178  0.00  0.00    -0.263 OA
BRANCH  11  13
ATOM     13  C   UNL d   1     -46.586  14.198  22.972  0.00  0.00     0.087 A 
ATOM     14  C   UNL d   1     -45.967  13.941  22.480  0.00  0.00     0.046 A 
ATOM     15  C   UNL d   1     -45.633  13.194  22.594  0.00  0.00     0.124 A 
ATOM     16  O   UNL d   1     -45.012  12.931  22.104  0.00  0.00    -0.301 OA
ATOM     17  C   UNL d   1     -45.910  12.686  23.200  0.00  0.00     0.123 A 
ATOM     18  C   UNL d   1     -44.678  12.183  22.217  0.00  0.00     0.149 A 
ATOM     19  C   UNL d   1     -44.956  11.686  22.818  0.00  0.00     0.149 A 
ATOM     20  O   UNL d   1     -45.585  11.948  23.317  0.00  0.00    -0.301 OA
ATOM     21  C   UNL d   1     -46.531  12.950  23.690  0.00  0.00     0.028 A 
ATOM     22  C   UNL d   1     -46.871  13.711  23.575  0.00  0.00     0.021 A 
ENDBRANCH  11  13
ENDBRANCH   1  10
BRANCH   2  23
ATOM     23  N   UNL d   1     -49.571  14.376  23.100  0.00  0.00    -0.206 NA
ATOM     24  C   UNL d   1     -50.284  14.795  23.020  0.00  0.00     0.279 C 
ATOM     25  O   UNL d   1     -50.626  14.901  22.264  0.00  0.00    -0.265 OA
BRANCH  24  26
ATOM     26  C   UNL d   1     -50.658  15.112  23.697  0.00  0.00     0.062 C 
ATOM     27  C   UNL d   1     -51.051  15.836  23.649  0.00  0.00     0.005 C 
ENDBRANCH  24  26
ENDBRANCH   2  23
TORSDOF 4
ENDMDL
MODEL 2
REMARK VINA RESULT:      -7.6      1.347      4.332
REMARK  4 active torsions:
REMARK  status: ('A' for Active; 'I' for Inactive)
REMARK    1  A    between atoms: C_4  and  C_1 
REMARK    2  A    between atoms: N_7  and  C_2 
REMARK       I    between atoms: N_8  and  C_4 
REMARK       I    between atoms: C_11  and  N_7 
REMARK    3  A    between atoms: C_13  and  N_8 
REMARK    4  A    between atoms: C_22  and  C_11 
ROOT
ATOM      1  C   UNL d   1     -46.715  13.488  23.160  0.00  0.00     0.175 A 
ATOM      2  C   UNL d   1     -46.120  13.001  23.063  0.00  0.00     0.114 A 
ATOM      3  O   UNL d   1     -47.319  13.078  23.411  0.00  0.00    -0.301 OA
ATOM      4  C   UNL d   1     -46.356  12.290  23.254  0.00  0.00     0.043 A 
ATOM      5  C   UNL d   1     -47.099  12.336  23.470  0.00  0.00     0.102 A 
ATOM      6  C   UNL d   1     -45.998  11.611  23.261  0.00  0.00     0.004 A 
ATOM      7  C   UNL d   1     -47.478  11.707  23.690  0.00  0.00     0.025 A 
ATOM      8  C   UNL d   1     -46.379  10.975  23.483  0.00  0.00     0.000 A 
ATOM      9  C   UNL d   1     -47.117  11.025  23.697  0.00  0.00     0.002 A 
ENDROOT
BRANCH   1  10
ATOM     10  C   UNL d   1     -46.707  14.241  23.030  0.00  0.00     0.303 C 
ATOM     11  N   UNL d   1     -47.907  14.775  22.311  0.00  0.00    -0.206 NA
ATOM     12  O   UNL d   1     -46.162  14.745  23.225  0.00  0.00    -0.263 OA
BRANCH  11  13
ATOM     13  C   UNL d   1     -48.516  14.258  22.085  0.00  0.00     0.087 A 
ATOM     14  C   UNL d   1     -49.153  14.118  22.599  0.00  0.00     0.046 A 
ATOM     15  C   UNL d   1     -49.759  13.604  22.375  0.00  0.00     0.124 A 
ATOM     16  O   UNL d   1     -50.401  13.459  22.887  0.00  0.00    -0.301 OA
ATOM     17  C   UNL d   1     -49.744  13.217  21.630  0.00  0.00     0.123 A 
ATOM     18  C   UNL d   1     -51.008  12.944  22.661  0.00  0.00     0.149 A 
ATOM     19  C   UNL d   1     -50.986  12.566  21.925  0.00  0.00     0.149 A 
ATOM     20  O   UNL d   1     -50.338  12.710  21.403  0.00  0.00    -0.301 OA
ATOM     21  C   UNL d   1     -49.101  13.363  21.119  0.00  0.00     0.028 A 
ATOM     22  C   UNL d   1     -48.483  13.887  21.348  0.00  0.00     0.021 A 
ENDBRANCH  11  13
ENDBRANCH   1  10
BRANCH   2  23
ATOM     23  N   UNL d   1     -45.415  13.197  22.818  0.00  0.00    -0.206 NA
ATOM     24  C   UNL d   1     -45.206  13.092  22.021  0.00  0.00     0.279 C 
ATOM     25  O   UNL d   1     -45.760  12.774  21.481  0.00  0.00    -0.265 OA
BRANCH  24  26
ATOM     26  C   UNL d   1     -44.441  13.306  21.760  0.00  0.00     0.062 C 
ATOM     27  C   UNL d   1     -44.073  12.870  21.164  0.00  0.00     0.005 C 
ENDBRANCH  24  26
ENDBRANCH   2  23
TORSDOF 4
ENDMDL
MODEL 3
REMARK VINA RESULT:      -6.8      1.772      4.480
REMARK  4 active torsions:
REMARK  status: ('A' for Active; 'I' for Inactive)
REMARK    1  A    between atoms: C_4  and  C_1 
REMARK    2  A    between atoms: N_7  and  C_2 
REMARK       I    between atoms: N_8  and  C_4 
REMARK       I    between atoms: C_11  and  N_7 
REMARK    3  A    between atoms: C_13  and  N_8 
REMARK    4  A    between atoms: C_22  and  C_11 
ROOT
ATOM      1  C   UNL d   1     -46.806  12.777  23.299  0.00  0.00     0.175 A 
ATOM      2  C   UNL d   1     -46.255  13.251  23.030  0.00  0.00     0.114 A 
ATOM      3  O   UNL d   1     -47.460  13.183  23.359  0.00  0.00    -0.301 OA
ATOM      4  C   UNL d   1     -46.568  13.949  22.923  0.00  0.00     0.043 A 
ATOM      5  C   UNL d   1     -47.315  13.908  23.126  0.00  0.00     0.102 A 
ATOM      6  C   UNL d   1     -46.277  14.612  22.670  0.00  0.00     0.004 A 
ATOM      7  C   UNL d   1     -47.764  14.528  23.076  0.00  0.00     0.025 A 
ATOM      8  C   UNL d   1     -46.729  15.239  22.618  0.00  0.00     0.000 A 
ATOM      9  C   UNL d   1     -47.471  15.194  22.821  0.00  0.00     0.002 A 
ENDROOT
BRANCH   1  10
ATOM     10  C   UNL d   1     -46.719  12.039  23.475  0.00  0.00     0.303 C 
ATOM     11  N   UNL d   1     -47.961  11.209  23.367  0.00  0.00    -0.206 NA
ATOM     12  O   UNL d   1     -46.077  11.681  23.698  0.00  0.00    -0.263 OA
BRANCH  11  13
ATOM     13  C   UNL d   1     -48.673  11.562  23.129  0.00  0.00     0.087 A 
ATOM     14  C   UNL d   1     -48.814  11.712  22.324  0.00  0.00     0.046 A 
ATOM     15  C   UNL d   1     -49.523  12.063  22.087  0.00  0.00     0.124 A 
ATOM     16  O   UNL d   1     -49.669  12.216  21.281  0.00  0.00    -0.301 OA
ATOM     17  C   UNL d   1     -50.109  12.274  22.649  0.00  0.00     0.123 A 
ATOM     18  C   UNL d   1     -50.379  12.568  21.044  0.00  0.00     0.149 A 
ATOM     19  C   UNL d   1     -50.953  12.773  21.605  0.00  0.00     0.149 A 
ATOM     20  O   UNL d   1     -50.810  12.621  22.423  0.00  0.00    -0.301 OA
ATOM     21  C   UNL d   1     -49.961  12.121  23.456  0.00  0.00     0.028 A 
ATOM     22  C   UNL d   1     -49.238  11.762  23.697  0.00  0.00     0.021 A 
ENDBRANCH  11  13
ENDBRANCH   1  10
BRANCH   2  23
ATOM     23  N   UNL d   1     -45.521  13.054  22.893  0.00  0.00    -0.206 NA
ATOM     24  C   UNL d   1     -45.265  12.907  22.116  0.00  0.00     0.279 C 
ATOM     25  O   UNL d   1     -45.803  12.972  21.479  0.00  0.00    -0.265 OA
BRANCH  24  26
ATOM     26  C   UNL d   1     -44.470  12.694  21.974  0.00  0.00     0.062 C 
ATOM     27  C   UNL d   1     -44.131  12.842  21.236  0.00  0.00     0.005 C 
ENDBRANCH  24  26
ENDBRANCH   2  23
TORSDOF 4
ENDMDL
MODEL 4
REMARK VINA RESULT:      -6.6      8.290     10.283
REMARK  4 active torsions:
REMARK  status: ('A' for Active; 'I' for Inactive)
REMARK    1  A    between atoms: C_4  and  C_1 
REMARK    2  A    between atoms: N_7  and  C_2 
REMARK       I    between atoms: N_8  and  C_4 
REMARK       I    between atoms: C_11  and  N_7 
REMARK    3  A    between atoms: C_13  and  N_8 
REMARK    4  A    between atoms: C_22  and  C_11 
ROOT
ATOM      1  C   UNL d   1     -39.766  14.785  17.558  0.00  0.00     0.175 A 
ATOM      2  C   UNL d   1     -39.048  14.757  17.268  0.00  0.00     0.114 A 
ATOM      3  O   UNL d   1     -39.920  14.099  17.876  0.00  0.00    -0.301 OA
ATOM      4  C   UNL d   1     -38.759  14.054  17.405  0.00  0.00     0.043 A 
ATOM      5  C   UNL d   1     -39.299  13.645  17.782  0.00  0.00     0.102 A 
ATOM      6  C   UNL d   1     -38.082  13.733  17.240  0.00  0.00     0.004 A 
ATOM      7  C   UNL d   1     -39.159  12.920  17.990  0.00  0.00     0.025 A 
ATOM      8  C   UNL d   1     -37.940  13.001  17.450  0.00  0.00     0.000 A 
ATOM      9  C   UNL d   1     -38.479  12.598  17.823  0.00  0.00     0.002 A 
ENDROOT
BRANCH   1  10
ATOM     10  C   UNL d   1     -40.238  15.385  17.536  0.00  0.00     0.303 C 
ATOM     11  N   UNL d   1     -40.651  15.920  18.872  0.00  0.00    -0.206 NA
ATOM     12  O   UNL d   1     -40.521  15.738  16.915  0.00  0.00    -0.263 OA
BRANCH  11  13
ATOM     13  C   UNL d   1     -40.365  15.564  19.565  0.00  0.00     0.087 A 
ATOM     14  C   UNL d   1     -39.619  15.777  19.864  0.00  0.00     0.046 A 
ATOM     15  C   UNL d   1     -39.334  15.422  20.553  0.00  0.00     0.124 A 
ATOM     16  O   UNL d   1     -38.587  15.631  20.857  0.00  0.00    -0.301 OA
ATOM     17  C   UNL d   1     -39.788  14.847  20.961  0.00  0.00     0.123 A 
ATOM     18  C   UNL d   1     -38.302  15.276  21.548  0.00  0.00     0.149 A 
ATOM     19  C   UNL d   1     -38.756  14.709  21.946  0.00  0.00     0.149 A 
ATOM     20  O   UNL d   1     -39.514  14.494  21.642  0.00  0.00    -0.301 OA
ATOM     21  C   UNL d   1     -40.536  14.638  20.656  0.00  0.00     0.028 A 
ATOM     22  C   UNL d   1     -40.826  15.000  19.953  0.00  0.00     0.021 A 
ENDBRANCH  11  13
ENDBRANCH   1  10
BRANCH   2  23
ATOM     23  N   UNL d   1     -38.688  15.336  16.905  0.00  0.00    -0.206 NA
ATOM     24  C   UNL d   1     -38.549  15.293  16.086  0.00  0.00     0.279 C 
ATOM     25  O   UNL d   1     -38.799  14.622  15.654  0.00  0.00    -0.265 OA
BRANCH  24  26
ATOM     26  C   UNL d   1     -38.159  15.922  15.697  0.00  0.00     0.062 C 
ATOM     27  C   UNL d   1     -37.941  15.843  14.905  0.00  0.00     0.005 C 
ENDBRANCH  24  26
ENDBRANCH   2  23
TORSDOF 4
ENDMDL
