MODEL 1
REMARK VINA RESULT:      -8.5      0.000      0.000
REMARK  3 active torsions:
REMARK  status: ('A' for Active; 'I' for Inactive)
REMARK    1  A    between atoms: C_8  and  C_1 
REMARK    2  A    between atoms: N_4  and  C_2 
REMARK       I    between atoms: C_6  and  N_4 
REMARK    3  A    between atoms: C_9  and  C_6 
ROOT
ATOM      1  C   UNL d   1     -50.035  13.641  22.017  0.00  0.00     0.177 A 
ATOM      2  C   UNL d   1     -49.424  14.042  22.402  0.00  0.00     0.114 A 
ATOM      3  O   UNL d   1     -50.754  14.024  22.198  0.00  0.00    -0.301 OA
ATOM      4  C   UNL d   1     -49.752  14.670  22.820  0.00  0.00     0.043 A 
ATOM      5  C   UNL d   1     -50.588  14.658  22.691  0.00  0.00     0.102 A 
ATOM      6  C   UNL d   1     -49.420  15.249  23.297  0.00  0.00     0.004 A 
ATOM      7  C   UNL d   1     -51.058  15.227  23.045  0.00  0.00     0.025 A 
ATOM      8  C   UNL d   1     -49.894  15.826  23.657  0.00  0.00     0.000 A 
ATOM      9  C   UNL d   1     -50.703  15.821  23.536  0.00  0.00     0.002 A 
ENDROOT
BRANCH   2  10
ATOM     10  N   UNL d   1     -48.606  13.823  22.358  0.00  0.00    -0.206 NA
ATOM     11  C   UNL d   1     -48.252  13.439  22.997  0.00  0.00     0.279 C 
ATOM     12  O   UNL d   1     -48.686  13.255  23.697  0.00  0.00    -0.265 OA
BRANCH  11  13
ATOM     13  C   UNL d   1     -47.450  13.221  22.962  0.00  0.00     0.058 A 
ATOM     14  C   UNL d   1     -46.892  13.676  22.574  0.00  0.00     0.007 A 
ATOM     15  C   UNL d   1     -46.095  13.440  22.551  0.00  0.00     0.030 A 
ATOM     16  C   UNL d   1     -45.863  12.741  22.922  0.00  0.00     0.140 A 
ATOM     17  C   UNL d   1     -46.410  12.280  23.312  0.00  0.00     0.030 A 
ATOM     18  F   UNL d   1     -45.077  12.498  22.906  0.00  0.00    -0.204 F 
ATOM     19  C   UNL d   1     -47.208  12.511  23.338  0.00  0.00     0.007 A 
ENDBRANCH  11  13
ENDBRANCH   2  10
BRANCH   1  20
ATOM     20  C   UNL d   1     -49.920  12.979  21.543  0.00  0.00     0.321 C 
ATOM     21  O   UNL d   1     -49.559  13.061  20.789  0.00  0.00    -0.261 OA
ATOM     22  N   UNL d   1     -50.160  12.222  21.805  0.00  0.00    -0.101 N 
ENDBRANCH   1  20
TORSDOF 3
ENDMDL
MODEL 2
REMARK VINA RESULT:      -7.9      1.398      2.140
REMARK  3 active torsions:
REMARK  status: ('A' for Active; 'I' for Inactive)
REMARK    1  A    between atoms: C_8  and  C_1 
REMARK    2  A    between atoms: N_4  and  C_2 
REMARK       I    between atoms: C_6  and  N_4 
REMARK    3  A    between atoms: C_9  and  C_6 
ROOT
ATOM      1  C   UNL d   1     -49.812  14.245  23.004  0.00  0.00     0.177 A 
ATOM      2  C   UNL d   1     -49.268  13.642  23.152  0.00  0.00     0.114 A 
ATOM      3  O   UNL d   1     -50.581  13.934  23.099  0.00  0.00    -0.301 OA
ATOM      4  C   UNL d   1     -49.687  12.958  23.338  0.00  0.00     0.043 A 
ATOM      5  C   UNL d   1     -50.512  13.143  23.304  0.00  0.00     0.102 A 
ATOM      6  C   UNL d   1     -49.445  12.199  23.533  0.00  0.00     0.004 A 
ATOM      7  C   UNL d   1     -51.061  12.559  23.467  0.00  0.00     0.025 A 
ATOM      8  C   UNL d   1     -50.000  11.606  23.698  0.00  0.00     0.000 A 
ATOM      9  C   UNL d   1     -50.799  11.777  23.667  0.00  0.00     0.002 A 
ENDROOT
BRANCH   2  10
ATOM     10  N   UNL d   1     -48.426  13.736  23.113  0.00  0.00    -0.206 NA
ATOM     11  C   UNL d   1     -48.004  13.367  22.508  0.00  0.00     0.279 C 
ATOM     12  O   UNL d   1     -48.388  12.895  21.923  0.00  0.00    -0.265 OA
BRANCH  11  13
ATOM     13  C   UNL d   1     -47.177  13.454  22.462  0.00  0.00     0.058 A 
ATOM     14  C   UNL d   1     -46.753  13.883  23.014  0.00  0.00     0.007 A 
ATOM     15  C   UNL d   1     -45.928  13.958  22.950  0.00  0.00     0.030 A 
ATOM     16  C   UNL d   1     -45.531  13.597  22.323  0.00  0.00     0.140 A 
ATOM     17  C   UNL d   1     -45.942  13.168  21.766  0.00  0.00     0.030 A 
ATOM     18  F   UNL d   1     -44.714  13.665  22.249  0.00  0.00    -0.204 F 
ATOM     19  C   UNL d   1     -46.768  13.090  21.826  0.00  0.00     0.007 A 
ENDBRANCH  11  13
ENDBRANCH   2  10
BRANCH   1  20
ATOM     20  C   UNL d   1     -49.599  15.013  22.799  0.00  0.00     0.321 C 
ATOM     21  O   UNL d   1     -49.601  15.247  21.993  0.00  0.00    -0.261 OA
ATOM     22  N   UNL d   1     -49.381  15.564  23.389  0.00  0.00    -0.101 N 
ENDBRANCH   1  20
TORSDOF 3
ENDMDL
MODEL 3
REMARK VINA RESULT:      -6.8      1.398      1.685
REMARK  3 active torsions:
REMARK  status: ('A' for Active; 'I' for Inactive)
REMARK    1  A    between atoms: C_8  and  C_1 
REMARK    2  A    between atoms: N_4  and  C_2 
REMARK       I    between atoms: C_6  and  N_4 
REMARK    3  A    between atoms: C_9  and  C_6 
ROOT
ATOM      1  C   UNL d   1     -49.322  12.107  23.091  0.00  0.00     0.177 A 
ATOM      2  C   UNL d   1     -48.926  12.831  23.117  0.00  0.00     0.114 A 
ATOM      3  O   UNL d   1     -50.142  12.255  23.148  0.00  0.00    -0.301 OA
ATOM      4  C   UNL d   1     -49.488  13.429  23.189  0.00  0.00     0.043 A 
ATOM      5  C   UNL d   1     -50.251  13.064  23.209  0.00  0.00     0.102 A 
ATOM      6  C   UNL d   1     -49.421  14.245  23.240  0.00  0.00     0.004 A 
ATOM      7  C   UNL d   1     -50.918  13.534  23.279  0.00  0.00     0.025 A 
ATOM      8  C   UNL d   1     -50.096  14.722  23.311  0.00  0.00     0.000 A 
ATOM      9  C   UNL d   1     -50.837  14.377  23.331  0.00  0.00     0.002 A 
ENDROOT
BRANCH   2  10
ATOM     10  N   UNL d   1     -48.084  12.917  23.074  0.00  0.00    -0.206 NA
ATOM     11  C   UNL d   1     -47.739  13.202  22.380  0.00  0.00     0.279 C 
ATOM     12  O   UNL d   1     -48.204  13.411  21.708  0.00  0.00    -0.265 OA
BRANCH  11  13
ATOM     13  C   UNL d   1     -46.913  13.290  22.330  0.00  0.00     0.058 A 
ATOM     14  C   UNL d   1     -46.467  13.581  22.951  0.00  0.00     0.007 A 
ATOM     15  C   UNL d   1     -45.643  13.661  22.880  0.00  0.00     0.030 A 
ATOM     16  C   UNL d   1     -45.269  13.446  22.177  0.00  0.00     0.140 A 
ATOM     17  C   UNL d   1     -45.702  13.155  21.551  0.00  0.00     0.030 A 
ATOM     18  F   UNL d   1     -44.453  13.521  22.096  0.00  0.00    -0.204 F 
ATOM     19  C   UNL d   1     -46.527  13.073  21.618  0.00  0.00     0.007 A 
ENDBRANCH  11  13
ENDBRANCH   2  10
BRANCH   1  20
ATOM     20  C   UNL d   1     -48.943  11.380  23.020  0.00  0.00     0.321 C 
ATOM     21  O   UNL d   1     -48.961  10.968  22.289  0.00  0.00    -0.261 OA
ATOM     22  N   UNL d   1     -48.538  11.047  23.672  0.00  0.00    -0.101 N 
ENDBRANCH   1  20
TORSDOF 3
ENDMDL
MODEL 4
REMARK VINA RESULT:      -6.7      1.823      3.975
REMARK  3 active torsions:
REMARK  status: ('A' for Active; 'I' for Inactive)
REMARK    1  A    between atoms: C_8  and  C_1 
REMARK    2  A    between atoms: N_4  and  C_2 
REMARK       I    between atoms: C_6  and  N_4 
REMARK    3  A    between atoms: C_9  and  C_6 
ROOT
ATOM      1  C   UNL d   1     -47.742  11.960  22.941  0.00  0.00     0.177 A 
ATOM      2  C   UNL d   1     -47.657  12.778  23.007  0.00  0.00     0.114 A 
ATOM      3  O   UNL d   1     -46.990  11.630  22.793  0.00  0.00    -0.301 OA
ATOM      4  C   UNL d   1     -46.862  12.964  22.903  0.00  0.00     0.043 A 
ATOM      5  C   UNL d   1     -46.444  12.240  22.768  0.00  0.00     0.102 A 
ATOM      6  C   UNL d   1     -46.456  13.676  22.911  0.00  0.00     0.004 A 
ATOM      7  C   UNL d   1     -45.635  12.261  22.646  0.00  0.00     0.025 A 
ATOM      8  C   UNL d   1     -45.636  13.699  22.787  0.00  0.00     0.000 A 
ATOM      9  C   UNL d   1     -45.225  13.004  22.656  0.00  0.00     0.002 A 
ENDROOT
BRANCH   2  10
ATOM     10  N   UNL d   1     -48.296  13.315  23.158  0.00  0.00    -0.206 NA
ATOM     11  C   UNL d   1     -48.527  13.847  22.571  0.00  0.00     0.279 C 
ATOM     12  O   UNL d   1     -48.143  13.872  21.820  0.00  0.00    -0.265 OA
BRANCH  11  13
ATOM     13  C   UNL d   1     -49.153  14.378  22.711  0.00  0.00     0.058 A 
ATOM     14  C   UNL d   1     -49.124  14.938  23.306  0.00  0.00     0.007 A 
ATOM     15  C   UNL d   1     -49.760  15.458  23.429  0.00  0.00     0.030 A 
ATOM     16  C   UNL d   1     -50.428  15.411  22.947  0.00  0.00     0.140 A 
ATOM     17  C   UNL d   1     -50.468  14.858  22.351  0.00  0.00     0.030 A 
ATOM     18  F   UNL d   1     -51.064  15.922  23.059  0.00  0.00    -0.204 F 
ATOM     19  C   UNL d   1     -49.834  14.335  22.224  0.00  0.00     0.007 A 
ENDBRANCH  11  13
ENDBRANCH   2  10
BRANCH   1  20
ATOM     20  C   UNL d   1     -48.461  11.567  23.013  0.00  0.00     0.321 C 
ATOM     21  O   UNL d   1     -48.934  11.682  23.697  0.00  0.00    -0.261 OA
ATOM     22  N   UNL d   1     -48.727  11.053  22.409  0.00  0.00    -0.101 N 
ENDBRANCH   1  20
TORSDOF 3
ENDMDL
MODEL 5
REMARK VINA RESULT:      -6.4      1.428      1.989
REMARK  3 active torsions:
REMARK  status: ('A' for Active; 'I' for Inactive)
REMARK    1  A    between atoms: C_8  and  C_1 
REMARK    2  A    between atoms: N_4  and  C_2 
REMARK       I    between atoms: C_6  and  N_4 
REMARK    3  A    between atoms: C_9  and  C_6 
ROOT
ATOM      1  C   UNL d   1     -49.369  13.551  22.010  0.00  0.00     0.177 A 
ATOM      2  C   UNL d   1     -49.054  12.896  22.402  0.00  0.00     0.114 A 
ATOM      3  O   UNL d   1     -50.181  13.602  22.195  0.00  0.00    -0.301 OA
ATOM      4  C   UNL d   1     -49.658  12.537  22.830  0.00  0.00     0.043 A 
ATOM      5  C   UNL d   1     -50.366  12.982  22.699  0.00  0.00     0.102 A 
ATOM      6  C   UNL d   1     -49.673  11.877  23.317  0.00  0.00     0.004 A 
ATOM      7  C   UNL d   1     -51.061  12.746  23.062  0.00  0.00     0.025 A 
ATOM      8  C   UNL d   1     -50.376  11.637  23.685  0.00  0.00     0.000 A 
ATOM      9  C   UNL d   1     -51.064  12.062  23.563  0.00  0.00     0.002 A 
ENDROOT
BRANCH   2  10
ATOM     10  N   UNL d   1     -48.242  12.656  22.356  0.00  0.00    -0.206 NA
ATOM     11  C   UNL d   1     -47.737  12.801  22.992  0.00  0.00     0.279 C 
ATOM     12  O   UNL d   1     -48.008  13.185  23.693  0.00  0.00    -0.265 OA
BRANCH  11  13
ATOM     13  C   UNL d   1     -46.939  12.568  22.955  0.00  0.00     0.058 A 
ATOM     14  C   UNL d   1     -46.667  11.887  23.318  0.00  0.00     0.007 A 
ATOM     15  C   UNL d   1     -45.866  11.672  23.269  0.00  0.00     0.030 A 
ATOM     16  C   UNL d   1     -45.338  12.149  22.850  0.00  0.00     0.140 A 
ATOM     17  C   UNL d   1     -45.597  12.829  22.484  0.00  0.00     0.030 A 
ATOM     18  F   UNL d   1     -44.542  11.945  22.794  0.00  0.00    -0.204 F 
ATOM     19  C   UNL d   1     -46.399  13.048  22.531  0.00  0.00     0.007 A 
ENDBRANCH  11  13
ENDBRANCH   2  10
BRANCH   1  20
ATOM     20  C   UNL d   1     -48.929  14.049  21.525  0.00  0.00     0.321 C 
ATOM     21  O   UNL d   1     -48.636  13.767  20.791  0.00  0.00    -0.261 OA
ATOM     22  N   UNL d   1     -48.771  14.837  21.758  0.00  0.00    -0.101 N 
ENDBRANCH   1  20
TORSDOF 3
ENDMDL
MODEL 6
REMARK VINA RESULT:      -6.3      9.332     10.164
REMARK  3 active torsions:
REMARK  status: ('A' for Active; 'I' for Inactive)
REMARK    1  A    between atoms: C_8  and  C_1 
REMARK    2  A    between atoms: N_4  and  C_2 
REMARK       I    between atoms: C_6  and  N_4 
REMARK    3  A    between atoms: C_9  and  C_6 
ROOT
ATOM      1  C   UNL d   1     -39.370  13.984  17.474  0.00  0.00     0.177 A 
ATOM      2  C   UNL d   1     -39.842  14.302  18.072  0.00  0.00     0.114 A 
ATOM      3  O   UNL d   1     -39.572  14.356  16.755  0.00  0.00    -0.301 OA
ATOM      4  C   UNL d   1     -40.336  14.867  17.735  0.00  0.00     0.043 A 
ATOM      5  C   UNL d   1     -40.165  14.900  16.907  0.00  0.00     0.102 A 
ATOM      6  C   UNL d   1     -40.914  15.355  18.054  0.00  0.00     0.004 A 
ATOM      7  C   UNL d   1     -40.580  15.422  16.432  0.00  0.00     0.025 A 
ATOM      8  C   UNL d   1     -41.335  15.884  17.574  0.00  0.00     0.000 A 
ATOM      9  C   UNL d   1     -41.175  15.921  16.773  0.00  0.00     0.002 A 
ENDROOT
BRANCH   2  10
ATOM     10  N   UNL d   1     -39.805  14.068  18.886  0.00  0.00    -0.206 NA
ATOM     11  C   UNL d   1     -39.475  14.582  19.442  0.00  0.00     0.279 C 
ATOM     12  O   UNL d   1     -39.171  15.337  19.221  0.00  0.00    -0.265 OA
BRANCH  11  13
ATOM     13  C   UNL d   1     -39.435  14.361  20.243  0.00  0.00     0.058 A 
ATOM     14  C   UNL d   1     -40.103  14.183  20.680  0.00  0.00     0.007 A 
ATOM     15  C   UNL d   1     -40.041  13.965  21.479  0.00  0.00     0.030 A 
ATOM     16  C   UNL d   1     -39.299  13.925  21.838  0.00  0.00     0.140 A 
ATOM     17  C   UNL d   1     -38.626  14.099  21.413  0.00  0.00     0.030 A 
ATOM     18  F   UNL d   1     -39.226  13.710  22.629  0.00  0.00    -0.204 F 
ATOM     19  C   UNL d   1     -38.683  14.319  20.613  0.00  0.00     0.007 A 
ENDBRANCH  11  13
ENDBRANCH   2  10
BRANCH   1  20
ATOM     20  C   UNL d   1     -38.804  13.399  17.600  0.00  0.00     0.321 C 
ATOM     21  O   UNL d   1     -39.045  12.613  17.766  0.00  0.00    -0.261 OA
ATOM     22  N   UNL d   1     -37.989  13.583  17.563  0.00  0.00    -0.101 N 
ENDBRANCH   1  20
TORSDOF 3
ENDMDL
MODEL 7
REMARK VINA RESULT:      -6.1      8.233     10.000
REMARK  3 active torsions:
REMARK  status: ('A' for Active; 'I' for Inactive)
REMARK    1  A    between atoms: C_8  and  C_1 
REMARK    2  A    between atoms: N_4  and  C_2 
REMARK       I    between atoms: C_6  and  N_4 
REMARK    3  A    between atoms: C_9  and  C_6 
ROOT
ATOM      1  C   UNL d   1     -40.429  14.652  21.093  0.00  0.00     0.177 A 
ATOM      2  C   UNL d   1     -39.839  14.632  20.516  0.00  0.00     0.114 A 
ATOM      3  O   UNL d   1     -40.163  14.220  21.755  0.00  0.00    -0.301 OA
ATOM      4  C   UNL d   1     -39.207  14.193  20.809  0.00  0.00     0.043 A 
ATOM      5  C   UNL d   1     -39.413  13.935  21.589  0.00  0.00     0.102 A 
ATOM      6  C   UNL d   1     -38.480  13.989  20.488  0.00  0.00     0.004 A 
ATOM      7  C   UNL d   1     -38.880  13.482  22.015  0.00  0.00     0.025 A 
ATOM      8  C   UNL d   1     -37.940  13.531  20.919  0.00  0.00     0.000 A 
ATOM      9  C   UNL d   1     -38.132  13.278  21.673  0.00  0.00     0.002 A 
ENDROOT
BRANCH   2  10
ATOM     10  N   UNL d   1     -39.897  15.007  19.758  0.00  0.00    -0.206 NA
ATOM     11  C   UNL d   1     -39.987  14.545  19.080  0.00  0.00     0.279 C 
ATOM     12  O   UNL d   1     -40.023  13.703  19.121  0.00  0.00    -0.265 OA
BRANCH  11  13
ATOM     13  C   UNL d   1     -40.045  14.905  18.333  0.00  0.00     0.058 A 
ATOM     14  C   UNL d   1     -39.572  15.537  18.116  0.00  0.00     0.007 A 
ATOM     15  C   UNL d   1     -39.646  15.883  17.364  0.00  0.00     0.030 A 
ATOM     16  C   UNL d   1     -40.201  15.587  16.829  0.00  0.00     0.140 A 
ATOM     17  C   UNL d   1     -40.677  14.959  17.033  0.00  0.00     0.030 A 
ATOM     18  F   UNL d   1     -40.282  15.922  16.081  0.00  0.00    -0.204 F 
ATOM     19  C   UNL d   1     -40.607  14.609  17.785  0.00  0.00     0.007 A 
ENDBRANCH  11  13
ENDBRANCH   2  10
BRANCH   1  20
ATOM     20  C   UNL d   1     -41.147  15.042  20.999  0.00  0.00     0.321 C 
ATOM     21  O   UNL d   1     -41.845  14.602  20.842  0.00  0.00    -0.261 OA
ATOM     22  N   UNL d   1     -41.189  15.875  21.058  0.00  0.00    -0.101 N 
ENDBRANCH   1  20
TORSDOF 3
ENDMDL
MODEL 8
REMARK VINA RESULT:      -6.0      8.785     10.845
REMARK  3 active torsions:
REMARK  status: ('A' for Active; 'I' for Inactive)
REMARK    1  A    between atoms: C_8  and  C_1 
REMARK    2  A    between atoms: N_4  and  C_2 
REMARK       I    between atoms: C_6  and  N_4 
REMARK    3  A    between atoms: C_9  and  C_6 
ROOT
ATOM      1  C   UNL d   1     -38.973  14.492  17.044  0.00  0.00     0.177 A 
ATOM      2  C   UNL d   1     -38.977  14.189  17.812  0.00  0.00     0.114 A 
ATOM      3  O   UNL d   1     -38.633  13.921  16.539  0.00  0.00    -0.301 OA
ATOM      4  C   UNL d   1     -38.644  13.436  17.793  0.00  0.00     0.043 A 
ATOM      5  C   UNL d   1     -38.428  13.270  16.992  0.00  0.00     0.102 A 
ATOM      6  C   UNL d   1     -38.504  12.880  18.380  0.00  0.00     0.004 A 
ATOM      7  C   UNL d   1     -38.081  12.551  16.811  0.00  0.00     0.025 A 
ATOM      8  C   UNL d   1     -38.153  12.151  18.198  0.00  0.00     0.000 A 
ATOM      9  C   UNL d   1     -37.942  11.983  17.426  0.00  0.00     0.002 A 
ENDROOT
BRANCH   2  10
ATOM     10  N   UNL d   1     -39.278  14.602  18.488  0.00  0.00    -0.206 NA
ATOM     11  C   UNL d   1     -39.996  14.368  18.822  0.00  0.00     0.279 C 
ATOM     12  O   UNL d   1     -40.441  13.724  18.507  0.00  0.00    -0.265 OA
BRANCH  11  13
ATOM     13  C   UNL d   1     -40.299  14.768  19.486  0.00  0.00     0.058 A 
ATOM     14  C   UNL d   1     -40.937  15.277  19.434  0.00  0.00     0.007 A 
ATOM     15  C   UNL d   1     -41.225  15.666  20.109  0.00  0.00     0.030 A 
ATOM     16  C   UNL d   1     -40.863  15.541  20.840  0.00  0.00     0.140 A 
ATOM     17  C   UNL d   1     -40.227  15.037  20.905  0.00  0.00     0.030 A 
ATOM     18  F   UNL d   1     -41.139  15.922  21.516  0.00  0.00    -0.204 F 
ATOM     19  C   UNL d   1     -39.936  14.644  20.231  0.00  0.00     0.007 A 
ENDBRANCH  11  13
ENDBRANCH   2  10
BRANCH   1  20
ATOM     20  C   UNL d   1     -39.263  15.235  16.844  0.00  0.00     0.321 C 
ATOM     21  O   UNL d   1     -40.029  15.309  16.508  0.00  0.00    -0.261 OA
ATOM     22  N   UNL d   1     -38.801  15.921  16.974  0.00  0.00    -0.101 N 
ENDBRANCH   1  20
TORSDOF 3
ENDMDL
MODEL 9
REMARK VINA RESULT:      -5.8      9.122     11.158
REMARK  3 active torsions:
REMARK  status: ('A' for Active; 'I' for Inactive)
REMARK    1  A    between atoms: C_8  and  C_1 
REMARK    2  A    between atoms: N_4  and  C_2 
REMARK       I    between atoms: C_6  and  N_4 
REMARK    3  A    between atoms: C_9  and  C_6 
ROOT
ATOM      1  C   UNL d   1     -38.416  13.528  17.305  0.00  0.00     0.177 A 
ATOM      2  C   UNL d   1     -38.662  14.292  17.494  0.00  0.00     0.114 A 
ATOM      3  O   UNL d   1     -38.118  13.532  16.526  0.00  0.00    -0.301 OA
ATOM      4  C   UNL d   1     -38.522  14.776  16.842  0.00  0.00     0.043 A 
ATOM      5  C   UNL d   1     -38.181  14.296  16.234  0.00  0.00     0.102 A 
ATOM      6  C   UNL d   1     -38.654  15.574  16.709  0.00  0.00     0.004 A 
ATOM      7  C   UNL d   1     -37.984  14.637  15.517  0.00  0.00     0.025 A 
ATOM      8  C   UNL d   1     -38.455  15.922  15.983  0.00  0.00     0.000 A 
ATOM      9  C   UNL d   1     -38.124  15.464  15.390  0.00  0.00     0.002 A 
ENDROOT
BRANCH   2  10
ATOM     10  N   UNL d   1     -38.998  14.517  18.239  0.00  0.00    -0.206 NA
ATOM     11  C   UNL d   1     -39.805  14.685  18.287  0.00  0.00     0.279 C 
ATOM     12  O   UNL d   1     -40.308  14.639  17.611  0.00  0.00    -0.265 OA
BRANCH  11  13
ATOM     13  C   UNL d   1     -40.143  14.906  19.015  0.00  0.00     0.058 A 
ATOM     14  C   UNL d   1     -39.923  15.589  19.408  0.00  0.00     0.007 A 
ATOM     15  C   UNL d   1     -40.273  15.792  20.133  0.00  0.00     0.030 A 
ATOM     16  C   UNL d   1     -40.849  15.302  20.462  0.00  0.00     0.140 A 
ATOM     17  C   UNL d   1     -41.077  14.619  20.080  0.00  0.00     0.030 A 
ATOM     18  F   UNL d   1     -41.203  15.493  21.181  0.00  0.00    -0.204 F 
ATOM     19  C   UNL d   1     -40.729  14.412  19.354  0.00  0.00     0.007 A 
ENDBRANCH  11  13
ENDBRANCH   2  10
BRANCH   1  20
ATOM     20  C   UNL d   1     -38.468  12.890  17.823  0.00  0.00     0.321 C 
ATOM     21  O   UNL d   1     -39.056  12.302  17.704  0.00  0.00    -0.261 OA
ATOM     22  N   UNL d   1     -37.940  12.821  18.467  0.00  0.00    -0.101 N 
ENDBRANCH   1  20
TORSDOF 3
ENDMDL
