MODEL 1
REMARK VINA RESULT:      -3.1      0.000      0.000
REMARK  2 active torsions:
REMARK  status: ('A' for Active; 'I' for Inactive)
REMARK    1  A    between atoms: C_7  and  C_2 
REMARK    2  A    between atoms: C_5  and  C_7 
ROOT
ATOM      1  C   UNL d   1      30.672  16.513 -23.993  0.00  0.00     0.021 A 
ATOM      2  N   UNL d   1      29.689  17.097 -24.662  0.00  0.00    -0.244 NA
ATOM      3  C   UNL d   1      30.506  17.060 -24.581  0.00  0.00     0.099 A 
ATOM      4  C   UNL d   1      29.965  16.213 -23.712  0.00  0.00     0.019 A 
ATOM      5  C   UNL d   1      29.355  16.575 -24.126  0.00  0.00     0.081 A 
ATOM      6  C   UNL d   1      29.792  15.652 -23.127  0.00  0.00     0.002 A 
ATOM      7  C   UNL d   1      28.568  16.380 -23.960  0.00  0.00     0.019 A 
ATOM      8  C   UNL d   1      29.011  15.453 -22.956  0.00  0.00     0.000 A 
ATOM      9  C   UNL d   1      28.396  15.817 -23.374  0.00  0.00     0.002 A 
ENDROOT
BRANCH   1  10
ATOM     10  C   UNL d   1      31.433  16.304 -23.734  0.00  0.00     0.011 C 
BRANCH  10  11
ATOM     11  C   UNL d   1      32.009  16.887 -23.640  0.00  0.00     0.062 A 
ATOM     12  C   UNL d   1      32.802  16.671 -23.572  0.00  0.00     0.145 A 
ATOM     13  N   UNL d   1      33.241  17.365 -23.486  0.00  0.00    -0.191 NA
ATOM     14  S   UNL d   1      33.105  15.892 -23.588  0.00  0.00    -0.057 SA
ATOM     15  C   UNL d   1      32.734  17.997 -23.500  0.00  0.00     0.311 A 
ATOM     16  S   UNL d   1      31.967  17.706 -23.596  0.00  0.00    -0.023 SA
ATOM     17  O   UNL d   1      32.958  18.797 -23.429  0.00  0.00    -0.258 OA
ENDBRANCH  10  11
ENDBRANCH   1  10
TORSDOF 2
ENDMDL
MODEL 2
REMARK VINA RESULT:      -3.0      1.931      3.710
REMARK  2 active torsions:
REMARK  status: ('A' for Active; 'I' for Inactive)
REMARK    1  A    between atoms: C_7  and  C_2 
REMARK    2  A    between atoms: C_5  and  C_7 
ROOT
ATOM      1  C   UNL d   1      31.255  16.749 -24.166  0.00  0.00     0.021 A 
ATOM      2  N   UNL d   1      32.183  15.894 -23.762  0.00  0.00    -0.244 NA
ATOM      3  C   UNL d   1      31.448  15.953 -24.125  0.00  0.00     0.099 A 
ATOM      4  C   UNL d   1      31.865  17.179 -23.831  0.00  0.00     0.019 A 
ATOM      5  C   UNL d   1      32.440  16.650 -23.580  0.00  0.00     0.081 A 
ATOM      6  C   UNL d   1      31.974  17.994 -23.720  0.00  0.00     0.002 A 
ATOM      7  C   UNL d   1      33.129  16.929 -23.217  0.00  0.00     0.019 A 
ATOM      8  C   UNL d   1      32.658  18.278 -23.359  0.00  0.00     0.000 A 
ATOM      9  C   UNL d   1      33.238  17.745 -23.106  0.00  0.00     0.002 A 
ENDROOT
BRANCH   1  10
ATOM     10  C   UNL d   1      30.557  17.056 -24.493  0.00  0.00     0.011 C 
BRANCH  10  11
ATOM     11  C   UNL d   1      29.829  16.726 -24.291  0.00  0.00     0.062 A 
ATOM     12  C   UNL d   1      29.134  17.056 -24.589  0.00  0.00     0.145 A 
ATOM     13  N   UNL d   1      28.503  16.613 -24.293  0.00  0.00    -0.191 NA
ATOM     14  S   UNL d   1      29.079  17.717 -25.097  0.00  0.00    -0.057 SA
ATOM     15  C   UNL d   1      28.797  16.022 -23.822  0.00  0.00     0.311 A 
ATOM     16  S   UNL d   1      29.620  16.088 -23.817  0.00  0.00    -0.023 SA
ATOM     17  O   UNL d   1      28.341  15.453 -23.419  0.00  0.00    -0.258 OA
ENDBRANCH  10  11
ENDBRANCH   1  10
TORSDOF 2
ENDMDL
MODEL 3
REMARK VINA RESULT:      -2.5      3.884      5.735
REMARK  2 active torsions:
REMARK  status: ('A' for Active; 'I' for Inactive)
REMARK    1  A    between atoms: C_7  and  C_2 
REMARK    2  A    between atoms: C_5  and  C_7 
ROOT
ATOM      1  C   UNL d   1      32.979  21.150 -21.687  0.00  0.00     0.021 A 
ATOM      2  N   UNL d   1      32.682  21.134 -20.396  0.00  0.00    -0.244 NA
ATOM      3  C   UNL d   1      32.956  20.674 -21.020  0.00  0.00     0.099 A 
ATOM      4  C   UNL d   1      32.722  21.898 -21.479  0.00  0.00     0.019 A 
ATOM      5  C   UNL d   1      32.538  21.889 -20.679  0.00  0.00     0.081 A 
ATOM      6  C   UNL d   1      32.630  22.596 -21.918  0.00  0.00     0.002 A 
ATOM      7  C   UNL d   1      32.261  22.576 -20.310  0.00  0.00     0.019 A 
ATOM      8  C   UNL d   1      32.355  23.284 -21.556  0.00  0.00     0.000 A 
ATOM      9  C   UNL d   1      32.169  23.275 -20.749  0.00  0.00     0.002 A 
ENDROOT
BRANCH   1  10
ATOM     10  C   UNL d   1      33.223  20.905 -22.442  0.00  0.00     0.011 C 
BRANCH  10  11
ATOM     11  C   UNL d   1      33.229  20.103 -22.631  0.00  0.00     0.062 A 
ATOM     12  C   UNL d   1      33.236  19.869 -23.422  0.00  0.00     0.145 A 
ATOM     13  N   UNL d   1      33.241  19.044 -23.437  0.00  0.00    -0.191 NA
ATOM     14  S   UNL d   1      33.238  20.375 -24.087  0.00  0.00    -0.057 SA
ATOM     15  C   UNL d   1      33.237  18.770 -22.673  0.00  0.00     0.311 A 
ATOM     16  S   UNL d   1      33.230  19.423 -22.169  0.00  0.00    -0.023 SA
ATOM     17  O   UNL d   1      33.240  17.967 -22.449  0.00  0.00    -0.258 OA
ENDBRANCH  10  11
ENDBRANCH   1  10
TORSDOF 2
ENDMDL
MODEL 4
REMARK VINA RESULT:      -2.5      2.697      4.898
REMARK  2 active torsions:
REMARK  status: ('A' for Active; 'I' for Inactive)
REMARK    1  A    between atoms: C_7  and  C_2 
REMARK    2  A    between atoms: C_5  and  C_7 
ROOT
ATOM      1  C   UNL d   1      33.241  19.811 -22.590  0.00  0.00     0.021 A 
ATOM      2  N   UNL d   1      33.241  19.719 -21.269  0.00  0.00    -0.244 NA
ATOM      3  C   UNL d   1      33.241  19.281 -21.965  0.00  0.00     0.099 A 
ATOM      4  C   UNL d   1      33.241  20.570 -22.286  0.00  0.00     0.019 A 
ATOM      5  C   UNL d   1      33.241  20.514 -21.467  0.00  0.00     0.081 A 
ATOM      6  C   UNL d   1      33.240  21.315 -22.651  0.00  0.00     0.002 A 
ATOM      7  C   UNL d   1      33.241  21.201 -21.005  0.00  0.00     0.019 A 
ATOM      8  C   UNL d   1      33.240  22.002 -22.196  0.00  0.00     0.000 A 
ATOM      9  C   UNL d   1      33.240  21.946 -21.370  0.00  0.00     0.002 A 
ENDROOT
BRANCH   1  10
ATOM     10  C   UNL d   1      33.241  19.603 -23.394  0.00  0.00     0.011 C 
BRANCH  10  11
ATOM     11  C   UNL d   1      32.883  18.900 -23.636  0.00  0.00     0.062 A 
ATOM     12  C   UNL d   1      32.876  18.699 -24.436  0.00  0.00     0.145 A 
ATOM     13  N   UNL d   1      32.484  17.976 -24.506  0.00  0.00    -0.191 NA
ATOM     14  S   UNL d   1      33.205  19.146 -25.060  0.00  0.00    -0.057 SA
ATOM     15  C   UNL d   1      32.253  17.732 -23.768  0.00  0.00     0.311 A 
ATOM     16  S   UNL d   1      32.498  18.302 -23.224  0.00  0.00    -0.023 SA
ATOM     17  O   UNL d   1      31.840  17.028 -23.600  0.00  0.00    -0.258 OA
ENDBRANCH  10  11
ENDBRANCH   1  10
TORSDOF 2
ENDMDL
MODEL 5
REMARK VINA RESULT:      -2.0      3.361      4.305
REMARK  2 active torsions:
REMARK  status: ('A' for Active; 'I' for Inactive)
REMARK    1  A    between atoms: C_7  and  C_2 
REMARK    2  A    between atoms: C_5  and  C_7 
ROOT
ATOM      1  C   UNL d   1      33.187  19.384 -22.983  0.00  0.00     0.021 A 
ATOM      2  N   UNL d   1      33.179  19.318 -24.305  0.00  0.00    -0.244 NA
ATOM      3  C   UNL d   1      33.239  19.832 -23.667  0.00  0.00     0.099 A 
ATOM      4  C   UNL d   1      33.095  18.599 -23.195  0.00  0.00     0.019 A 
ATOM      5  C   UNL d   1      33.090  18.558 -24.015  0.00  0.00     0.081 A 
ATOM      6  C   UNL d   1      33.014  17.907 -22.744  0.00  0.00     0.002 A 
ATOM      7  C   UNL d   1      33.004  17.826 -24.392  0.00  0.00     0.019 A 
ATOM      8  C   UNL d   1      32.928  17.176 -23.114  0.00  0.00     0.000 A 
ATOM      9  C   UNL d   1      32.923  17.134 -23.941  0.00  0.00     0.002 A 
ENDROOT
BRANCH   1  10
ATOM     10  C   UNL d   1      33.222  19.684 -22.209  0.00  0.00     0.011 C 
BRANCH  10  11
ATOM     11  C   UNL d   1      33.218  20.499 -22.085  0.00  0.00     0.062 A 
ATOM     12  C   UNL d   1      33.225  20.795 -21.315  0.00  0.00     0.145 A 
ATOM     13  N   UNL d   1      33.218  21.619 -21.367  0.00  0.00    -0.191 NA
ATOM     14  S   UNL d   1      33.237  20.344 -20.612  0.00  0.00    -0.057 SA
ATOM     15  C   UNL d   1      33.207  21.831 -22.149  0.00  0.00     0.311 A 
ATOM     16  S   UNL d   1      33.207  21.140 -22.600  0.00  0.00    -0.023 SA
ATOM     17  O   UNL d   1      33.198  22.613 -22.437  0.00  0.00    -0.258 OA
ENDBRANCH  10  11
ENDBRANCH   1  10
TORSDOF 2
ENDMDL
MODEL 6
REMARK VINA RESULT:      -1.5      1.969      2.789
REMARK  2 active torsions:
REMARK  status: ('A' for Active; 'I' for Inactive)
REMARK    1  A    between atoms: C_7  and  C_2 
REMARK    2  A    between atoms: C_5  and  C_7 
ROOT
ATOM      1  C   UNL d   1      32.263  17.854 -24.094  0.00  0.00     0.021 A 
ATOM      2  N   UNL d   1      31.045  17.396 -23.847  0.00  0.00    -0.244 NA
ATOM      3  C   UNL d   1      31.474  18.070 -24.039  0.00  0.00     0.099 A 
ATOM      4  C   UNL d   1      32.323  17.053 -23.938  0.00  0.00     0.019 A 
ATOM      5  C   UNL d   1      31.568  16.768 -23.785  0.00  0.00     0.081 A 
ATOM      6  C   UNL d   1      32.973  16.538 -23.915  0.00  0.00     0.002 A 
ATOM      7  C   UNL d   1      31.455  15.968 -23.607  0.00  0.00     0.019 A 
ATOM      8  C   UNL d   1      32.867  15.740 -23.739  0.00  0.00     0.000 A 
ATOM      9  C   UNL d   1      32.106  15.453 -23.584  0.00  0.00     0.002 A 
ENDROOT
BRANCH   1  10
ATOM     10  C   UNL d   1      32.888  18.367 -24.278  0.00  0.00     0.011 C 
BRANCH  10  11
ATOM     11  C   UNL d   1      32.986  19.065 -23.850  0.00  0.00     0.062 A 
ATOM     12  C   UNL d   1      33.154  19.769 -24.247  0.00  0.00     0.145 A 
ATOM     13  N   UNL d   1      33.220  20.364 -23.679  0.00  0.00    -0.191 NA
ATOM     14  S   UNL d   1      33.241  19.861 -25.073  0.00  0.00    -0.057 SA
ATOM     15  C   UNL d   1      33.096  20.040 -22.946  0.00  0.00     0.311 A 
ATOM     16  S   UNL d   1      32.950  19.234 -23.047  0.00  0.00    -0.023 SA
ATOM     17  O   UNL d   1      33.115  20.457 -22.224  0.00  0.00    -0.258 OA
ENDBRANCH  10  11
ENDBRANCH   1  10
TORSDOF 2
ENDMDL
MODEL 7
REMARK VINA RESULT:      -1.0      5.785      6.868
REMARK  2 active torsions:
REMARK  status: ('A' for Active; 'I' for Inactive)
REMARK    1  A    between atoms: C_7  and  C_2 
REMARK    2  A    between atoms: C_5  and  C_7 
ROOT
ATOM      1  C   UNL d   1      33.015  22.468 -22.025  0.00  0.00     0.021 A 
ATOM      2  N   UNL d   1      33.012  21.452 -21.175  0.00  0.00    -0.244 NA
ATOM      3  C   UNL d   1      33.072  21.652 -21.970  0.00  0.00     0.099 A 
ATOM      4  C   UNL d   1      32.920  22.772 -21.271  0.00  0.00     0.019 A 
ATOM      5  C   UNL d   1      32.918  22.143 -20.744  0.00  0.00     0.081 A 
ATOM      6  C   UNL d   1      32.834  23.548 -20.992  0.00  0.00     0.002 A 
ATOM      7  C   UNL d   1      32.830  22.282 -19.933  0.00  0.00     0.019 A 
ATOM      8  C   UNL d   1      32.747  23.693 -20.185  0.00  0.00     0.000 A 
ATOM      9  C   UNL d   1      32.745  23.060 -19.653  0.00  0.00     0.002 A 
ENDROOT
BRANCH   1  10
ATOM     10  C   UNL d   1      33.048  22.903 -22.731  0.00  0.00     0.011 C 
BRANCH  10  11
ATOM     11  C   UNL d   1      33.036  22.511 -23.456  0.00  0.00     0.062 A 
ATOM     12  C   UNL d   1      32.779  22.909 -24.132  0.00  0.00     0.145 A 
ATOM     13  N   UNL d   1      32.828  22.380 -24.764  0.00  0.00    -0.191 NA
ATOM     14  S   UNL d   1      32.516  23.701 -24.169  0.00  0.00    -0.057 SA
ATOM     15  C   UNL d   1      33.110  21.671 -24.489  0.00  0.00     0.311 A 
ATOM     16  S   UNL d   1      33.241  21.747 -23.678  0.00  0.00    -0.023 SA
ATOM     17  O   UNL d   1      33.241  20.991 -24.954  0.00  0.00    -0.258 OA
ENDBRANCH  10  11
ENDBRANCH   1  10
TORSDOF 2
ENDMDL
