MODEL 1
REMARK VINA RESULT:      54.4      0.000      0.000
REMARK  5 active torsions:
REMARK  status: ('A' for Active; 'I' for Inactive)
REMARK    1  A    between atoms: C_11  and  N_3 
REMARK    2  A    between atoms: C_10  and  C_4 
REMARK    3  A    between atoms: C_15  and  C_11 
REMARK    4  A    between atoms: N_13  and  C_16 
REMARK    5  A    between atoms: C_16  and  C_15 
ROOT
ATOM      1  C   UNL d   1      13.674  14.059  -3.648  0.00  0.00     0.137 A 
ATOM      2  N   UNL d   1      13.746  14.060  -4.480  0.00  0.00    -0.259 N 
ATOM      3  N   UNL d   1      13.325  13.341  -3.437  0.00  0.00    -0.287 N 
ATOM      4  C   UNL d   1      13.935  14.704  -3.211  0.00  0.00     0.054 A 
ATOM      5  C   UNL d   1      14.081  14.716  -4.862  0.00  0.00     0.266 A 
ATOM      6  C   UNL d   1      13.443  13.350  -4.771  0.00  0.00     0.084 A 
ATOM      7  C   UNL d   1      13.179  12.899  -4.117  0.00  0.00     0.082 A 
ATOM      8  C   UNL d   1      14.268  15.356  -3.590  0.00  0.00     0.009 A 
ATOM      9  C   UNL d   1      14.345  15.370  -4.418  0.00  0.00     0.061 A 
ATOM     10  O   UNL d   1      14.155  14.724  -5.688  0.00  0.00    -0.267 OA
ATOM     11  C   UNL d   1      13.367  13.045  -5.531  0.00  0.00     0.019 A 
ATOM     12  C   UNL d   1      14.531  16.008  -3.148  0.00  0.00     0.000 C 
ATOM     13  C   UNL d   1      12.851  12.162  -4.249  0.00  0.00     0.019 A 
ATOM     14  C   UNL d   1      13.036  12.305  -5.645  0.00  0.00     0.002 A 
ATOM     15  C   UNL d   1      12.775  11.859  -4.997  0.00  0.00     0.002 A 
ENDROOT
BRANCH   3  16
ATOM     16  C   UNL d   1      13.064  12.892  -2.799  0.00  0.00     0.125 C 
BRANCH  16  17
ATOM     17  C   UNL d   1      13.493  12.230  -2.557  0.00  0.00     0.231 C 
ATOM     18  O   UNL d   1      13.950  11.809  -3.100  0.00  0.00    -0.283 OA
BRANCH  17  19
ATOM     19  C   UNL d   1      13.467  11.988  -1.770  0.00  0.00     0.124 C 
BRANCH  19  20
ATOM     20  N   UNL d   1      14.161  11.938  -1.330  0.00  0.00    -0.300 N 
ATOM     21  C   UNL d   1      14.889  11.951  -1.716  0.00  0.00     0.080 A 
ATOM     22  C   UNL d   1      15.589  11.901  -1.280  0.00  0.00     0.019 A 
ATOM     23  C   UNL d   1      15.558  11.838  -0.457  0.00  0.00     0.003 A 
ATOM     24  C   UNL d   1      14.830  11.825  -0.071  0.00  0.00     0.019 A 
ATOM     25  C   UNL d   1      16.250  11.788  -0.017  0.00  0.00     0.000 C 
ATOM     26  C   UNL d   1      14.129  11.875  -0.506  0.00  0.00     0.080 A 
ENDBRANCH  19  20
ENDBRANCH  17  19
ENDBRANCH  16  17
ENDBRANCH   3  16
BRANCH   4  27
ATOM     27  C   UNL d   1      13.864  14.702  -2.394  0.00  0.00     0.125 C 
ATOM     28  N   UNL d   1      14.043  15.372  -1.950  0.00  0.00    -0.146 N 
ENDBRANCH   4  27
TORSDOF 5
ENDMDL
