MODEL 1
REMARK VINA RESULT:      83.9      0.000      0.000
REMARK  2 active torsions:
REMARK  status: ('A' for Active; 'I' for Inactive)
REMARK       I    between atoms: N_2  and  C_1 
REMARK    1  A    between atoms: C_4  and  C_1 
REMARK    2  A    between atoms: C_7  and  N_3 
ROOT
ATOM      1  C   UNL d   1      59.672  49.222  51.329  0.00  0.00     0.265 C 
ATOM      2  N   UNL d   1      60.126  48.611  51.016  0.00  0.00    -0.269 N 
ATOM      3  N   UNL d   1      61.040  47.385  50.390  0.00  0.00    -0.301 N 
ATOM      4  C   UNL d   1      60.895  48.485  51.299  0.00  0.00     0.102 A 
ATOM      5  C   UNL d   1      59.812  48.128  50.424  0.00  0.00     0.102 A 
ATOM      6  C   UNL d   1      60.267  47.520  50.113  0.00  0.00     0.100 A 
ATOM      7  C   UNL d   1      61.347  47.871  50.982  0.00  0.00     0.100 A 
ATOM      8  O   UNL d   1      59.982  49.707  51.922  0.00  0.00    -0.267 OA
ENDROOT
BRANCH   1   9
ATOM      9  C   UNL d   1      58.903  49.348  51.047  0.00  0.00     0.059 A 
ATOM     10  C   UNL d   1      58.271  49.339  51.576  0.00  0.00     0.031 A 
ATOM     11  C   UNL d   1      57.490  49.464  51.304  0.00  0.00     0.119 A 
ATOM     12  O   UNL d   1      56.757  49.488  51.688  0.00  0.00    -0.300 OA
ATOM     13  C   UNL d   1      57.352  49.601  50.487  0.00  0.00     0.119 A 
ATOM     14  C   UNL d   1      56.168  49.637  51.118  0.00  0.00     0.304 A 
ATOM     15  O   UNL d   1      56.536  49.707  50.372  0.00  0.00    -0.300 OA
ATOM     16  C   UNL d   1      57.998  49.609  49.955  0.00  0.00     0.026 A 
ATOM     17  C   UNL d   1      58.765  49.484  50.230  0.00  0.00     0.007 A 
ENDBRANCH   1   9
BRANCH   3  18
ATOM     18  C   UNL d   1      61.492  46.771  50.074  0.00  0.00     0.064 A 
ATOM     19  C   UNL d   1      62.219  46.941  49.727  0.00  0.00     0.018 A 
ATOM     20  C   UNL d   1      62.664  46.327  49.415  0.00  0.00     0.013 A 
ATOM     21  C   UNL d   1      62.386  45.552  49.448  0.00  0.00     0.058 A 
ATOM     22  C   UNL d   1      61.654  45.393  49.799  0.00  0.00     0.013 A 
ATOM     23 CL   UNL d   1      62.838  44.938  49.132  0.00  0.00    -0.082 Cl
ATOM     24  C   UNL d   1      61.213  46.005  50.109  0.00  0.00     0.018 A 
ENDBRANCH   3  18
TORSDOF 2
ENDMDL
