MODEL 1
REMARK VINA RESULT:      -4.6      0.000      0.000
REMARK  2 active torsions:
REMARK  status: ('A' for Active; 'I' for Inactive)
REMARK    1  A    between atoms: CA_2  and  C_1 
REMARK    2  A    between atoms: C_3  and  CA_2 
ROOT
ATOM      1  C   UNL d   1     -41.510-122.673 -53.973  0.00  0.00     0.025 A 
ATOM      2  C   UNL d   1     -41.455-122.126 -53.350  0.00  0.00     0.003 A 
ATOM      3  C   UNL d   1     -41.435-123.487 -53.818  0.00  0.00     0.003 A 
ATOM      4  C   UNL d   1     -41.251-123.204 -52.425  0.00  0.00     0.058 A 
ATOM      5  C   UNL d   1     -41.326-122.397 -52.579  0.00  0.00     0.011 A 
ATOM      6  C   UNL d   1     -41.305-123.748 -53.040  0.00  0.00     0.011 A 
ATOM      7 CL   UNL d   1     -41.122-123.466 -51.655  0.00  0.00    -0.082 Cl
ENDROOT
BRANCH   1   8
ATOM      8  CA  UNL d   1     -41.639-122.410 -54.744  0.00  0.00     0.167 C 
ATOM      9  N   UNL d   1     -41.125-122.630 -55.349  0.00  0.00    -0.142 N 
BRANCH   8  10
ATOM     10  C   UNL d   1     -42.287-121.924 -54.904  0.00  0.00     0.231 C 
ATOM     11  O   UNL d   1     -42.199-121.107 -54.942  0.00  0.00    -0.643 OA
ATOM     12  OXT UNL d   1     -43.031-122.262 -55.026  0.00  0.00    -0.643 OA
ENDBRANCH   8  10
ENDBRANCH   1   8
TORSDOF 2
ENDMDL
MODEL 2
REMARK VINA RESULT:      -4.6      2.096      2.645
REMARK  2 active torsions:
REMARK  status: ('A' for Active; 'I' for Inactive)
REMARK    1  A    between atoms: CA_2  and  C_1 
REMARK    2  A    between atoms: C_3  and  CA_2 
ROOT
ATOM      1  C   UNL d   1     -41.630-122.601 -53.747  0.00  0.00     0.025 A 
ATOM      2  C   UNL d   1     -42.228-122.033 -53.851  0.00  0.00     0.003 A 
ATOM      3  C   UNL d   1     -41.247-122.926 -54.411  0.00  0.00     0.003 A 
ATOM      4  C   UNL d   1     -42.056-122.118 -55.274  0.00  0.00     0.058 A 
ATOM      5  C   UNL d   1     -42.436-121.795 -54.616  0.00  0.00     0.011 A 
ATOM      6  C   UNL d   1     -41.465-122.680 -55.173  0.00  0.00     0.011 A 
ATOM      7 CL   UNL d   1     -42.269-121.876 -56.031  0.00  0.00    -0.082 Cl
ENDROOT
BRANCH   1   8
ATOM      8  CA  UNL d   1     -41.418-122.842 -52.988  0.00  0.00     0.167 C 
ATOM      9  N   UNL d   1     -41.123-123.601 -52.861  0.00  0.00    -0.142 N 
BRANCH   8  10
ATOM     10  C   UNL d   1     -41.503-122.318 -52.357  0.00  0.00     0.231 C 
ATOM     11  O   UNL d   1     -41.123-121.589 -52.362  0.00  0.00    -0.643 OA
ATOM     12  OXT UNL d   1     -41.975-122.527 -51.712  0.00  0.00    -0.643 OA
ENDBRANCH   8  10
ENDBRANCH   1   8
TORSDOF 2
ENDMDL
MODEL 3
REMARK VINA RESULT:      -4.5      0.815      1.357
REMARK  2 active torsions:
REMARK  status: ('A' for Active; 'I' for Inactive)
REMARK    1  A    between atoms: CA_2  and  C_1 
REMARK    2  A    between atoms: C_3  and  CA_2 
ROOT
ATOM      1  C   UNL d   1     -41.363-123.017 -53.226  0.00  0.00     0.025 A 
ATOM      2  C   UNL d   1     -41.343-123.700 -52.754  0.00  0.00     0.003 A 
ATOM      3  C   UNL d   1     -41.303-122.266 -52.871  0.00  0.00     0.003 A 
ATOM      4  C   UNL d   1     -41.203-122.884 -51.582  0.00  0.00     0.058 A 
ATOM      5  C   UNL d   1     -41.262-123.628 -51.934  0.00  0.00     0.011 A 
ATOM      6  C   UNL d   1     -41.223-122.205 -52.046  0.00  0.00     0.011 A 
ATOM      7 CL   UNL d   1     -41.123-122.820 -50.765  0.00  0.00    -0.082 Cl
ENDROOT
BRANCH   1   8
ATOM      8  CA  UNL d   1     -41.443-123.082 -54.044  0.00  0.00     0.167 C 
ATOM      9  N   UNL d   1     -41.181-123.758 -54.434  0.00  0.00    -0.142 N 
BRANCH   8  10
ATOM     10  C   UNL d   1     -41.788-122.464 -54.468  0.00  0.00     0.231 C 
ATOM     11  O   UNL d   1     -42.602-122.344 -54.448  0.00  0.00    -0.643 OA
ATOM     12  OXT UNL d   1     -41.312-121.960 -54.917  0.00  0.00    -0.643 OA
ENDBRANCH   8  10
ENDBRANCH   1   8
TORSDOF 2
ENDMDL
MODEL 4
REMARK VINA RESULT:      -4.0      3.201      3.876
REMARK  2 active torsions:
REMARK  status: ('A' for Active; 'I' for Inactive)
REMARK    1  A    between atoms: CA_2  and  C_1 
REMARK    2  A    between atoms: C_3  and  CA_2 
ROOT
ATOM      1  C   UNL d   1     -41.598-122.938 -50.776  0.00  0.00     0.025 A 
ATOM      2  C   UNL d   1     -41.631-122.155 -51.052  0.00  0.00     0.003 A 
ATOM      3  C   UNL d   1     -41.405-123.555 -51.301  0.00  0.00     0.003 A 
ATOM      4  C   UNL d   1     -41.280-122.606 -52.368  0.00  0.00     0.058 A 
ATOM      5  C   UNL d   1     -41.472-121.995 -51.848  0.00  0.00     0.011 A 
ATOM      6  C   UNL d   1     -41.247-123.382 -52.098  0.00  0.00     0.011 A 
ATOM      7 CL   UNL d   1     -41.123-122.439 -53.159  0.00  0.00    -0.082 Cl
ENDROOT
BRANCH   1   8
ATOM      8  CA  UNL d   1     -41.756-123.104 -49.984  0.00  0.00     0.167 C 
ATOM      9  N   UNL d   1     -41.137-123.225 -49.454  0.00  0.00    -0.142 N 
BRANCH   8  10
ATOM     10  C   UNL d   1     -42.539-123.148 -49.727  0.00  0.00     0.231 C 
ATOM     11  O   UNL d   1     -42.994-123.816 -49.880  0.00  0.00    -0.643 OA
ATOM     12  OXT UNL d   1     -42.870-122.515 -49.312  0.00  0.00    -0.643 OA
ENDBRANCH   8  10
ENDBRANCH   1   8
TORSDOF 2
ENDMDL
MODEL 5
REMARK VINA RESULT:      -3.8      2.861      3.476
REMARK  2 active torsions:
REMARK  status: ('A' for Active; 'I' for Inactive)
REMARK    1  A    between atoms: CA_2  and  C_1 
REMARK    2  A    between atoms: C_3  and  CA_2 
ROOT
ATOM      1  C   UNL d   1     -41.807-122.493 -50.630  0.00  0.00     0.025 A 
ATOM      2  C   UNL d   1     -41.334-122.973 -50.143  0.00  0.00     0.003 A 
ATOM      3  C   UNL d   1     -42.603-122.354 -50.425  0.00  0.00     0.003 A 
ATOM      4  C   UNL d   1     -42.446-123.169 -49.257  0.00  0.00     0.058 A 
ATOM      5  C   UNL d   1     -41.658-123.307 -49.460  0.00  0.00     0.011 A 
ATOM      6  C   UNL d   1     -42.917-122.695 -49.737  0.00  0.00     0.011 A 
ATOM      7 CL   UNL d   1     -42.761-123.506 -48.575  0.00  0.00    -0.082 Cl
ENDROOT
BRANCH   1   8
ATOM      8  CA  UNL d   1     -41.491-122.157 -51.312  0.00  0.00     0.167 C 
ATOM      9  N   UNL d   1     -41.130-121.417 -51.281  0.00  0.00    -0.142 N 
BRANCH   8  10
ATOM     10  C   UNL d   1     -41.539-122.567 -52.026  0.00  0.00     0.231 C 
ATOM     11  O   UNL d   1     -41.123-123.268 -52.136  0.00  0.00    -0.643 OA
ATOM     12  OXT UNL d   1     -42.009-122.271 -52.638  0.00  0.00    -0.643 OA
ENDBRANCH   8  10
ENDBRANCH   1   8
TORSDOF 2
ENDMDL
