MODEL 1
REMARK VINA RESULT:       9.6      0.000      0.000
REMARK  3 active torsions:
REMARK  status: ('A' for Active; 'I' for Inactive)
REMARK    1  A    between atoms: C_5  and  C_1 
REMARK    2  A    between atoms: N_6  and  C_2 
REMARK       I    between atoms: C_8  and  N_6 
REMARK    3  A    between atoms: C_9  and  C_8 
ROOT
ATOM      1  C   UNL d   1      46.171 -17.795  43.908  0.00  0.00     0.231 A 
ATOM      2  C   UNL d   1      46.098 -16.516  44.288  0.00  0.00     0.297 A 
ATOM      3  O   UNL d   1      46.291 -17.014  43.659  0.00  0.00    -0.252 OA
ATOM      4  N   UNL d   1      45.907 -17.770  44.684  0.00  0.00    -0.117 NA
ATOM      5  N   UNL d   1      45.861 -16.982  44.918  0.00  0.00    -0.101 NA
ENDROOT
BRANCH   2   6
ATOM      6  N   UNL d   1      46.139 -15.692  44.273  0.00  0.00    -0.165 NA
ATOM      7  C   UNL d   1      45.470 -15.244  44.405  0.00  0.00     0.282 C 
ATOM      8  O   UNL d   1      44.741 -15.608  44.554  0.00  0.00    -0.265 OA
BRANCH   7   9
ATOM      9  C   UNL d   1      45.511 -14.420  44.390  0.00  0.00     0.060 A 
ATOM     10  C   UNL d   1      45.108 -13.997  43.821  0.00  0.00     0.034 A 
ATOM     11  C   UNL d   1      45.151 -13.175  43.809  0.00  0.00     0.140 A 
ATOM     12  F   UNL d   1      44.741 -12.735  43.229  0.00  0.00    -0.204 F 
ATOM     13  C   UNL d   1      45.603 -12.777  44.374  0.00  0.00     0.030 A 
ATOM     14  C   UNL d   1      46.009 -13.211  44.948  0.00  0.00     0.003 A 
ATOM     15  C   UNL d   1      45.962 -14.036  44.955  0.00  0.00     0.005 A 
ENDBRANCH   7   9
ENDBRANCH   2   6
BRANCH   1  16
ATOM     16  C   UNL d   1      46.299 -18.472  43.449  0.00  0.00     0.168 A 
ATOM     17  O   UNL d   1      46.515 -18.394  42.659  0.00  0.00    -0.297 OA
ATOM     18  C   UNL d   1      46.641 -19.061  42.207  0.00  0.00     0.149 A 
ATOM     19  C   UNL d   1      46.553 -19.808  42.535  0.00  0.00     0.149 A 
ATOM     20  O   UNL d   1      46.337 -19.899  43.322  0.00  0.00    -0.299 OA
ATOM     21  C   UNL d   1      46.210 -19.229  43.778  0.00  0.00     0.151 A 
ENDBRANCH   1  16
TORSDOF 3
ENDMDL
MODEL 2
REMARK VINA RESULT:       9.8      1.817      4.889
REMARK  3 active torsions:
REMARK  status: ('A' for Active; 'I' for Inactive)
REMARK    1  A    between atoms: C_5  and  C_1 
REMARK    2  A    between atoms: N_6  and  C_2 
REMARK       I    between atoms: C_8  and  N_6 
REMARK    3  A    between atoms: C_9  and  C_8 
ROOT
ATOM      1  C   UNL d   1      45.622 -15.084  44.342  0.00  0.00     0.231 A 
ATOM      2  C   UNL d   1      45.768 -16.375  44.031  0.00  0.00     0.297 A 
ATOM      3  O   UNL d   1      45.905 -15.606  43.764  0.00  0.00    -0.252 OA
ATOM      4  N   UNL d   1      45.316 -15.533  44.955  0.00  0.00    -0.117 NA
ATOM      5  N   UNL d   1      45.406 -16.329  44.763  0.00  0.00    -0.101 NA
ENDROOT
BRANCH   2   6
ATOM      6  N   UNL d   1      45.966 -17.063  43.622  0.00  0.00    -0.165 NA
ATOM      7  C   UNL d   1      46.054 -17.769  44.022  0.00  0.00     0.282 C 
ATOM      8  O   UNL d   1      45.946 -17.805  44.842  0.00  0.00    -0.265 OA
BRANCH   7   9
ATOM      9  C   UNL d   1      46.252 -18.458  43.613  0.00  0.00     0.060 A 
ATOM     10  C   UNL d   1      46.345 -18.443  42.802  0.00  0.00     0.034 A 
ATOM     11  C   UNL d   1      46.543 -19.132  42.397  0.00  0.00     0.140 A 
ATOM     12  F   UNL d   1      46.640 -19.125  41.567  0.00  0.00    -0.204 F 
ATOM     13  C   UNL d   1      46.647 -19.839  42.810  0.00  0.00     0.030 A 
ATOM     14  C   UNL d   1      46.551 -19.847  43.631  0.00  0.00     0.003 A 
ATOM     15  C   UNL d   1      46.353 -19.152  44.033  0.00  0.00     0.005 A 
ENDBRANCH   7   9
ENDBRANCH   2   6
BRANCH   1  16
ATOM     16  C   UNL d   1      45.649 -14.257  44.298  0.00  0.00     0.168 A 
ATOM     17  O   UNL d   1      45.429 -13.879  43.602  0.00  0.00    -0.297 OA
ATOM     18  C   UNL d   1      45.455 -13.064  43.559  0.00  0.00     0.149 A 
ATOM     19  C   UNL d   1      45.700 -12.622  44.205  0.00  0.00     0.149 A 
ATOM     20  O   UNL d   1      45.922 -12.988  44.906  0.00  0.00    -0.299 OA
ATOM     21  C   UNL d   1      45.896 -13.807  44.951  0.00  0.00     0.151 A 
ENDBRANCH   1  16
TORSDOF 3
ENDMDL
