MODEL 1
REMARK VINA RESULT:      -7.6      0.000      0.000
REMARK  2 active torsions:
REMARK  status: ('A' for Active; 'I' for Inactive)
REMARK    1  A    between atoms: C_6  and  C_1 
REMARK    2  A    between atoms: C_8  and  C_5 
ROOT
ATOM      1  C   UNL d   1     -47.148  11.800  23.547  0.00  0.00     0.169 A 
ATOM      2  C   UNL d   1     -47.808  12.248  23.300  0.00  0.00     0.048 A 
ATOM      3  N   UNL d   1     -48.222  10.997  23.518  0.00  0.00    -0.148 NA
ATOM      4  N   UNL d   1     -47.412  11.023  23.681  0.00  0.00    -0.142 NA
ATOM      5  C   UNL d   1     -48.457  11.763  23.283  0.00  0.00     0.105 A 
ENDROOT
BRANCH   5   6
ATOM      6  C   UNL d   1     -49.203  11.980  23.074  0.00  0.00     0.019 A 
ATOM      7  C   UNL d   1     -49.374  12.158  22.287  0.00  0.00     0.002 A 
ATOM      8  C   UNL d   1     -50.135  12.383  22.058  0.00  0.00     0.000 A 
ATOM      9  C   UNL d   1     -50.725  12.427  22.635  0.00  0.00     0.000 A 
ATOM     10  C   UNL d   1     -50.563  12.250  23.428  0.00  0.00     0.000 A 
ATOM     11  C   UNL d   1     -49.802  12.028  23.640  0.00  0.00     0.002 A 
ENDBRANCH   5   6
BRANCH   1  12
ATOM     12  C   UNL d   1     -46.397  12.099  23.632  0.00  0.00     0.231 C 
ATOM     13  O   UNL d   1     -46.248  12.883  23.698  0.00  0.00    -0.643 OA
ATOM     14  O   UNL d   1     -45.747  11.595  23.653  0.00  0.00    -0.643 OA
ENDBRANCH   1  12
TORSDOF 2
ENDMDL
MODEL 2
REMARK VINA RESULT:      -7.3      0.859      1.258
REMARK  2 active torsions:
REMARK  status: ('A' for Active; 'I' for Inactive)
REMARK    1  A    between atoms: C_6  and  C_1 
REMARK    2  A    between atoms: C_8  and  C_5 
ROOT
ATOM      1  C   UNL d   1     -46.651  12.752  23.221  0.00  0.00     0.169 A 
ATOM      2  C   UNL d   1     -47.432  12.845  22.941  0.00  0.00     0.048 A 
ATOM      3  N   UNL d   1     -47.396  11.743  23.695  0.00  0.00    -0.148 NA
ATOM      4  N   UNL d   1     -46.636  12.065  23.690  0.00  0.00    -0.142 NA
ATOM      5  C   UNL d   1     -47.883  12.234  23.227  0.00  0.00     0.105 A 
ENDROOT
BRANCH   5   6
ATOM      6  C   UNL d   1     -48.666  12.121  23.086  0.00  0.00     0.019 A 
ATOM      7  C   UNL d   1     -49.164  11.881  23.698  0.00  0.00     0.002 A 
ATOM      8  C   UNL d   1     -49.971  11.760  23.566  0.00  0.00     0.000 A 
ATOM      9  C   UNL d   1     -50.271  11.885  22.807  0.00  0.00     0.000 A 
ATOM     10  C   UNL d   1     -49.779  12.126  22.186  0.00  0.00     0.000 A 
ATOM     11  C   UNL d   1     -48.980  12.241  22.332  0.00  0.00     0.002 A 
ENDBRANCH   5   6
BRANCH   1  12
ATOM     12  C   UNL d   1     -46.039  13.258  23.049  0.00  0.00     0.231 C 
ATOM     13  O   UNL d   1     -46.020  14.017  23.306  0.00  0.00    -0.643 OA
ATOM     14  O   UNL d   1     -45.402  13.005  22.594  0.00  0.00    -0.643 OA
ENDBRANCH   1  12
TORSDOF 2
ENDMDL
MODEL 3
REMARK VINA RESULT:      -7.0      2.052      2.346
REMARK  2 active torsions:
REMARK  status: ('A' for Active; 'I' for Inactive)
REMARK    1  A    between atoms: C_6  and  C_1 
REMARK    2  A    between atoms: C_8  and  C_5 
ROOT
ATOM      1  C   UNL d   1     -46.574  12.856  23.215  0.00  0.00     0.169 A 
ATOM      2  C   UNL d   1     -47.373  12.985  23.009  0.00  0.00     0.048 A 
ATOM      3  N   UNL d   1     -46.734  14.155  22.925  0.00  0.00    -0.148 NA
ATOM      4  N   UNL d   1     -46.183  13.587  23.161  0.00  0.00    -0.142 NA
ATOM      5  C   UNL d   1     -47.470  13.771  22.834  0.00  0.00     0.105 A 
ENDROOT
BRANCH   5   6
ATOM      6  C   UNL d   1     -48.158  14.122  22.610  0.00  0.00     0.019 A 
ATOM      7  C   UNL d   1     -48.388  14.835  22.957  0.00  0.00     0.002 A 
ATOM      8  C   UNL d   1     -49.092  15.206  22.736  0.00  0.00     0.000 A 
ATOM      9  C   UNL d   1     -49.563  14.850  22.159  0.00  0.00     0.000 A 
ATOM     10  C   UNL d   1     -49.341  14.135  21.805  0.00  0.00     0.000 A 
ATOM     11  C   UNL d   1     -48.639  13.778  22.035  0.00  0.00     0.002 A 
ENDBRANCH   5   6
BRANCH   1  12
ATOM     12  C   UNL d   1     -46.267  12.134  23.426  0.00  0.00     0.231 C 
ATOM     13  O   UNL d   1     -46.720  11.532  23.698  0.00  0.00    -0.643 OA
ATOM     14  O   UNL d   1     -45.459  11.990  23.366  0.00  0.00    -0.643 OA
ENDBRANCH   1  12
TORSDOF 2
ENDMDL
MODEL 4
REMARK VINA RESULT:      -6.9      2.188      3.335
REMARK  2 active torsions:
REMARK  status: ('A' for Active; 'I' for Inactive)
REMARK    1  A    between atoms: C_6  and  C_1 
REMARK    2  A    between atoms: C_8  and  C_5 
ROOT
ATOM      1  C   UNL d   1     -49.438  12.117  22.917  0.00  0.00     0.169 A 
ATOM      2  C   UNL d   1     -48.785  12.513  23.256  0.00  0.00     0.048 A 
ATOM      3  N   UNL d   1     -48.640  12.544  21.928  0.00  0.00    -0.148 NA
ATOM      4  N   UNL d   1     -49.341  12.140  22.092  0.00  0.00    -0.142 NA
ATOM      5  C   UNL d   1     -48.303  12.772  22.657  0.00  0.00     0.105 A 
ENDROOT
BRANCH   5   6
ATOM      6  C   UNL d   1     -47.615  13.179  22.750  0.00  0.00     0.019 A 
ATOM      7  C   UNL d   1     -46.905  12.770  22.843  0.00  0.00     0.002 A 
ATOM      8  C   UNL d   1     -46.191  13.176  22.939  0.00  0.00     0.000 A 
ATOM      9  C   UNL d   1     -46.202  14.001  22.939  0.00  0.00     0.000 A 
ATOM     10  C   UNL d   1     -46.911  14.421  22.846  0.00  0.00     0.000 A 
ATOM     11  C   UNL d   1     -47.611  14.004  22.752  0.00  0.00     0.002 A 
ENDBRANCH   5   6
BRANCH   1  12
ATOM     12  C   UNL d   1     -50.041  11.780  23.345  0.00  0.00     0.231 C 
ATOM     13  O   UNL d   1     -49.976  11.064  23.697  0.00  0.00    -0.643 OA
ATOM     14  O   UNL d   1     -50.759  12.173  23.435  0.00  0.00    -0.643 OA
ENDBRANCH   1  12
TORSDOF 2
ENDMDL
MODEL 5
REMARK VINA RESULT:      -6.9      2.990      4.019
REMARK  2 active torsions:
REMARK  status: ('A' for Active; 'I' for Inactive)
REMARK    1  A    between atoms: C_6  and  C_1 
REMARK    2  A    between atoms: C_8  and  C_5 
ROOT
ATOM      1  C   UNL d   1     -49.418  14.960  22.714  0.00  0.00     0.169 A 
ATOM      2  C   UNL d   1     -48.724  14.710  23.105  0.00  0.00     0.048 A 
ATOM      3  N   UNL d   1     -48.791  14.065  21.937  0.00  0.00    -0.148 NA
ATOM      4  N   UNL d   1     -49.453  14.556  21.988  0.00  0.00    -0.142 NA
ATOM      5  C   UNL d   1     -48.345  14.168  22.636  0.00  0.00     0.105 A 
ENDROOT
BRANCH   5   6
ATOM      6  C   UNL d   1     -47.655  13.793  22.812  0.00  0.00     0.019 A 
ATOM      7  C   UNL d   1     -47.669  13.015  23.087  0.00  0.00     0.002 A 
ATOM      8  C   UNL d   1     -46.969  12.618  23.271  0.00  0.00     0.000 A 
ATOM      9  C   UNL d   1     -46.251  13.015  23.175  0.00  0.00     0.000 A 
ATOM     10  C   UNL d   1     -46.227  13.796  22.899  0.00  0.00     0.000 A 
ATOM     11  C   UNL d   1     -46.931  14.177  22.720  0.00  0.00     0.002 A 
ENDBRANCH   5   6
BRANCH   1  12
ATOM     12  C   UNL d   1     -49.942  15.503  23.015  0.00  0.00     0.231 C 
ATOM     13  O   UNL d   1     -49.812  15.899  23.698  0.00  0.00    -0.643 OA
ATOM     14  O   UNL d   1     -50.644  15.669  22.618  0.00  0.00    -0.643 OA
ENDBRANCH   1  12
TORSDOF 2
ENDMDL
