MODEL 1
REMARK VINA RESULT:      67.1      0.000      0.000
REMARK  5 active torsions:
REMARK  status: ('A' for Active; 'I' for Inactive)
REMARK    1  A    between atoms: C_14  and  C_3 
REMARK    2  A    between atoms: C_8  and  C_4 
REMARK    3  A    between atoms: N_10  and  C_9 
REMARK    4  A    between atoms: O_21  and  C_14 
REMARK    5  A    between atoms: C_25  and  O_21 
ROOT
ATOM      1  C   UNL d   1     -58.267 -99.062 -44.104  0.00  0.00     0.059 A 
ATOM      2  C   UNL d   1     -59.073 -98.908 -44.020  0.00  0.00     0.085 A 
ATOM      3  C   UNL d   1     -58.405 -99.018 -45.521  0.00  0.00     0.083 A 
ATOM      4  C   UNL d   1     -57.937 -99.116 -44.854  0.00  0.00     0.034 A 
ATOM      5  N   UNL d   1     -59.549 -98.809 -44.678  0.00  0.00    -0.245 NA
ATOM      6  C   UNL d   1     -57.938 -99.134 -43.351  0.00  0.00     0.197 A 
ATOM      7  C   UNL d   1     -59.215 -98.863 -45.438  0.00  0.00     0.087 A 
ATOM      8  C   UNL d   1     -59.245 -98.886 -43.211  0.00  0.00     0.021 A 
ATOM      9  C   UNL d   1     -58.547 -99.025 -42.798  0.00  0.00     0.041 A 
ATOM     10  O   UNL d   1     -57.144 -99.289 -43.177  0.00  0.00    -0.286 OA
ATOM     11  C   UNL d   1     -59.688 -98.764 -46.105  0.00  0.00     0.021 C 
ATOM     12  C   UNL d   1     -59.953 -98.755 -42.791  0.00  0.00     0.002 A 
ATOM     13  C   UNL d   1     -58.544 -99.036 -41.969  0.00  0.00     0.003 A 
ATOM     14  C   UNL d   1     -59.947 -98.767 -41.970  0.00  0.00     0.000 A 
ATOM     15  C   UNL d   1     -59.252 -98.905 -41.557  0.00  0.00     0.000 A 
ENDROOT
BRANCH   4  16
ATOM     16  C   UNL d   1     -57.131 -99.269 -44.938  0.00  0.00     0.102 A 
ATOM     17  O   UNL d   1     -56.739 -99.960 -44.711  0.00  0.00    -0.286 OA
ATOM     18  C   UNL d   1     -55.946 -99.880 -44.893  0.00  0.00     0.227 A 
ATOM     19  C   UNL d   1     -55.832 -99.138 -45.237  0.00  0.00     0.051 A 
ATOM     20  C   UNL d   1     -56.568 -98.756 -45.266  0.00  0.00     0.029 A 
BRANCH  18  21
ATOM     21  N   UNL d   1     -55.348-100.441 -44.761  0.00  0.00    -0.089 N 
ATOM     22  O   UNL d   1     -55.379-100.935 -44.107  0.00  0.00    -0.530 OA
ATOM     23  O   UNL d   1     -54.718-100.496 -45.300  0.00  0.00    -0.530 OA
ENDBRANCH  18  21
ENDBRANCH   4  16
BRANCH   3  24
ATOM     24  C   UNL d   1     -58.076 -99.071 -46.276  0.00  0.00     0.302 C 
ATOM     25  O   UNL d   1     -57.305 -98.808 -46.405  0.00  0.00    -0.259 OA
BRANCH  24  26
ATOM     26  O   UNL d   1     -58.514 -99.386 -46.898  0.00  0.00    -0.271 OA
BRANCH  26  27
ATOM     27  C   UNL d   1     -59.021 -98.901 -47.328  0.00  0.00     0.126 C 
ATOM     28  C   UNL d   1     -59.171 -99.065 -48.121  0.00  0.00     0.029 C 
ENDBRANCH  26  27
ENDBRANCH  24  26
ENDBRANCH   3  24
TORSDOF 5
ENDMDL
