MODEL 1
REMARK VINA RESULT:      66.5      0.000      0.000
REMARK  6 active torsions:
REMARK  status: ('A' for Active; 'I' for Inactive)
REMARK    1  A    between atoms: C_3  and  S_1 
REMARK    2  A    between atoms: N_4  and  S_1 
REMARK    3  A    between atoms: S_2  and  C_7 
REMARK    4  A    between atoms: C_8  and  S_2 
REMARK    5  A    between atoms: C_6  and  C_9 
REMARK       I    between atoms: N_10  and  C_6 
REMARK    6  A    between atoms: C_17  and  N_10 
ROOT
ATOM      1  C   UNL d   1      14.759  16.079  -4.312  0.00  0.00     0.115 A 
ATOM      2  C   UNL d   1      14.580  15.455  -3.799  0.00  0.00     0.019 A 
ATOM      3  C   UNL d   1      13.906  15.006  -3.944  0.00  0.00     0.059 A 
ATOM      4  C   UNL d   1      14.278  16.244  -4.946  0.00  0.00     0.070 A 
ATOM      5  C   UNL d   1      13.425  15.170  -4.577  0.00  0.00     0.006 A 
ATOM      6  C   UNL d   1      13.604  15.788  -5.085  0.00  0.00     0.012 A 
ATOM      7 CL   UNL d   1      14.468  16.876  -5.458  0.00  0.00    -0.082 Cl
ENDROOT
BRANCH   3   8
ATOM      8  C   UNL d   1      13.705  14.371  -3.439  0.00  0.00     0.279 C 
ATOM      9  N   UNL d   1      14.138  13.672  -3.458  0.00  0.00    -0.208 NA
ATOM     10  O   UNL d   1      13.070  14.443  -2.918  0.00  0.00    -0.265 OA
BRANCH   9  11
ATOM     11  C   UNL d   1      13.935  13.049  -2.958  0.00  0.00     0.085 A 
ATOM     12  C   UNL d   1      14.345  12.941  -2.237  0.00  0.00     0.031 A 
ATOM     13  C   UNL d   1      14.144  12.312  -1.726  0.00  0.00     0.094 A 
ATOM     14  C   UNL d   1      13.526  11.780  -1.936  0.00  0.00     0.012 A 
ATOM     15  C   UNL d   1      13.116  11.888  -2.657  0.00  0.00     0.002 A 
ATOM     16  C   UNL d   1      13.317  12.517  -3.166  0.00  0.00     0.019 A 
BRANCH  13  17
ATOM     17  S   UNL d   1      14.614  12.317  -1.064  0.00  0.00     0.262 S 
ATOM     18  O   UNL d   1      15.077  12.323  -0.389  0.00  0.00    -0.213 OA
ATOM     19  O   UNL d   1      15.284  12.237  -1.512  0.00  0.00    -0.213 OA
BRANCH  17  20
ATOM     20  C   UNL d   1      13.941  12.398  -0.598  0.00  0.00     0.364 C 
ATOM     21  F   UNL d   1      13.854  13.047  -0.122  0.00  0.00    -0.159 F 
ATOM     22  F   UNL d   1      13.358  11.824  -0.613  0.00  0.00    -0.159 F 
ENDBRANCH  17  20
ENDBRANCH  13  17
ENDBRANCH   9  11
ENDBRANCH   3   8
BRANCH   1  23
ATOM     23  S   UNL d   1      15.440  16.526  -4.158  0.00  0.00     0.272 S 
ATOM     24  O   UNL d   1      15.726  16.349  -4.922  0.00  0.00    -0.200 OA
ATOM     25  O   UNL d   1      16.123  16.964  -4.027  0.00  0.00    -0.200 OA
BRANCH  23  26
ATOM     26  N   UNL d   1      15.175  16.710  -3.408  0.00  0.00    -0.225 N 
ATOM     27  C   UNL d   1      14.678  17.349  -3.288  0.00  0.00     0.118 A 
ATOM     28  C   UNL d   1      14.414  17.529  -2.533  0.00  0.00     0.142 A 
ATOM     29  O   UNL d   1      14.642  17.076  -1.899  0.00  0.00    -0.300 OA
ATOM     30  C   UNL d   1      15.147  16.423  -2.008  0.00  0.00     0.142 A 
ATOM     31  C   UNL d   1      15.406  16.250  -2.764  0.00  0.00     0.118 A 
ENDBRANCH  23  26
ENDBRANCH   1  23
TORSDOF 6
ENDMDL
MODEL 2
REMARK VINA RESULT:      68.3      2.511      5.124
REMARK  6 active torsions:
REMARK  status: ('A' for Active; 'I' for Inactive)
REMARK    1  A    between atoms: C_3  and  S_1 
REMARK    2  A    between atoms: N_4  and  S_1 
REMARK    3  A    between atoms: S_2  and  C_7 
REMARK    4  A    between atoms: C_8  and  S_2 
REMARK    5  A    between atoms: C_6  and  C_9 
REMARK       I    between atoms: N_10  and  C_6 
REMARK    6  A    between atoms: C_17  and  N_10 
ROOT
ATOM      1  C   UNL d   1      15.018  13.350  -1.439  0.00  0.00     0.115 A 
ATOM      2  C   UNL d   1      14.840  13.719  -2.159  0.00  0.00     0.019 A 
ATOM      3  C   UNL d   1      14.595  14.505  -2.149  0.00  0.00     0.059 A 
ATOM      4  C   UNL d   1      14.952  13.756  -0.739  0.00  0.00     0.070 A 
ATOM      5  C   UNL d   1      14.530  14.911  -1.450  0.00  0.00     0.006 A 
ATOM      6  C   UNL d   1      14.707  14.544  -0.738  0.00  0.00     0.012 A 
ATOM      7 CL   UNL d   1      15.135  13.375  -0.019  0.00  0.00    -0.082 Cl
ENDROOT
BRANCH   3   8
ATOM      8  C   UNL d   1      14.410  14.897  -2.862  0.00  0.00     0.279 C 
ATOM      9  N   UNL d   1      14.788  15.600  -3.061  0.00  0.00    -0.208 NA
ATOM     10  O   UNL d   1      13.845  14.581  -3.374  0.00  0.00    -0.265 OA
BRANCH   9  11
ATOM     11  C   UNL d   1      14.602  15.984  -3.766  0.00  0.00     0.085 A 
ATOM     12  C   UNL d   1      15.077  16.616  -4.037  0.00  0.00     0.031 A 
ATOM     13  C   UNL d   1      14.893  17.008  -4.751  0.00  0.00     0.094 A 
ATOM     14  C   UNL d   1      14.224  16.768  -5.203  0.00  0.00     0.012 A 
ATOM     15  C   UNL d   1      13.749  16.135  -4.932  0.00  0.00     0.002 A 
ATOM     16  C   UNL d   1      13.933  15.744  -4.219  0.00  0.00     0.019 A 
BRANCH  13  17
ATOM     17  S   UNL d   1      15.429  17.599  -4.901  0.00  0.00     0.262 S 
ATOM     18  O   UNL d   1      15.959  18.204  -5.055  0.00  0.00    -0.213 OA
ATOM     19  O   UNL d   1      16.052  17.097  -4.773  0.00  0.00    -0.213 OA
BRANCH  17  20
ATOM     20  C   UNL d   1      14.805  18.119  -5.034  0.00  0.00     0.364 C 
ATOM     21  F   UNL d   1      14.587  18.304  -5.792  0.00  0.00    -0.159 F 
ATOM     22  F   UNL d   1      14.403  18.450  -4.403  0.00  0.00    -0.159 F 
ENDBRANCH  17  20
ENDBRANCH  13  17
ENDBRANCH   9  11
ENDBRANCH   3   8
BRANCH   1  23
ATOM     23  S   UNL d   1      15.264  12.558  -1.459  0.00  0.00     0.272 S 
ATOM     24  O   UNL d   1      16.057  12.806  -1.385  0.00  0.00    -0.200 OA
ATOM     25  O   UNL d   1      15.529  11.781  -1.476  0.00  0.00    -0.200 OA
BRANCH  23  26
ATOM     26  N   UNL d   1      14.492  12.299  -1.531  0.00  0.00    -0.225 N 
ATOM     27  C   UNL d   1      14.154  12.203  -2.270  0.00  0.00     0.118 A 
ATOM     28  C   UNL d   1      13.380  11.943  -2.338  0.00  0.00     0.142 A 
ATOM     29  O   UNL d   1      12.942  11.779  -1.674  0.00  0.00    -0.300 OA
ATOM     30  C   UNL d   1      13.275  11.874  -0.916  0.00  0.00     0.142 A 
ATOM     31  C   UNL d   1      14.048  12.134  -0.857  0.00  0.00     0.118 A 
ENDBRANCH  23  26
ENDBRANCH   1  23
TORSDOF 6
ENDMDL
MODEL 3
REMARK VINA RESULT:      69.1      2.737      5.251
REMARK  6 active torsions:
REMARK  status: ('A' for Active; 'I' for Inactive)
REMARK    1  A    between atoms: C_3  and  S_1 
REMARK    2  A    between atoms: N_4  and  S_1 
REMARK    3  A    between atoms: S_2  and  C_7 
REMARK    4  A    between atoms: C_8  and  S_2 
REMARK    5  A    between atoms: C_6  and  C_9 
REMARK       I    between atoms: N_10  and  C_6 
REMARK    6  A    between atoms: C_17  and  N_10 
ROOT
ATOM      1  C   UNL d   1      14.148  12.813  -0.666  0.00  0.00     0.115 A 
ATOM      2  C   UNL d   1      14.073  13.594  -0.930  0.00  0.00     0.019 A 
ATOM      3  C   UNL d   1      14.692  14.119  -0.795  0.00  0.00     0.059 A 
ATOM      4  C   UNL d   1      14.821  12.571  -0.282  0.00  0.00     0.070 A 
ATOM      5  C   UNL d   1      15.365  13.876  -0.411  0.00  0.00     0.006 A 
ATOM      6  C   UNL d   1      15.439  13.102  -0.150  0.00  0.00     0.012 A 
ATOM      7 CL   UNL d   1      14.888  11.781  -0.019  0.00  0.00    -0.082 Cl
ENDROOT
BRANCH   3   8
ATOM      8  C   UNL d   1      14.638  14.911  -1.053  0.00  0.00     0.279 C 
ATOM      9  N   UNL d   1      15.171  15.206  -1.606  0.00  0.00    -0.208 NA
ATOM     10  O   UNL d   1      14.048  15.403  -0.753  0.00  0.00    -0.265 OA
BRANCH   9  11
ATOM     11  C   UNL d   1      15.113  15.989  -1.856  0.00  0.00     0.085 A 
ATOM     12  C   UNL d   1      15.197  16.612  -1.305  0.00  0.00     0.031 A 
ATOM     13  C   UNL d   1      15.139  17.407  -1.553  0.00  0.00     0.094 A 
ATOM     14  C   UNL d   1      14.996  17.586  -2.364  0.00  0.00     0.012 A 
ATOM     15  C   UNL d   1      14.912  16.963  -2.915  0.00  0.00     0.002 A 
ATOM     16  C   UNL d   1      14.970  16.169  -2.666  0.00  0.00     0.019 A 
BRANCH  13  17
ATOM     17  S   UNL d   1      15.239  17.913  -0.926  0.00  0.00     0.262 S 
ATOM     18  O   UNL d   1      15.352  18.421  -0.294  0.00  0.00    -0.213 OA
ATOM     19  O   UNL d   1      14.438  18.016  -0.854  0.00  0.00    -0.213 OA
BRANCH  17  20
ATOM     20  C   UNL d   1      16.053  17.817  -0.988  0.00  0.00     0.364 C 
ATOM     21  F   UNL d   1      16.409  17.162  -0.670  0.00  0.00    -0.159 F 
ATOM     22  F   UNL d   1      16.507  18.380  -1.370  0.00  0.00    -0.159 F 
ENDBRANCH  17  20
ENDBRANCH  13  17
ENDBRANCH   9  11
ENDBRANCH   3   8
BRANCH   1  23
ATOM     23  S   UNL d   1      13.519  12.293  -0.806  0.00  0.00     0.272 S 
ATOM     24  O   UNL d   1      13.241  12.424  -0.030  0.00  0.00    -0.200 OA
ATOM     25  O   UNL d   1      12.887  11.780  -0.923  0.00  0.00    -0.200 OA
BRANCH  23  26
ATOM     26  N   UNL d   1      13.777  12.153  -1.569  0.00  0.00    -0.225 N 
ATOM     27  C   UNL d   1      14.554  11.940  -1.711  0.00  0.00     0.118 A 
ATOM     28  C   UNL d   1      14.809  11.801  -2.478  0.00  0.00     0.142 A 
ATOM     29  O   UNL d   1      14.293  11.874  -3.102  0.00  0.00    -0.300 OA
ATOM     30  C   UNL d   1      13.500  12.091  -2.969  0.00  0.00     0.142 A 
ATOM     31  C   UNL d   1      13.254  12.227  -2.201  0.00  0.00     0.118 A 
ENDBRANCH  23  26
ENDBRANCH   1  23
TORSDOF 6
ENDMDL
