MODEL 1
REMARK VINA RESULT:      -3.0      0.000      0.000
REMARK  7 active torsions:
REMARK  status: ('A' for Active; 'I' for Inactive)
REMARK    1  A    between atoms: C_8  and  N_1 
REMARK       I    between atoms: C_3  and  N_5 
REMARK       I    between atoms: N_9  and  C_3 
REMARK    2  A    between atoms: N_5  and  C_6 
REMARK    3  A    between atoms: C_18  and  N_9 
REMARK    4  A    between atoms: C_19  and  N_9 
REMARK    5  A    between atoms: O_17  and  C_14 
REMARK    6  A    between atoms: C_21  and  C_18 
REMARK    7  A    between atoms: C_22  and  C_19 
ROOT
ATOM      1  N   UNL d   1     -41.652-122.681 -50.450  0.00  0.00    -0.272 N 
ATOM      2  C   UNL d   1     -41.316-121.936 -50.582  0.00  0.00     0.266 A 
ATOM      3  C   UNL d   1     -41.139-121.891 -51.392  0.00  0.00     0.082 A 
ATOM      4  C   UNL d   1     -41.364-122.600 -51.748  0.00  0.00     0.108 A 
ATOM      5  C   UNL d   1     -41.682-123.085 -51.159  0.00  0.00     0.102 A 
ATOM      6  O   UNL d   1     -41.183-121.354 -50.020  0.00  0.00    -0.267 OA
ENDROOT
BRANCH   4   7
ATOM      7  N   UNL d   1     -41.285-122.785 -52.550  0.00  0.00    -0.190 NA
ATOM      8  C   UNL d   1     -41.724-122.373 -53.108  0.00  0.00     0.354 C 
ATOM      9  N   UNL d   1     -41.649-122.554 -53.911  0.00  0.00    -0.256 N 
ATOM     10  O   UNL d   1     -42.242-121.778 -52.873  0.00  0.00    -0.244 OA
BRANCH   9  11
ATOM     11  C   UNL d   1     -42.088-122.143 -54.481  0.00  0.00     0.085 C 
BRANCH  11  12
ATOM     12  C   UNL d   1     -41.761-121.519 -54.897  0.00  0.00     0.019 C 
ATOM     13  C   UNL d   1     -42.161-121.169 -55.527  0.00  0.00     0.002 C 
ENDBRANCH  11  12
ENDBRANCH   9  11
BRANCH   9  14
ATOM     14  C   UNL d   1     -41.129-123.150 -54.148  0.00  0.00     0.085 C 
BRANCH  14  15
ATOM     15  C   UNL d   1     -41.403-123.759 -54.630  0.00  0.00     0.019 C 
ATOM     16  C   UNL d   1     -41.132-123.817 -55.416  0.00  0.00     0.002 C 
ENDBRANCH  14  15
ENDBRANCH   9  14
ENDBRANCH   4   7
BRANCH   1  17
ATOM     17  C   UNL d   1     -41.913-122.965 -49.720  0.00  0.00     0.067 A 
ATOM     18  C   UNL d   1     -42.715-123.129 -49.605  0.00  0.00     0.020 A 
ATOM     19  C   UNL d   1     -42.976-123.412 -48.875  0.00  0.00     0.026 A 
ATOM     20  C   UNL d   1     -42.438-123.533 -48.263  0.00  0.00     0.094 A 
ATOM     21  C   UNL d   1     -41.639-123.371 -48.372  0.00  0.00     0.026 A 
ATOM     22  C   UNL d   1     -41.376-123.085 -49.109  0.00  0.00     0.020 A 
BRANCH  20  23
ATOM     23  O   UNL d   1     -42.708-123.817 -47.536  0.00  0.00    -0.328 OA
ATOM     24  C   UNL d   1     -42.259-123.683 -46.859  0.00  0.00     0.181 C 
ENDBRANCH  20  23
ENDBRANCH   1  17
TORSDOF 7
ENDMDL
MODEL 2
REMARK VINA RESULT:      -1.4      1.158      5.239
REMARK  7 active torsions:
REMARK  status: ('A' for Active; 'I' for Inactive)
REMARK    1  A    between atoms: C_8  and  N_1 
REMARK       I    between atoms: C_3  and  N_5 
REMARK       I    between atoms: N_9  and  C_3 
REMARK    2  A    between atoms: N_5  and  C_6 
REMARK    3  A    between atoms: C_18  and  N_9 
REMARK    4  A    between atoms: C_19  and  N_9 
REMARK    5  A    between atoms: O_17  and  C_14 
REMARK    6  A    between atoms: C_21  and  C_18 
REMARK    7  A    between atoms: C_22  and  C_19 
ROOT
ATOM      1  N   UNL d   1     -41.546-121.918 -52.423  0.00  0.00    -0.272 N 
ATOM      2  C   UNL d   1     -41.425-121.184 -52.059  0.00  0.00     0.266 A 
ATOM      3  C   UNL d   1     -41.333-121.329 -51.247  0.00  0.00     0.082 A 
ATOM      4  C   UNL d   1     -41.398-122.141 -51.118  0.00  0.00     0.108 A 
ATOM      5  C   UNL d   1     -41.530-122.501 -51.850  0.00  0.00     0.102 A 
ATOM      6  O   UNL d   1     -41.399-120.454 -52.430  0.00  0.00    -0.267 OA
ENDROOT
BRANCH   4   7
ATOM      7  N   UNL d   1     -41.340-122.521 -50.385  0.00  0.00    -0.190 NA
ATOM      8  C   UNL d   1     -41.967-122.975 -50.113  0.00  0.00     0.354 C 
ATOM      9  N   UNL d   1     -41.914-123.356 -49.381  0.00  0.00    -0.256 N 
ATOM     10  O   UNL d   1     -42.650-123.055 -50.564  0.00  0.00    -0.244 OA
BRANCH   9  11
ATOM     11  C   UNL d   1     -42.542-123.817 -49.098  0.00  0.00     0.085 C 
BRANCH  11  12
ATOM     12  C   UNL d   1     -42.985-123.577 -48.453  0.00  0.00     0.019 C 
ATOM     13  C   UNL d   1     -43.807-123.643 -48.449  0.00  0.00     0.002 C 
ENDBRANCH  11  12
ENDBRANCH   9  11
BRANCH   9  14
ATOM     14  C   UNL d   1     -41.229-123.277 -48.927  0.00  0.00     0.085 C 
BRANCH  14  15
ATOM     15  C   UNL d   1     -41.126-123.752 -48.262  0.00  0.00     0.019 C 
ATOM     16  C   UNL d   1     -41.126-123.406 -47.504  0.00  0.00     0.002 C 
ENDBRANCH  14  15
ENDBRANCH   9  14
ENDBRANCH   4   7
BRANCH   1  17
ATOM     17  C   UNL d   1     -41.664-122.037 -53.231  0.00  0.00     0.067 A 
ATOM     18  C   UNL d   1     -41.187-122.573 -53.642  0.00  0.00     0.020 A 
ATOM     19  C   UNL d   1     -41.305-122.692 -54.450  0.00  0.00     0.026 A 
ATOM     20  C   UNL d   1     -41.896-122.278 -54.846  0.00  0.00     0.094 A 
ATOM     21  C   UNL d   1     -42.373-121.743 -54.442  0.00  0.00     0.026 A 
ATOM     22  C   UNL d   1     -42.254-121.623 -53.626  0.00  0.00     0.020 A 
BRANCH  20  23
ATOM     23  O   UNL d   1     -42.007-122.403 -55.654  0.00  0.00    -0.328 OA
ATOM     24  C   UNL d   1     -42.528-121.919 -56.070  0.00  0.00     0.181 C 
ENDBRANCH  20  23
ENDBRANCH   1  17
TORSDOF 7
ENDMDL
