MODEL 1
REMARK VINA RESULT:      67.1      0.000      0.000
REMARK  4 active torsions:
REMARK  status: ('A' for Active; 'I' for Inactive)
REMARK    1  A    between atoms: C_11  and  C_4 
REMARK    2  A    between atoms: C_9  and  C_5 
REMARK    3  A    between atoms: O_21  and  C_16 
REMARK    4  A    between atoms: O_22  and  C_17 
ROOT
ATOM      1  N   UNL d   1     -49.812  27.502  33.954  0.00  0.00    -0.185 N 
ATOM      2  C   UNL d   1     -50.179  28.242  33.884  0.00  0.00     0.219 A 
ATOM      3  N   UNL d   1     -49.104  27.608  34.353  0.00  0.00    -0.153 NA
ATOM      4  C   UNL d   1     -50.298  26.940  33.596  0.00  0.00     0.187 A 
ATOM      5  C   UNL d   1     -49.024  28.415  34.535  0.00  0.00     0.156 A 
ATOM      6  S   UNL d   1     -49.693  28.805  34.242  0.00  0.00    -0.024 SA
ATOM      7  N   UNL d   1     -50.964  27.333  33.306  0.00  0.00    -0.127 NA
ATOM      8  N   UNL d   1     -50.896  28.134  33.480  0.00  0.00    -0.120 NA
ENDROOT
BRANCH   4   9
ATOM      9  C   UNL d   1     -50.150  26.133  33.538  0.00  0.00     0.040 A 
ATOM     10  C   UNL d   1     -50.782  25.608  33.489  0.00  0.00     0.029 A 
ATOM     11  C   UNL d   1     -50.641  24.805  33.431  0.00  0.00     0.116 A 
ATOM     12  C   UNL d   1     -49.865  24.514  33.420  0.00  0.00     0.116 A 
ATOM     13  C   UNL d   1     -49.230  25.046  33.468  0.00  0.00     0.026 A 
ATOM     14  C   UNL d   1     -49.377  25.853  33.527  0.00  0.00     0.005 A 
BRANCH  11  15
ATOM     15  O   UNL d   1     -51.270  24.269  33.382  0.00  0.00    -0.326 OA
ATOM     16  C   UNL d   1     -51.952  24.380  33.827  0.00  0.00     0.181 C 
ENDBRANCH  11  15
BRANCH  12  17
ATOM     17  O   UNL d   1     -49.711  23.700  33.361  0.00  0.00    -0.326 OA
ATOM     18  C   UNL d   1     -49.120  23.369  33.827  0.00  0.00     0.181 C 
ENDBRANCH  12  17
ENDBRANCH   4   9
BRANCH   5  19
ATOM     19  C   UNL d   1     -48.393  28.764  34.934  0.00  0.00     0.126 A 
ATOM     20  O   UNL d   1     -48.240  29.568  34.993  0.00  0.00    -0.298 OA
ATOM     21  C   UNL d   1     -47.555  29.666  35.441  0.00  0.00     0.134 A 
ATOM     22 BR   UNL d   1     -47.204  30.389  35.635  0.00  0.00    -0.022 Br
ATOM     23  C   UNL d   1     -47.282  28.923  35.661  0.00  0.00     0.034 A 
ATOM     24  C   UNL d   1     -47.802  28.360  35.346  0.00  0.00     0.029 A 
ENDBRANCH   5  19
TORSDOF 4
ENDMDL
MODEL 2
REMARK VINA RESULT:      69.1      2.588      5.928
REMARK  4 active torsions:
REMARK  status: ('A' for Active; 'I' for Inactive)
REMARK    1  A    between atoms: C_11  and  C_4 
REMARK    2  A    between atoms: C_9  and  C_5 
REMARK    3  A    between atoms: O_21  and  C_16 
REMARK    4  A    between atoms: O_22  and  C_17 
ROOT
ATOM      1  N   UNL d   1     -48.282  29.458  34.909  0.00  0.00    -0.185 N 
ATOM      2  C   UNL d   1     -48.081  28.835  35.419  0.00  0.00     0.219 A 
ATOM      3  N   UNL d   1     -48.807  29.169  34.350  0.00  0.00    -0.153 NA
ATOM      4  C   UNL d   1     -47.878  30.133  35.158  0.00  0.00     0.187 A 
ATOM      5  C   UNL d   1     -48.937  28.364  34.506  0.00  0.00     0.156 A 
ATOM      6  S   UNL d   1     -48.486  28.160  35.170  0.00  0.00    -0.024 SA
ATOM      7  N   UNL d   1     -47.428  29.926  35.820  0.00  0.00    -0.127 NA
ATOM      8  N   UNL d   1     -47.550  29.129  35.984  0.00  0.00    -0.120 NA
ENDROOT
BRANCH   4   9
ATOM      9  C   UNL d   1     -47.913  30.879  34.812  0.00  0.00     0.040 A 
ATOM     10  C   UNL d   1     -47.337  31.437  34.997  0.00  0.00     0.029 A 
ATOM     11  C   UNL d   1     -47.367  32.180  34.656  0.00  0.00     0.116 A 
ATOM     12  C   UNL d   1     -47.973  32.375  34.125  0.00  0.00     0.116 A 
ATOM     13  C   UNL d   1     -48.552  31.810  33.942  0.00  0.00     0.026 A 
ATOM     14  C   UNL d   1     -48.517  31.064  34.287  0.00  0.00     0.005 A 
BRANCH  11  15
ATOM     15  O   UNL d   1     -46.793  32.749  34.835  0.00  0.00    -0.326 OA
ATOM     16  C   UNL d   1     -46.313  32.667  35.497  0.00  0.00     0.181 C 
ENDBRANCH  11  15
BRANCH  12  17
ATOM     17  O   UNL d   1     -48.012  33.127  33.774  0.00  0.00    -0.326 OA
ATOM     18  C   UNL d   1     -48.661  33.317  33.306  0.00  0.00     0.181 C 
ENDBRANCH  12  17
ENDBRANCH   4   9
BRANCH   5  19
ATOM     19  C   UNL d   1     -49.428  27.858  34.078  0.00  0.00     0.126 A 
ATOM     20  O   UNL d   1     -49.342  27.046  34.003  0.00  0.00    -0.298 OA
ATOM     21  C   UNL d   1     -49.955  26.766  33.527  0.00  0.00     0.134 A 
ATOM     22 BR   UNL d   1     -50.077  25.978  33.310  0.00  0.00    -0.022 Br
ATOM     23  C   UNL d   1     -50.422  27.405  33.306  0.00  0.00     0.034 A 
ATOM     24  C   UNL d   1     -50.096  28.086  33.648  0.00  0.00     0.029 A 
ENDBRANCH   5  19
TORSDOF 4
ENDMDL
