MODEL 1
REMARK VINA RESULT:      -2.7      0.000      0.000
REMARK  3 active torsions:
REMARK  status: ('A' for Active; 'I' for Inactive)
REMARK    1  A    between atoms: C_9  and  N_1 
REMARK    2  A    between atoms: C_2  and  C_9 
REMARK    3  A    between atoms: S_13  and  C_5 
ROOT
ATOM      1  N   UNL d   1      31.131  16.708 -24.528  0.00  0.00    -0.265 N 
ATOM      2  C   UNL d   1      31.391  15.924 -24.462  0.00  0.00     0.296 A 
ATOM      3  S   UNL d   1      30.727  15.453 -24.343  0.00  0.00    -0.025 SA
ATOM      4  C   UNL d   1      30.317  16.726 -24.450  0.00  0.00     0.074 A 
ATOM      5  C   UNL d   1      30.059  15.953 -24.335  0.00  0.00     0.050 A 
ATOM      6  O   UNL d   1      32.171  15.667 -24.508  0.00  0.00    -0.259 OA
ATOM      7  C   UNL d   1      29.764  17.345 -24.469  0.00  0.00     0.018 A 
ATOM      8  C   UNL d   1      29.253  15.793 -24.238  0.00  0.00     0.008 A 
ATOM      9  C   UNL d   1      28.958  17.190 -24.372  0.00  0.00     0.002 A 
ATOM     10  C   UNL d   1      28.710  16.405 -24.256  0.00  0.00     0.001 A 
ENDROOT
BRANCH   1  11
ATOM     11  C   UNL d   1      31.612  17.368 -24.652  0.00  0.00     0.123 C 
BRANCH  11  12
ATOM     12  C   UNL d   1      32.006  17.716 -24.026  0.00  0.00     0.189 A 
ATOM     13  N   UNL d   1      32.420  18.413 -24.139  0.00  0.00    -0.265 N 
ATOM     14  C   UNL d   1      32.755  18.629 -23.420  0.00  0.00     0.197 A 
ATOM     15  C   UNL d   1      32.496  18.837 -24.844  0.00  0.00     0.103 C 
ATOM     16  N   UNL d   1      32.548  18.063 -22.861  0.00  0.00    -0.122 NA
ATOM     17  N   UNL d   1      32.084  17.498 -23.239  0.00  0.00    -0.126 NA
BRANCH  14  18
ATOM     18  S   UNL d   1      33.219  19.296 -23.280  0.00  0.00    -0.074 SA
ATOM     19  C   UNL d   1      33.241  19.644 -22.531  0.00  0.00     0.077 C 
ENDBRANCH  14  18
ENDBRANCH  11  12
ENDBRANCH   1  11
TORSDOF 3
ENDMDL
MODEL 2
REMARK VINA RESULT:      -2.5      1.541      4.137
REMARK  3 active torsions:
REMARK  status: ('A' for Active; 'I' for Inactive)
REMARK    1  A    between atoms: C_9  and  N_1 
REMARK    2  A    between atoms: C_2  and  C_9 
REMARK    3  A    between atoms: S_13  and  C_5 
ROOT
ATOM      1  N   UNL d   1      33.238  18.893 -23.436  0.00  0.00    -0.265 N 
ATOM      2  C   UNL d   1      33.238  19.369 -24.114  0.00  0.00     0.296 A 
ATOM      3  S   UNL d   1      33.238  20.153 -23.865  0.00  0.00    -0.025 SA
ATOM      4  C   UNL d   1      33.238  19.373 -22.774  0.00  0.00     0.074 A 
ATOM      5  C   UNL d   1      33.238  20.155 -23.030  0.00  0.00     0.050 A 
ATOM      6  O   UNL d   1      33.237  19.103 -24.892  0.00  0.00    -0.259 OA
ATOM      7  C   UNL d   1      33.238  19.208 -21.960  0.00  0.00     0.018 A 
ATOM      8  C   UNL d   1      33.238  20.774 -22.482  0.00  0.00     0.008 A 
ATOM      9  C   UNL d   1      33.239  19.824 -21.408  0.00  0.00     0.002 A 
ATOM     10  C   UNL d   1      33.239  20.609 -21.680  0.00  0.00     0.001 A 
ENDROOT
BRANCH   1  11
ATOM     11  C   UNL d   1      33.238  18.067 -23.425  0.00  0.00     0.123 C 
BRANCH  11  12
ATOM     12  C   UNL d   1      32.544  17.652 -23.542  0.00  0.00     0.189 A 
ATOM     13  N   UNL d   1      32.536  16.837 -23.465  0.00  0.00    -0.265 N 
ATOM     14  C   UNL d   1      31.770  16.575 -23.612  0.00  0.00     0.197 A 
ATOM     15  C   UNL d   1      33.175  16.350 -23.274  0.00  0.00     0.103 C 
ATOM     16  N   UNL d   1      31.304  17.231 -23.780  0.00  0.00    -0.122 NA
ATOM     17  N   UNL d   1      31.786  17.897 -23.736  0.00  0.00    -0.126 NA
BRANCH  14  18
ATOM     18  S   UNL d   1      31.512  15.792 -23.595  0.00  0.00    -0.074 SA
ATOM     19  C   UNL d   1      30.719  15.608 -23.736  0.00  0.00     0.077 C 
ENDBRANCH  14  18
ENDBRANCH  11  12
ENDBRANCH   1  11
TORSDOF 3
ENDMDL
MODEL 3
REMARK VINA RESULT:      -2.5      1.400      3.674
REMARK  3 active torsions:
REMARK  status: ('A' for Active; 'I' for Inactive)
REMARK    1  A    between atoms: C_9  and  N_1 
REMARK    2  A    between atoms: C_2  and  C_9 
REMARK    3  A    between atoms: S_13  and  C_5 
ROOT
ATOM      1  N   UNL d   1      31.853  16.619 -24.100  0.00  0.00    -0.265 N 
ATOM      2  C   UNL d   1      32.174  16.240 -24.763  0.00  0.00     0.296 A 
ATOM      3  S   UNL d   1      32.726  16.751 -25.097  0.00  0.00    -0.025 SA
ATOM      4  C   UNL d   1      32.200  17.356 -24.021  0.00  0.00     0.074 A 
ATOM      5  C   UNL d   1      32.742  17.445 -24.634  0.00  0.00     0.050 A 
ATOM      6  O   UNL d   1      31.975  15.490 -25.035  0.00  0.00    -0.259 OA
ATOM      7  C   UNL d   1      32.099  17.968 -23.470  0.00  0.00     0.018 A 
ATOM      8  C   UNL d   1      33.184  18.142 -24.702  0.00  0.00     0.008 A 
ATOM      9  C   UNL d   1      32.539  18.666 -23.534  0.00  0.00     0.002 A 
ATOM     10  C   UNL d   1      33.082  18.744 -24.157  0.00  0.00     0.001 A 
ENDROOT
BRANCH   1  11
ATOM     11  C   UNL d   1      31.276  16.309 -23.597  0.00  0.00     0.123 C 
BRANCH  11  12
ATOM     12  C   UNL d   1      30.491  16.303 -23.822  0.00  0.00     0.189 A 
ATOM     13  N   UNL d   1      29.941  15.889 -23.378  0.00  0.00    -0.265 N 
ATOM     14  C   UNL d   1      29.205  15.983 -23.735  0.00  0.00     0.197 A 
ATOM     15  C   UNL d   1      30.083  15.453 -22.693  0.00  0.00     0.103 C 
ATOM     16  N   UNL d   1      29.302  16.455 -24.401  0.00  0.00    -0.122 NA
ATOM     17  N   UNL d   1      30.100  16.652 -24.452  0.00  0.00    -0.126 NA
BRANCH  14  18
ATOM     18  S   UNL d   1      28.493  15.660 -23.473  0.00  0.00    -0.074 SA
ATOM     19  C   UNL d   1      27.858  15.565 -23.993  0.00  0.00     0.077 C 
ENDBRANCH  14  18
ENDBRANCH  11  12
ENDBRANCH   1  11
TORSDOF 3
ENDMDL
MODEL 4
REMARK VINA RESULT:      -1.7      1.077      1.470
REMARK  3 active torsions:
REMARK  status: ('A' for Active; 'I' for Inactive)
REMARK    1  A    between atoms: C_9  and  N_1 
REMARK    2  A    between atoms: C_2  and  C_9 
REMARK    3  A    between atoms: S_13  and  C_5 
ROOT
ATOM      1  N   UNL d   1      32.132  17.712 -24.229  0.00  0.00    -0.265 N 
ATOM      2  C   UNL d   1      32.487  17.005 -23.983  0.00  0.00     0.296 A 
ATOM      3  S   UNL d   1      31.949  16.397 -24.119  0.00  0.00    -0.025 SA
ATOM      4  C   UNL d   1      31.383  17.548 -24.514  0.00  0.00     0.074 A 
ATOM      5  C   UNL d   1      31.262  16.736 -24.450  0.00  0.00     0.050 A 
ATOM      6  O   UNL d   1      33.241  16.927 -23.662  0.00  0.00    -0.259 OA
ATOM      7  C   UNL d   1      30.784  18.029 -24.829  0.00  0.00     0.018 A 
ATOM      8  C   UNL d   1      30.547  16.400 -24.697  0.00  0.00     0.008 A 
ATOM      9  C   UNL d   1      30.068  17.698 -25.077  0.00  0.00     0.002 A 
ATOM     10  C   UNL d   1      29.958  16.877 -25.007  0.00  0.00     0.001 A 
ENDROOT
BRANCH   1  11
ATOM     11  C   UNL d   1      32.474  18.463 -24.194  0.00  0.00     0.123 C 
BRANCH  11  12
ATOM     12  C   UNL d   1      32.605  18.824 -23.473  0.00  0.00     0.189 A 
ATOM     13  N   UNL d   1      32.895  19.589 -23.446  0.00  0.00    -0.265 N 
ATOM     14  C   UNL d   1      32.969  19.804 -22.655  0.00  0.00     0.197 A 
ATOM     15  C   UNL d   1      33.083  20.072 -24.088  0.00  0.00     0.103 C 
ATOM     16  N   UNL d   1      32.725  19.169 -22.193  0.00  0.00    -0.122 NA
ATOM     17  N   UNL d   1      32.500  18.563 -22.703  0.00  0.00    -0.126 NA
BRANCH  14  18
ATOM     18  S   UNL d   1      33.241  20.529 -22.370  0.00  0.00    -0.074 SA
ATOM     19  C   UNL d   1      33.114  20.747 -21.584  0.00  0.00     0.077 C 
ENDBRANCH  14  18
ENDBRANCH  11  12
ENDBRANCH   1  11
TORSDOF 3
ENDMDL
MODEL 5
REMARK VINA RESULT:      -1.7      1.957      2.460
REMARK  3 active torsions:
REMARK  status: ('A' for Active; 'I' for Inactive)
REMARK    1  A    between atoms: C_9  and  N_1 
REMARK    2  A    between atoms: C_2  and  C_9 
REMARK    3  A    between atoms: S_13  and  C_5 
ROOT
ATOM      1  N   UNL d   1      29.604  16.911 -24.484  0.00  0.00    -0.265 N 
ATOM      2  C   UNL d   1      29.379  17.705 -24.554  0.00  0.00     0.296 A 
ATOM      3  S   UNL d   1      28.645  17.787 -24.191  0.00  0.00    -0.025 SA
ATOM      4  C   UNL d   1      29.018  16.503 -24.083  0.00  0.00     0.074 A 
ATOM      5  C   UNL d   1      28.421  17.039 -23.898  0.00  0.00     0.050 A 
ATOM      6  O   UNL d   1      29.813  18.300 -24.920  0.00  0.00    -0.259 OA
ATOM      7  C   UNL d   1      28.942  15.709 -23.855  0.00  0.00     0.018 A 
ATOM      8  C   UNL d   1      27.747  16.787 -23.488  0.00  0.00     0.008 A 
ATOM      9  C   UNL d   1      28.271  15.453 -23.445  0.00  0.00     0.002 A 
ATOM     10  C   UNL d   1      27.675  16.003 -23.265  0.00  0.00     0.001 A 
ENDROOT
BRANCH   1  11
ATOM     11  C   UNL d   1      30.304  16.579 -24.770  0.00  0.00     0.123 C 
BRANCH  11  12
ATOM     12  C   UNL d   1      30.979  16.579 -24.310  0.00  0.00     0.189 A 
ATOM     13  N   UNL d   1      31.587  16.056 -24.477  0.00  0.00    -0.265 N 
ATOM     14  C   UNL d   1      32.188  16.183 -23.928  0.00  0.00     0.197 A 
ATOM     15  C   UNL d   1      31.609  15.497 -25.083  0.00  0.00     0.103 C 
ATOM     16  N   UNL d   1      31.949  16.786 -23.422  0.00  0.00    -0.122 NA
ATOM     17  N   UNL d   1      31.200  17.029 -23.662  0.00  0.00    -0.126 NA
BRANCH  14  18
ATOM     18  S   UNL d   1      32.905  15.778 -23.890  0.00  0.00    -0.074 SA
ATOM     19  C   UNL d   1      33.241  15.587 -23.160  0.00  0.00     0.077 C 
ENDBRANCH  14  18
ENDBRANCH  11  12
ENDBRANCH   1  11
TORSDOF 3
ENDMDL
MODEL 6
REMARK VINA RESULT:      -1.3      3.465      4.747
REMARK  3 active torsions:
REMARK  status: ('A' for Active; 'I' for Inactive)
REMARK    1  A    between atoms: C_9  and  N_1 
REMARK    2  A    between atoms: C_2  and  C_9 
REMARK    3  A    between atoms: S_13  and  C_5 
ROOT
ATOM      1  N   UNL d   1      33.188  20.331 -22.340  0.00  0.00    -0.265 N 
ATOM      2  C   UNL d   1      33.192  19.790 -21.713  0.00  0.00     0.296 A 
ATOM      3  S   UNL d   1      33.137  19.036 -22.036  0.00  0.00    -0.025 SA
ATOM      4  C   UNL d   1      33.132  19.920 -23.045  0.00  0.00     0.074 A 
ATOM      5  C   UNL d   1      33.100  19.118 -22.866  0.00  0.00     0.050 A 
ATOM      6  O   UNL d   1      33.241  19.977 -20.913  0.00  0.00    -0.259 OA
ATOM      7  C   UNL d   1      33.106  20.166 -23.838  0.00  0.00     0.018 A 
ATOM      8  C   UNL d   1      33.041  18.557 -23.472  0.00  0.00     0.008 A 
ATOM      9  C   UNL d   1      33.047  19.609 -24.447  0.00  0.00     0.002 A 
ATOM     10  C   UNL d   1      33.015  18.802 -24.253  0.00  0.00     0.001 A 
ENDROOT
BRANCH   1  11
ATOM     11  C   UNL d   1      33.234  21.153 -22.270  0.00  0.00     0.123 C 
BRANCH  11  12
ATOM     12  C   UNL d   1      32.708  21.557 -21.795  0.00  0.00     0.189 A 
ATOM     13  N   UNL d   1      32.714  22.376 -21.781  0.00  0.00    -0.265 N 
ATOM     14  C   UNL d   1      32.130  22.626 -21.258  0.00  0.00     0.197 A 
ATOM     15  C   UNL d   1      33.212  22.876 -22.209  0.00  0.00     0.103 C 
ATOM     16  N   UNL d   1      31.762  21.959 -20.948  0.00  0.00    -0.122 NA
ATOM     17  N   UNL d   1      32.122  21.299 -21.283  0.00  0.00    -0.126 NA
BRANCH  14  18
ATOM     18  S   UNL d   1      31.943  23.407 -21.074  0.00  0.00    -0.074 SA
ATOM     19  C   UNL d   1      31.656  23.606 -20.325  0.00  0.00     0.077 C 
ENDBRANCH  14  18
ENDBRANCH  11  12
ENDBRANCH   1  11
TORSDOF 3
ENDMDL
MODEL 7
REMARK VINA RESULT:      -0.1      1.096      3.593
REMARK  3 active torsions:
REMARK  status: ('A' for Active; 'I' for Inactive)
REMARK    1  A    between atoms: C_9  and  N_1 
REMARK    2  A    between atoms: C_2  and  C_9 
REMARK    3  A    between atoms: S_13  and  C_5 
ROOT
ATOM      1  N   UNL d   1      32.443  17.400 -23.634  0.00  0.00    -0.265 N 
ATOM      2  C   UNL d   1      32.871  17.092 -22.995  0.00  0.00     0.296 A 
ATOM      3  S   UNL d   1      33.241  17.723 -22.618  0.00  0.00    -0.025 SA
ATOM      4  C   UNL d   1      32.543  18.212 -23.654  0.00  0.00     0.074 A 
ATOM      5  C   UNL d   1      33.036  18.420 -23.029  0.00  0.00     0.050 A 
ATOM      6  O   UNL d   1      32.917  16.299 -22.780  0.00  0.00    -0.259 OA
ATOM      7  C   UNL d   1      32.252  18.801 -24.161  0.00  0.00     0.018 A 
ATOM      8  C   UNL d   1      33.241  19.212 -22.905  0.00  0.00     0.008 A 
ATOM      9  C   UNL d   1      32.454  19.594 -24.041  0.00  0.00     0.002 A 
ATOM     10  C   UNL d   1      32.953  19.791 -23.406  0.00  0.00     0.001 A 
ENDROOT
BRANCH   1  11
ATOM     11  C   UNL d   1      31.986  16.964 -24.166  0.00  0.00     0.123 C 
BRANCH  11  12
ATOM     12  C   UNL d   1      31.318  16.569 -23.910  0.00  0.00     0.189 A 
ATOM     13  N   UNL d   1      30.639  16.575 -24.368  0.00  0.00    -0.265 N 
ATOM     14  C   UNL d   1      30.064  16.137 -23.975  0.00  0.00     0.197 A 
ATOM     15  C   UNL d   1      30.535  16.949 -25.096  0.00  0.00     0.103 C 
ATOM     16  N   UNL d   1      30.390  15.860 -23.272  0.00  0.00    -0.122 NA
ATOM     17  N   UNL d   1      31.167  16.129 -23.235  0.00  0.00    -0.126 NA
BRANCH  14  18
ATOM     18  S   UNL d   1      29.295  15.998 -24.237  0.00  0.00    -0.074 SA
ATOM     19  C   UNL d   1      28.745  15.623 -23.747  0.00  0.00     0.077 C 
ENDBRANCH  14  18
ENDBRANCH  11  12
ENDBRANCH   1  11
TORSDOF 3
ENDMDL
