MODEL 1
REMARK VINA RESULT:      47.9      0.000      0.000
REMARK  5 active torsions:
REMARK  status: ('A' for Active; 'I' for Inactive)
REMARK    1  A    between atoms: S_6  and  C_2 
REMARK    2  A    between atoms: C_16  and  S_6 
REMARK    3  A    between atoms: C_8  and  C_16 
REMARK       I    between atoms: N_13  and  C_8 
REMARK    4  A    between atoms: C_19  and  N_13 
REMARK    5  A    between atoms: C_18  and  C_19 
ROOT
ATOM      1  C   UNL d   1     -49.201  27.721  34.214  0.00  0.00     0.286 C 
ATOM      2  N   UNL d   1     -49.026  28.454  34.533  0.00  0.00    -0.206 NA
ATOM      3  O   UNL d   1     -48.679  27.093  34.315  0.00  0.00    -0.265 OA
ENDROOT
BRANCH   1   4
ATOM      4  C   UNL d   1     -49.900  27.604  33.790  0.00  0.00     0.098 C 
BRANCH   4   5
ATOM      5  S   UNL d   1     -49.985  26.937  33.308  0.00  0.00    -0.080 SA
BRANCH   5   6
ATOM      6  C   UNL d   1     -50.699  26.527  33.308  0.00  0.00     0.049 A 
ATOM      7  C   UNL d   1     -51.457  26.861  33.307  0.00  0.00     0.087 A 
ATOM      8  N   UNL d   1     -52.012  26.249  33.307  0.00  0.00    -0.302 N 
ATOM      9  C   UNL d   1     -51.594  25.534  33.306  0.00  0.00     0.065 A 
ATOM     10  C   UNL d   1     -52.831  26.325  33.306  0.00  0.00     0.100 C 
ATOM     11  C   UNL d   1     -50.784  25.709  33.307  0.00  0.00     0.024 A 
ATOM     12  C   UNL d   1     -51.850  24.743  33.306  0.00  0.00     0.018 A 
ATOM     13  C   UNL d   1     -50.231  25.094  33.307  0.00  0.00     0.002 A 
ATOM     14  C   UNL d   1     -50.487  24.311  33.306  0.00  0.00     0.000 A 
ATOM     15  C   UNL d   1     -51.297  24.136  33.306  0.00  0.00     0.002 A 
ENDBRANCH   5   6
ENDBRANCH   4   5
ENDBRANCH   1   4
BRANCH   2  16
ATOM     16  C   UNL d   1     -48.334  28.566  34.951  0.00  0.00     0.102 C 
BRANCH  16  17
ATOM     17  C   UNL d   1     -48.044  29.311  35.134  0.00  0.00     0.021 A 
ATOM     18  C   UNL d   1     -48.216  29.941  34.626  0.00  0.00     0.028 A 
ATOM     19  C   UNL d   1     -47.923  30.705  34.807  0.00  0.00     0.119 A 
ATOM     20  O   UNL d   1     -47.990  31.420  34.434  0.00  0.00    -0.300 OA
ATOM     21  C   UNL d   1     -47.470  30.808  35.486  0.00  0.00     0.119 A 
ATOM     22  C   UNL d   1     -47.585  31.981  34.868  0.00  0.00     0.304 A 
ATOM     23  O   UNL d   1     -47.258  31.605  35.525  0.00  0.00    -0.300 OA
ATOM     24  C   UNL d   1     -47.306  30.163  35.986  0.00  0.00     0.026 A 
ATOM     25  C   UNL d   1     -47.600  29.422  35.796  0.00  0.00     0.004 A 
ENDBRANCH  16  17
ENDBRANCH   2  16
TORSDOF 5
ENDMDL
