MODEL 1
REMARK VINA RESULT:      12.9      0.000      0.000
REMARK  2 active torsions:
REMARK  status: ('A' for Active; 'I' for Inactive)
REMARK    1  A    between atoms: C_4  and  C_2 
REMARK    2  A    between atoms: C_8  and  C_3 
ROOT
ATOM      1  S   UNL d   1      44.999 -14.814  37.040  0.00  0.00    -0.081 SA
ATOM      2  C   UNL d   1      44.720 -15.492  36.659  0.00  0.00     0.031 A 
ATOM      3  C   UNL d   1      45.835 -14.809  36.983  0.00  0.00     0.094 A 
ATOM      4  C   UNL d   1      45.381 -15.914  36.362  0.00  0.00     0.007 A 
ATOM      5  C   UNL d   1      46.065 -15.486  36.566  0.00  0.00     0.013 A 
ENDROOT
BRANCH   2   6
ATOM      6  C   UNL d   1      43.937 -15.717  36.582  0.00  0.00     0.025 A 
ATOM      7  C   UNL d   1      43.333 -15.163  36.677  0.00  0.00     0.005 A 
ATOM      8  C   UNL d   1      42.550 -15.388  36.600  0.00  0.00     0.038 A 
ATOM      9  C   UNL d   1      41.950 -14.837  36.695  0.00  0.00     0.003 C 
ATOM     10  C   UNL d   1      42.364 -16.176  36.426  0.00  0.00     0.184 A 
ATOM     11  N   UNL d   1      42.973 -16.732  36.330  0.00  0.00    -0.224 NA
ATOM     12  N   UNL d   1      41.578 -16.405  36.348  0.00  0.00    -0.127 N 
ATOM     13  C   UNL d   1      43.754 -16.492  36.410  0.00  0.00     0.101 A 
ENDBRANCH   2   6
BRANCH   3  14
ATOM     14  C   UNL d   1      46.329 -14.228  37.291  0.00  0.00     0.217 C 
ATOM     15  O   UNL d   1      46.647 -13.653  36.781  0.00  0.00    -0.643 OA
ATOM     16  O   UNL d   1      46.511 -14.206  38.080  0.00  0.00    -0.643 OA
ENDBRANCH   3  14
TORSDOF 2
ENDMDL
MODEL 2
REMARK VINA RESULT:      13.2      7.707      8.357
REMARK  2 active torsions:
REMARK  status: ('A' for Active; 'I' for Inactive)
REMARK    1  A    between atoms: C_4  and  C_2 
REMARK    2  A    between atoms: C_8  and  C_3 
ROOT
ATOM      1  S   UNL d   1      46.072 -15.910  44.256  0.00  0.00    -0.081 SA
ATOM      2  C   UNL d   1      45.558 -15.339  44.561  0.00  0.00     0.031 A 
ATOM      3  C   UNL d   1      45.770 -16.665  44.457  0.00  0.00     0.094 A 
ATOM      4  C   UNL d   1      44.934 -15.736  44.955  0.00  0.00     0.007 A 
ATOM      5  C   UNL d   1      45.072 -16.553  44.886  0.00  0.00     0.013 A 
ENDROOT
BRANCH   2   6
ATOM      6  C   UNL d   1      45.640 -14.528  44.494  0.00  0.00     0.025 A 
ATOM      7  C   UNL d   1      45.169 -14.104  43.965  0.00  0.00     0.005 A 
ATOM      8  C   UNL d   1      45.250 -13.293  43.898  0.00  0.00     0.038 A 
ATOM      9  C   UNL d   1      44.783 -12.873  43.372  0.00  0.00     0.003 C 
ATOM     10  C   UNL d   1      45.808 -12.896  44.363  0.00  0.00     0.184 A 
ATOM     11  N   UNL d   1      46.281 -13.323  44.895  0.00  0.00    -0.224 NA
ATOM     12  N   UNL d   1      45.892 -12.080  44.298  0.00  0.00    -0.127 N 
ATOM     13  C   UNL d   1      46.188 -14.137  44.952  0.00  0.00     0.101 A 
ENDBRANCH   2   6
BRANCH   3  14
ATOM     14  C   UNL d   1      46.117 -17.384  44.258  0.00  0.00     0.217 C 
ATOM     15  O   UNL d   1      46.328 -17.915  44.863  0.00  0.00    -0.643 OA
ATOM     16  O   UNL d   1      46.258 -17.583  43.485  0.00  0.00    -0.643 OA
ENDBRANCH   3  14
TORSDOF 2
ENDMDL
