MODEL 1
REMARK VINA RESULT:      22.2      0.000      0.000
REMARK  3 active torsions:
REMARK  status: ('A' for Active; 'I' for Inactive)
REMARK    1  A    between atoms: S_3  and  C_1 
REMARK    2  A    between atoms: C_7  and  N_2 
REMARK    3  A    between atoms: C_11  and  C_7 
ROOT
ATOM      1  C   UNL d   1      45.952 -18.806  42.423  0.00  0.00     0.255 A 
ATOM      2  N   UNL d   1      46.288 -18.414  43.046  0.00  0.00    -0.278 N 
ATOM      3  N   UNL d   1      45.801 -19.571  42.628  0.00  0.00    -0.215 NA
ATOM      4  C   UNL d   1      46.353 -18.956  43.680  0.00  0.00     0.084 A 
ATOM      5  C   UNL d   1      46.050 -19.678  43.419  0.00  0.00     0.100 A 
ATOM      6  C   UNL d   1      46.646 -18.884  44.447  0.00  0.00     0.019 A 
ATOM      7  C   UNL d   1      46.039 -20.328  43.926  0.00  0.00     0.021 A 
ATOM      8  C   UNL d   1      46.635 -19.536  44.955  0.00  0.00     0.002 A 
ATOM      9  C   UNL d   1      46.332 -20.257  44.694  0.00  0.00     0.002 A 
ENDROOT
BRANCH   2  10
ATOM     10  C   UNL d   1      46.530 -17.620  43.075  0.00  0.00     0.082 C 
BRANCH  10  11
ATOM     11  C   UNL d   1      46.177 -17.098  43.597  0.00  0.00     0.018 A 
ATOM     12  C   UNL d   1      46.488 -16.984  44.359  0.00  0.00     0.002 A 
ATOM     13  C   UNL d   1      46.137 -16.463  44.885  0.00  0.00     0.000 A 
ATOM     14  C   UNL d   1      45.474 -16.047  44.665  0.00  0.00     0.000 A 
ATOM     15  C   UNL d   1      45.159 -16.159  43.901  0.00  0.00     0.000 A 
ATOM     16  C   UNL d   1      45.512 -16.681  43.379  0.00  0.00     0.002 A 
ENDBRANCH  10  11
ENDBRANCH   2  10
BRANCH   1  17
ATOM     17  S   UNL d   1      45.789 -18.471  41.686  0.00  0.00     0.174 S 
ATOM     18  O   UNL d   1      44.990 -18.422  41.886  0.00  0.00    -0.589 OA
ATOM     19  O   UNL d   1      45.626 -18.136  40.950  0.00  0.00    -0.589 OA
ATOM     20  O   UNL d   1      46.589 -18.520  41.487  0.00  0.00    -0.589 OA
ENDBRANCH   1  17
TORSDOF 3
ENDMDL
MODEL 2
REMARK VINA RESULT:      22.8      1.540      2.332
REMARK  3 active torsions:
REMARK  status: ('A' for Active; 'I' for Inactive)
REMARK    1  A    between atoms: S_3  and  C_1 
REMARK    2  A    between atoms: C_7  and  N_2 
REMARK    3  A    between atoms: C_11  and  C_7 
ROOT
ATOM      1  C   UNL d   1      45.969 -19.591  43.185  0.00  0.00     0.255 A 
ATOM      2  N   UNL d   1      46.335 -18.876  43.083  0.00  0.00    -0.278 N 
ATOM      3  N   UNL d   1      45.750 -19.892  42.470  0.00  0.00    -0.215 NA
ATOM      4  C   UNL d   1      46.349 -18.714  42.263  0.00  0.00     0.084 A 
ATOM      5  C   UNL d   1      45.984 -19.348  41.880  0.00  0.00     0.100 A 
ATOM      6  C   UNL d   1      46.643 -18.081  41.824  0.00  0.00     0.019 A 
ATOM      7  C   UNL d   1      45.913 -19.348  41.059  0.00  0.00     0.021 A 
ATOM      8  C   UNL d   1      46.572 -18.081  41.002  0.00  0.00     0.002 A 
ATOM      9  C   UNL d   1      46.207 -18.714  40.619  0.00  0.00     0.002 A 
ENDROOT
BRANCH   2  10
ATOM     10  C   UNL d   1      46.647 -18.377  43.670  0.00  0.00     0.082 C 
BRANCH  10  11
ATOM     11  C   UNL d   1      46.231 -17.717  43.915  0.00  0.00     0.018 A 
ATOM     12  C   UNL d   1      45.925 -17.670  44.686  0.00  0.00     0.002 A 
ATOM     13  C   UNL d   1      45.508 -17.012  44.936  0.00  0.00     0.000 A 
ATOM     14  C   UNL d   1      45.387 -16.389  44.427  0.00  0.00     0.000 A 
ATOM     15  C   UNL d   1      45.693 -16.432  43.653  0.00  0.00     0.000 A 
ATOM     16  C   UNL d   1      46.109 -17.092  43.407  0.00  0.00     0.002 A 
ENDBRANCH  10  11
ENDBRANCH   2  10
BRANCH   1  17
ATOM     17  S   UNL d   1      45.840 -19.957  43.914  0.00  0.00     0.174 S 
ATOM     18  O   UNL d   1      46.643 -19.888  44.090  0.00  0.00    -0.589 OA
ATOM     19  O   UNL d   1      45.711 -20.322  44.642  0.00  0.00    -0.589 OA
ATOM     20  O   UNL d   1      45.036 -20.025  43.737  0.00  0.00    -0.589 OA
ENDBRANCH   1  17
TORSDOF 3
ENDMDL
