MODEL 1
REMARK VINA RESULT:      21.3      0.000      0.000
REMARK  2 active torsions:
REMARK  status: ('A' for Active; 'I' for Inactive)
REMARK    1  A    between atoms: C_8  and  C_6 
REMARK    2  A    between atoms: C_9  and  C_8 
ROOT
ATOM      1  N   UNL d   1      24.606  12.004  -2.271  0.00  0.00    -0.207 NA
ATOM      2  N   UNL d   1      23.227  12.746  -2.855  0.00  0.00    -0.240 NA
ATOM      3  C   UNL d   1      24.311  12.108  -3.031  0.00  0.00     0.297 A 
ATOM      4  C   UNL d   1      24.287  12.249  -1.553  0.00  0.00     0.086 A 
ATOM      5  C   UNL d   1      23.106  12.885  -2.054  0.00  0.00     0.083 A 
ATOM      6  C   UNL d   1      23.851  12.356  -3.215  0.00  0.00     0.144 A 
ATOM      7  C   UNL d   1      23.584  12.666  -1.416  0.00  0.00     0.035 A 
ATOM      8  O   UNL d   1      24.767  11.798  -3.577  0.00  0.00    -0.264 OA
ATOM      9  C   UNL d   1      23.362  12.860  -0.649  0.00  0.00     0.003 A 
ATOM     10  C   UNL d   1      22.408  13.298  -1.922  0.00  0.00     0.019 A 
ATOM     11  C   UNL d   1      24.768  12.029  -0.912  0.00  0.00     0.019 A 
ATOM     12  C   UNL d   1      24.541  12.226  -0.139  0.00  0.00     0.002 A 
ATOM     13  C   UNL d   1      22.186  13.492  -1.155  0.00  0.00     0.002 A 
ATOM     14  C   UNL d   1      22.664  13.273  -0.517  0.00  0.00     0.000 A 
ATOM     15  C   UNL d   1      23.838  12.641  -0.014  0.00  0.00     0.000 A 
ENDROOT
BRANCH   6  16
ATOM     16  C   UNL d   1      24.075  12.160  -3.985  0.00  0.00     0.088 C 
BRANCH  16  17
ATOM     17  C   UNL d   1      24.098  12.741  -4.585  0.00  0.00     0.299 C 
ATOM     18  O   UNL d   1      23.478  13.276  -4.648  0.00  0.00    -0.264 OA
ATOM     19  N   UNL d   1      24.737  12.780  -5.112  0.00  0.00    -0.102 N 
ENDBRANCH  16  17
ENDBRANCH   6  16
TORSDOF 2
ENDMDL
