MODEL 1
REMARK VINA RESULT:      -2.3      0.000      0.000
REMARK  4 active torsions:
REMARK  status: ('A' for Active; 'I' for Inactive)
REMARK    1  A    between atoms: C_6  and  N_1 
REMARK    2  A    between atoms: C_9  and  C_2 
REMARK    3  A    between atoms: O_14  and  C_10 
REMARK    4  A    between atoms: C_15  and  O_14 
ROOT
ATOM      1  C   UNL d   1      32.483  17.240 -23.926  0.00  0.00     0.086 A 
ATOM      2  C   UNL d   1      32.241  17.968 -24.222  0.00  0.00     0.021 A 
ATOM      3  C   UNL d   1      32.975  17.205 -23.269  0.00  0.00     0.021 A 
ATOM      4  C   UNL d   1      32.985  18.635 -23.203  0.00  0.00     0.100 A 
ATOM      5  C   UNL d   1      33.227  17.903 -22.908  0.00  0.00     0.026 A 
ATOM      6  C   UNL d   1      32.492  18.666 -23.861  0.00  0.00     0.026 A 
ENDROOT
BRANCH   1   7
ATOM      7  N   UNL d   1      32.231  16.542 -24.287  0.00  0.00    -0.191 N 
ATOM      8  C   UNL d   1      31.555  16.113 -24.099  0.00  0.00     0.200 A 
ATOM      9  N   UNL d   1      31.518  15.453 -24.598  0.00  0.00    -0.107 NA
ATOM     10  N   UNL d   1      32.164  15.474 -25.089  0.00  0.00    -0.022 NA
ATOM     11  N   UNL d   1      32.610  16.147 -24.900  0.00  0.00    -0.039 NA
BRANCH   8  12
ATOM     12  C   UNL d   1      30.998  16.304 -23.509  0.00  0.00     0.109 C 
ATOM     13 CL   UNL d   1      30.319  15.908 -23.241  0.00  0.00    -0.078 Cl
ENDBRANCH   8  12
ENDBRANCH   1   7
BRANCH   4  14
ATOM     14  O   UNL d   1      33.236  19.330 -22.844  0.00  0.00    -0.305 OA
BRANCH  14  15
ATOM     15  C   UNL d   1      32.900  19.569 -22.130  0.00  0.00     0.123 C 
ATOM     16  C   UNL d   1      33.126  20.290 -21.786  0.00  0.00     0.029 C 
ENDBRANCH  14  15
ENDBRANCH   4  14
TORSDOF 4
ENDMDL
MODEL 2
REMARK VINA RESULT:      -2.3      1.914      2.507
REMARK  4 active torsions:
REMARK  status: ('A' for Active; 'I' for Inactive)
REMARK    1  A    between atoms: C_6  and  N_1 
REMARK    2  A    between atoms: C_9  and  C_2 
REMARK    3  A    between atoms: O_14  and  C_10 
REMARK    4  A    between atoms: C_15  and  O_14 
ROOT
ATOM      1  C   UNL d   1      30.258  16.673 -24.392  0.00  0.00     0.086 A 
ATOM      2  C   UNL d   1      30.483  17.317 -24.852  0.00  0.00     0.021 A 
ATOM      3  C   UNL d   1      30.739  16.417 -23.777  0.00  0.00     0.021 A 
ATOM      4  C   UNL d   1      31.678  17.454 -24.084  0.00  0.00     0.100 A 
ATOM      5  C   UNL d   1      31.450  16.808 -23.623  0.00  0.00     0.026 A 
ATOM      6  C   UNL d   1      31.193  17.707 -24.698  0.00  0.00     0.026 A 
ENDROOT
BRANCH   1   7
ATOM      7  N   UNL d   1      29.548  16.282 -24.546  0.00  0.00    -0.191 N 
ATOM      8  C   UNL d   1      28.826  16.420 -24.176  0.00  0.00     0.200 A 
ATOM      9  N   UNL d   1      28.264  15.905 -24.501  0.00  0.00    -0.107 NA
ATOM     10  N   UNL d   1      28.635  15.454 -25.065  0.00  0.00    -0.022 NA
ATOM     11  N   UNL d   1      29.431  15.684 -25.097  0.00  0.00    -0.039 NA
BRANCH   8  12
ATOM     12  C   UNL d   1      28.678  16.980 -23.577  0.00  0.00     0.109 C 
ATOM     13 CL   UNL d   1      27.974  17.233 -23.219  0.00  0.00    -0.078 Cl
ENDBRANCH   8  12
ENDBRANCH   1   7
BRANCH   4  14
ATOM     14  O   UNL d   1      32.385  17.843 -23.930  0.00  0.00    -0.305 OA
BRANCH  14  15
ATOM     15  C   UNL d   1      32.517  18.184 -23.192  0.00  0.00     0.123 C 
ATOM     16  C   UNL d   1      33.187  18.658 -23.066  0.00  0.00     0.029 C 
ENDBRANCH  14  15
ENDBRANCH   4  14
TORSDOF 4
ENDMDL
MODEL 3
REMARK VINA RESULT:      -2.2      2.114      3.555
REMARK  4 active torsions:
REMARK  status: ('A' for Active; 'I' for Inactive)
REMARK    1  A    between atoms: C_6  and  N_1 
REMARK    2  A    between atoms: C_9  and  C_2 
REMARK    3  A    between atoms: O_14  and  C_10 
REMARK    4  A    between atoms: C_15  and  O_14 
ROOT
ATOM      1  C   UNL d   1      31.256  16.777 -24.230  0.00  0.00     0.086 A 
ATOM      2  C   UNL d   1      30.620  17.176 -24.569  0.00  0.00     0.021 A 
ATOM      3  C   UNL d   1      31.124  16.198 -23.664  0.00  0.00     0.021 A 
ATOM      4  C   UNL d   1      29.713  16.415 -23.773  0.00  0.00     0.100 A 
ATOM      5  C   UNL d   1      30.352  16.016 -23.434  0.00  0.00     0.026 A 
ATOM      6  C   UNL d   1      29.849  16.995 -24.340  0.00  0.00     0.026 A 
ENDROOT
BRANCH   1   7
ATOM      7  N   UNL d   1      32.028  16.959 -24.459  0.00  0.00    -0.191 N 
ATOM      8  C   UNL d   1      32.508  17.541 -24.133  0.00  0.00     0.200 A 
ATOM      9  N   UNL d   1      33.236  17.532 -24.529  0.00  0.00    -0.107 NA
ATOM     10  N   UNL d   1      33.205  16.949 -25.094  0.00  0.00    -0.022 NA
ATOM     11  N   UNL d   1      32.458  16.591 -25.055  0.00  0.00    -0.039 NA
BRANCH   8  12
ATOM     12  C   UNL d   1      32.304  18.057 -23.511  0.00  0.00     0.109 C 
ATOM     13 CL   UNL d   1      32.732  18.655 -23.126  0.00  0.00    -0.078 Cl
ENDBRANCH   8  12
ENDBRANCH   1   7
BRANCH   4  14
ATOM     14  O   UNL d   1      28.945  16.235 -23.545  0.00  0.00    -0.305 OA
BRANCH  14  15
ATOM     15  C   UNL d   1      28.509  15.677 -23.967  0.00  0.00     0.123 C 
ATOM     16  C   UNL d   1      27.755  15.453 -23.703  0.00  0.00     0.029 C 
ENDBRANCH  14  15
ENDBRANCH   4  14
TORSDOF 4
ENDMDL
MODEL 4
REMARK VINA RESULT:      -1.6      4.483      5.800
REMARK  4 active torsions:
REMARK  status: ('A' for Active; 'I' for Inactive)
REMARK    1  A    between atoms: C_6  and  N_1 
REMARK    2  A    between atoms: C_9  and  C_2 
REMARK    3  A    between atoms: O_14  and  C_10 
REMARK    4  A    between atoms: C_15  and  O_14 
ROOT
ATOM      1  C   UNL d   1      32.962  21.497 -21.153  0.00  0.00     0.086 A 
ATOM      2  C   UNL d   1      33.155  21.630 -21.942  0.00  0.00     0.021 A 
ATOM      3  C   UNL d   1      32.849  20.731 -20.880  0.00  0.00     0.021 A 
ATOM      4  C   UNL d   1      33.123  20.225 -22.192  0.00  0.00     0.100 A 
ATOM      5  C   UNL d   1      32.930  20.094 -21.400  0.00  0.00     0.026 A 
ATOM      6  C   UNL d   1      33.235  20.994 -22.462  0.00  0.00     0.026 A 
ENDROOT
BRANCH   1   7
ATOM      7  N   UNL d   1      32.881  22.133 -20.634  0.00  0.00    -0.191 N 
ATOM      8  C   UNL d   1      32.437  22.814 -20.763  0.00  0.00     0.200 A 
ATOM      9  N   UNL d   1      32.513  23.304 -20.099  0.00  0.00    -0.107 NA
ATOM     10  N   UNL d   1      32.999  22.930 -19.567  0.00  0.00    -0.022 NA
ATOM     11  N   UNL d   1      33.230  22.204 -19.893  0.00  0.00    -0.039 NA
BRANCH   8  12
ATOM     12  C   UNL d   1      31.986  22.987 -21.442  0.00  0.00     0.109 C 
ATOM     13 CL   UNL d   1      31.537  23.652 -21.652  0.00  0.00    -0.078 Cl
ENDBRANCH   8  12
ENDBRANCH   1   7
BRANCH   4  14
ATOM     14  O   UNL d   1      33.203  19.592 -22.708  0.00  0.00    -0.305 OA
BRANCH  14  15
ATOM     15  C   UNL d   1      32.824  19.605 -23.440  0.00  0.00     0.123 C 
ATOM     16  C   UNL d   1      32.825  18.929 -23.921  0.00  0.00     0.029 C 
ENDBRANCH  14  15
ENDBRANCH   4  14
TORSDOF 4
ENDMDL
MODEL 5
REMARK VINA RESULT:      -1.2      2.719      4.083
REMARK  4 active torsions:
REMARK  status: ('A' for Active; 'I' for Inactive)
REMARK    1  A    between atoms: C_6  and  N_1 
REMARK    2  A    between atoms: C_9  and  C_2 
REMARK    3  A    between atoms: O_14  and  C_10 
REMARK    4  A    between atoms: C_15  and  O_14 
ROOT
ATOM      1  C   UNL d   1      30.420  16.741 -24.289  0.00  0.00     0.086 A 
ATOM      2  C   UNL d   1      29.860  16.882 -24.876  0.00  0.00     0.021 A 
ATOM      3  C   UNL d   1      30.277  16.172 -23.713  0.00  0.00     0.021 A 
ATOM      4  C   UNL d   1      29.009  15.885 -24.313  0.00  0.00     0.100 A 
ATOM      5  C   UNL d   1      29.571  15.744 -23.725  0.00  0.00     0.026 A 
ATOM      6  C   UNL d   1      29.155  16.454 -24.888  0.00  0.00     0.026 A 
ENDROOT
BRANCH   1   7
ATOM      7  N   UNL d   1      31.125  17.168 -24.278  0.00  0.00    -0.191 N 
ATOM      8  C   UNL d   1      31.860  16.902 -24.533  0.00  0.00     0.200 A 
ATOM      9  N   UNL d   1      32.411  17.510 -24.421  0.00  0.00    -0.107 NA
ATOM     10  N   UNL d   1      32.020  18.146 -24.100  0.00  0.00    -0.022 NA
ATOM     11  N   UNL d   1      31.222  17.939 -24.009  0.00  0.00    -0.039 NA
BRANCH   8  12
ATOM     12  C   UNL d   1      32.029  16.150 -24.850  0.00  0.00     0.109 C 
ATOM     13 CL   UNL d   1      32.744  15.794 -25.075  0.00  0.00    -0.078 Cl
ENDBRANCH   8  12
ENDBRANCH   1   7
BRANCH   4  14
ATOM     14  O   UNL d   1      28.307  15.459 -24.325  0.00  0.00    -0.305 OA
BRANCH  14  15
ATOM     15  C   UNL d   1      27.784  15.507 -23.690  0.00  0.00     0.123 C 
ATOM     16  C   UNL d   1      26.966  15.454 -23.819  0.00  0.00     0.029 C 
ENDBRANCH  14  15
ENDBRANCH   4  14
TORSDOF 4
ENDMDL
MODEL 6
REMARK VINA RESULT:      -0.8      3.514      4.679
REMARK  4 active torsions:
REMARK  status: ('A' for Active; 'I' for Inactive)
REMARK    1  A    between atoms: C_6  and  N_1 
REMARK    2  A    between atoms: C_9  and  C_2 
REMARK    3  A    between atoms: O_14  and  C_10 
REMARK    4  A    between atoms: C_15  and  O_14 
ROOT
ATOM      1  C   UNL d   1      33.065  20.562 -22.630  0.00  0.00     0.086 A 
ATOM      2  C   UNL d   1      32.995  20.334 -23.417  0.00  0.00     0.021 A 
ATOM      3  C   UNL d   1      33.187  19.996 -22.046  0.00  0.00     0.021 A 
ATOM      4  C   UNL d   1      33.170  18.968 -23.043  0.00  0.00     0.100 A 
ATOM      5  C   UNL d   1      33.240  19.199 -22.254  0.00  0.00     0.026 A 
ATOM      6  C   UNL d   1      33.047  19.537 -23.624  0.00  0.00     0.026 A 
ENDROOT
BRANCH   1   7
ATOM      7  N   UNL d   1      33.013  21.359 -22.423  0.00  0.00    -0.191 N 
ATOM      8  C   UNL d   1      32.723  21.660 -21.714  0.00  0.00     0.200 A 
ATOM      9  N   UNL d   1      32.772  22.487 -21.742  0.00  0.00    -0.107 NA
ATOM     10  N   UNL d   1      33.090  22.694 -22.461  0.00  0.00    -0.022 NA
ATOM     11  N   UNL d   1      33.241  21.998 -22.886  0.00  0.00    -0.039 NA
BRANCH   8  12
ATOM     12  C   UNL d   1      32.428  21.216 -21.074  0.00  0.00     0.109 C 
ATOM     13 CL   UNL d   1      32.042  21.443 -20.375  0.00  0.00    -0.078 Cl
ENDBRANCH   8  12
ENDBRANCH   1   7
BRANCH   4  14
ATOM     14  O   UNL d   1      33.222  18.175 -23.249  0.00  0.00    -0.305 OA
BRANCH  14  15
ATOM     15  C   UNL d   1      32.562  17.686 -23.180  0.00  0.00     0.123 C 
ATOM     16  C   UNL d   1      32.592  16.905 -23.459  0.00  0.00     0.029 C 
ENDBRANCH  14  15
ENDBRANCH   4  14
TORSDOF 4
ENDMDL
MODEL 7
REMARK VINA RESULT:      -0.6      2.684      3.571
REMARK  4 active torsions:
REMARK  status: ('A' for Active; 'I' for Inactive)
REMARK    1  A    between atoms: C_6  and  N_1 
REMARK    2  A    between atoms: C_9  and  C_2 
REMARK    3  A    between atoms: O_14  and  C_10 
REMARK    4  A    between atoms: C_15  and  O_14 
ROOT
ATOM      1  C   UNL d   1      33.113  20.061 -22.361  0.00  0.00     0.086 A 
ATOM      2  C   UNL d   1      33.223  20.777 -22.751  0.00  0.00     0.021 A 
ATOM      3  C   UNL d   1      33.020  20.047 -21.544  0.00  0.00     0.021 A 
ATOM      4  C   UNL d   1      33.149  21.473 -21.507  0.00  0.00     0.100 A 
ATOM      5  C   UNL d   1      33.039  20.754 -21.117  0.00  0.00     0.026 A 
ATOM      6  C   UNL d   1      33.241  21.483 -22.324  0.00  0.00     0.026 A 
ENDROOT
BRANCH   1   7
ATOM      7  N   UNL d   1      33.095  19.355 -22.787  0.00  0.00    -0.191 N 
ATOM      8  C   UNL d   1      33.151  19.279 -23.604  0.00  0.00     0.200 A 
ATOM      9  N   UNL d   1      33.108  18.474 -23.795  0.00  0.00    -0.107 NA
ATOM     10  N   UNL d   1      33.025  18.057 -23.103  0.00  0.00    -0.022 NA
ATOM     11  N   UNL d   1      33.016  18.599 -22.475  0.00  0.00    -0.039 NA
BRANCH   8  12
ATOM     12  C   UNL d   1      33.238  19.900 -24.153  0.00  0.00     0.109 C 
ATOM     13 CL   UNL d   1      33.219  19.912 -24.983  0.00  0.00    -0.078 Cl
ENDBRANCH   8  12
ENDBRANCH   1   7
BRANCH   4  14
ATOM     14  O   UNL d   1      33.167  22.175 -21.082  0.00  0.00    -0.305 OA
BRANCH  14  15
ATOM     15  C   UNL d   1      32.467  22.504 -20.799  0.00  0.00     0.123 C 
ATOM     16  C   UNL d   1      32.489  23.188 -20.329  0.00  0.00     0.029 C 
ENDBRANCH  14  15
ENDBRANCH   4  14
TORSDOF 4
ENDMDL
