MODEL 1
REMARK VINA RESULT:     -10.3      0.000      0.000
REMARK  8 active torsions:
REMARK  status: ('A' for Active; 'I' for Inactive)
REMARK    1  A    between atoms: C_9  and  N_1 
REMARK    2  A    between atoms: C_7  and  C_2 
REMARK    3  A    between atoms: C_6  and  C_4 
REMARK    4  A    between atoms: C_8  and  C_11 
REMARK       I    between atoms: N_23  and  C_8 
REMARK    5  A    between atoms: C_26  and  N_23 
REMARK    6  A    between atoms: C_24  and  C_26 
REMARK    7  A    between atoms: C_27  and  C_24 
REMARK    8  A    between atoms: O_25  and  C_27 
ROOT
ATOM      1  N   UNL d   1      53.165  33.358  53.872  0.00  0.00    -0.229 N 
ATOM      2  C   UNL d   1      53.498  32.591  53.797  0.00  0.00     0.090 A 
ATOM      3  N   UNL d   1      53.667  33.803  54.328  0.00  0.00    -0.161 NA
ATOM      4  C   UNL d   1      54.317  33.338  54.550  0.00  0.00     0.174 A 
ATOM      5  C   UNL d   1      54.208  32.583  54.217  0.00  0.00     0.044 A 
ENDROOT
BRANCH   1   6
ATOM      6  C   UNL d   1      52.457  33.614  53.541  0.00  0.00     0.083 A 
ATOM      7  C   UNL d   1      52.461  34.037  52.831  0.00  0.00     0.019 A 
ATOM      8  C   UNL d   1      51.755  34.296  52.494  0.00  0.00     0.006 A 
ATOM      9  C   UNL d   1      51.036  34.127  52.875  0.00  0.00     0.058 A 
ATOM     10  C   UNL d   1      51.034  33.701  53.589  0.00  0.00     0.006 A 
ATOM     11  C   UNL d   1      51.740  33.449  53.916  0.00  0.00     0.019 A 
BRANCH   9  12
ATOM     12  C   UNL d   1      50.321  34.386  52.539  0.00  0.00     0.279 C 
ATOM     13  O   UNL d   1      50.122  34.169  51.771  0.00  0.00    -0.265 OA
ATOM     14  N   UNL d   1      49.811  34.860  52.976  0.00  0.00    -0.206 NA
BRANCH  14  15
ATOM     15  C   UNL d   1      49.103  35.120  52.650  0.00  0.00     0.104 C 
BRANCH  15  16
ATOM     16  C   UNL d   1      48.598  35.611  53.079  0.00  0.00     0.047 C 
BRANCH  16  17
ATOM     17  C   UNL d   1      47.907  35.907  52.730  0.00  0.00     0.118 C 
BRANCH  17  18
ATOM     18  O   UNL d   1      47.533  36.560  53.068  0.00  0.00    -0.326 OA
ATOM     19  C   UNL d   1      46.731  36.709  52.902  0.00  0.00     0.181 C 
ENDBRANCH  17  18
ENDBRANCH  16  17
ENDBRANCH  15  16
ENDBRANCH  14  15
ENDBRANCH   9  12
ENDBRANCH   1   6
BRANCH   2  20
ATOM     20  C   UNL d   1      53.242  31.911  53.403  0.00  0.00     0.047 A 
ATOM     21  S   UNL d   1      52.833  31.632  52.731  0.00  0.00    -0.085 SA
ATOM     22  C   UNL d   1      52.828  30.802  52.765  0.00  0.00     0.035 A 
ATOM     23  C   UNL d   1      53.228  30.582  53.447  0.00  0.00     0.007 A 
ATOM     24  C   UNL d   1      53.483  31.258  53.839  0.00  0.00     0.009 A 
ENDBRANCH   2  20
BRANCH   4  25
ATOM     25  C   UNL d   1      54.957  33.575  55.015  0.00  0.00     0.437 C 
ATOM     26  F   UNL d   1      55.539  33.790  55.442  0.00  0.00    -0.164 F 
ATOM     27  F   UNL d   1      55.039  33.559  55.873  0.00  0.00    -0.164 F 
ATOM     28  F   UNL d   1      55.720  33.903  54.772  0.00  0.00    -0.164 F 
ENDBRANCH   4  25
TORSDOF 8
ENDMDL
MODEL 2
REMARK VINA RESULT:      -9.7      2.022      2.595
REMARK  8 active torsions:
REMARK  status: ('A' for Active; 'I' for Inactive)
REMARK    1  A    between atoms: C_9  and  N_1 
REMARK    2  A    between atoms: C_7  and  C_2 
REMARK    3  A    between atoms: C_6  and  C_4 
REMARK    4  A    between atoms: C_8  and  C_11 
REMARK       I    between atoms: N_23  and  C_8 
REMARK    5  A    between atoms: C_26  and  N_23 
REMARK    6  A    between atoms: C_24  and  C_26 
REMARK    7  A    between atoms: C_27  and  C_24 
REMARK    8  A    between atoms: O_25  and  C_27 
ROOT
ATOM      1  N   UNL d   1      52.428  32.382  53.153  0.00  0.00    -0.229 N 
ATOM      2  C   UNL d   1      53.141  32.485  53.586  0.00  0.00     0.090 A 
ATOM      3  N   UNL d   1      52.420  31.623  52.866  0.00  0.00    -0.161 NA
ATOM      4  C   UNL d   1      53.112  31.234  53.105  0.00  0.00     0.174 A 
ATOM      5  C   UNL d   1      53.559  31.775  53.553  0.00  0.00     0.044 A 
ENDROOT
BRANCH   1   6
ATOM      6  C   UNL d   1      51.843  32.948  53.041  0.00  0.00     0.083 A 
ATOM      7  C   UNL d   1      51.175  32.955  53.527  0.00  0.00     0.019 A 
ATOM      8  C   UNL d   1      50.584  33.520  53.420  0.00  0.00     0.006 A 
ATOM      9  C   UNL d   1      50.667  34.085  52.817  0.00  0.00     0.058 A 
ATOM     10  C   UNL d   1      51.340  34.077  52.328  0.00  0.00     0.006 A 
ATOM     11  C   UNL d   1      51.920  33.512  52.443  0.00  0.00     0.019 A 
BRANCH   9  12
ATOM     12  C   UNL d   1      50.074  34.658  52.704  0.00  0.00     0.279 C 
ATOM     13  O   UNL d   1      50.064  35.339  53.165  0.00  0.00    -0.265 OA
ATOM     14  N   UNL d   1      49.497  34.542  52.131  0.00  0.00    -0.206 NA
BRANCH  14  15
ATOM     15  C   UNL d   1      48.908  35.104  52.015  0.00  0.00     0.104 C 
BRANCH  15  16
ATOM     16  C   UNL d   1      48.282  34.955  51.499  0.00  0.00     0.047 C 
BRANCH  16  17
ATOM     17  C   UNL d   1      47.596  35.418  51.532  0.00  0.00     0.118 C 
BRANCH  17  18
ATOM     18  O   UNL d   1      46.919  35.166  51.131  0.00  0.00    -0.326 OA
ATOM     19  C   UNL d   1      46.206  35.585  51.217  0.00  0.00     0.181 C 
ENDBRANCH  17  18
ENDBRANCH  16  17
ENDBRANCH  15  16
ENDBRANCH  14  15
ENDBRANCH   9  12
ENDBRANCH   1   6
BRANCH   2  20
ATOM     20  C   UNL d   1      53.451  33.130  53.998  0.00  0.00     0.047 A 
ATOM     21  S   UNL d   1      53.560  33.958  53.977  0.00  0.00    -0.085 SA
ATOM     22  C   UNL d   1      53.957  34.178  54.672  0.00  0.00     0.035 A 
ATOM     23  C   UNL d   1      54.086  33.495  55.108  0.00  0.00     0.007 A 
ATOM     24  C   UNL d   1      53.777  32.853  54.698  0.00  0.00     0.009 A 
ENDBRANCH   2  20
BRANCH   4  25
ATOM     25  C   UNL d   1      53.325  30.456  52.933  0.00  0.00     0.437 C 
ATOM     26  F   UNL d   1      53.519  29.745  52.772  0.00  0.00    -0.164 F 
ATOM     27  F   UNL d   1      53.266  30.030  52.185  0.00  0.00    -0.164 F 
ATOM     28  F   UNL d   1      53.665  29.851  53.451  0.00  0.00    -0.164 F 
ENDBRANCH   4  25
TORSDOF 8
ENDMDL
