MODEL 1
REMARK VINA RESULT:      94.8      0.000      0.000
REMARK  3 active torsions:
REMARK  status: ('A' for Active; 'I' for Inactive)
REMARK    1  A    between atoms: C_7  and  N_1 
REMARK    2  A    between atoms: C_6  and  C_2 
REMARK    3  A    between atoms: O_19  and  C_9 
ROOT
ATOM      1  N   UNL d   1      61.070  47.857  51.266  0.00  0.00    -0.259 N 
ATOM      2  C   UNL d   1      60.818  48.637  51.139  0.00  0.00     0.137 A 
ATOM      3  C   UNL d   1      61.185  47.739  52.060  0.00  0.00     0.282 A 
ATOM      4  N   UNL d   1      60.778  49.005  51.888  0.00  0.00    -0.287 N 
ATOM      5  C   UNL d   1      61.008  48.443  52.463  0.00  0.00     0.122 A 
ATOM      6  O   UNL d   1      61.436  47.039  52.430  0.00  0.00    -0.265 OA
ATOM      7  C   UNL d   1      60.601  49.708  52.283  0.00  0.00     0.082 A 
ATOM      8  C   UNL d   1      60.965  48.816  53.199  0.00  0.00     0.024 A 
ATOM      9  C   UNL d   1      60.717  49.590  53.094  0.00  0.00     0.021 A 
ENDROOT
BRANCH   2  10
ATOM     10  C   UNL d   1      60.637  48.996  50.418  0.00  0.00     0.056 A 
ATOM     11  C   UNL d   1      59.881  49.255  50.264  0.00  0.00     0.097 A 
ATOM     12  C   UNL d   1      59.694  49.612  49.549  0.00  0.00     0.024 A 
ATOM     13  C   UNL d   1      60.287  49.708  48.981  0.00  0.00     0.002 A 
ATOM     14  C   UNL d   1      61.043  49.449  49.134  0.00  0.00     0.000 A 
ATOM     15  C   UNL d   1      61.230  49.087  49.860  0.00  0.00     0.005 A 
BRANCH  11  16
ATOM     16  O   UNL d   1      59.290  49.155  50.840  0.00  0.00    -0.328 OA
ATOM     17  C   UNL d   1      58.554  49.560  50.763  0.00  0.00     0.181 C 
ENDBRANCH  11  16
ENDBRANCH   2  10
BRANCH   1  18
ATOM     18  C   UNL d   1      61.184  47.299  50.672  0.00  0.00     0.068 A 
ATOM     19  C   UNL d   1      60.660  46.672  50.599  0.00  0.00     0.018 A 
ATOM     20  C   UNL d   1      60.768  46.108  50.007  0.00  0.00     0.013 A 
ATOM     21  C   UNL d   1      61.408  46.179  49.485  0.00  0.00     0.058 A 
ATOM     22  C   UNL d   1      61.936  46.809  49.557  0.00  0.00     0.013 A 
ATOM     23 CL   UNL d   1      61.515  45.615  48.892  0.00  0.00    -0.082 Cl
ATOM     24  C   UNL d   1      61.824  47.370  50.151  0.00  0.00     0.018 A 
ENDBRANCH   1  18
TORSDOF 3
ENDMDL
