MODEL 1
REMARK VINA RESULT:      -7.6      0.000      0.000
REMARK  5 active torsions:
REMARK  status: ('A' for Active; 'I' for Inactive)
REMARK    1  A    between atoms: C_2  and  S_1 
REMARK    2  A    between atoms: N_3  and  C_14 
REMARK    3  A    between atoms: C_9  and  N_3 
REMARK    4  A    between atoms: N_8  and  C_7 
REMARK    5  A    between atoms: C_15  and  C_9 
ROOT
ATOM      1  N   UNL d   1      51.978  34.406  53.113  0.00  0.00    -0.244 NA
ENDROOT
BRANCH   1   2
ATOM      2  C   UNL d   1      52.616  34.196  53.601  0.00  0.00     0.082 A 
ATOM      3  C   UNL d   1      52.796  34.681  54.244  0.00  0.00     0.020 A 
ATOM      4  C   UNL d   1      53.430  34.470  54.727  0.00  0.00     0.015 A 
ATOM      5  C   UNL d   1      53.867  33.802  54.574  0.00  0.00     0.107 A 
ATOM      6  C   UNL d   1      53.687  33.318  53.932  0.00  0.00     0.015 A 
ATOM      7  C   UNL d   1      53.052  33.528  53.448  0.00  0.00     0.020 A 
BRANCH   5   8
ATOM      8  S   UNL d   1      54.508  33.594  55.067  0.00  0.00     0.302 S 
ATOM      9  O   UNL d   1      54.836  34.347  54.951  0.00  0.00    -0.197 OA
ATOM     10  O   UNL d   1      55.148  33.399  55.554  0.00  0.00    -0.197 OA
ATOM     11  N   UNL d   1      54.181  32.848  55.181  0.00  0.00    -0.043 N 
ENDBRANCH   5   8
ENDBRANCH   1   2
BRANCH   1  12
ATOM     12  C   UNL d   1      51.310  33.944  53.082  0.00  0.00     0.099 C 
BRANCH  12  13
ATOM     13  C   UNL d   1      50.639  34.189  52.666  0.00  0.00     0.019 A 
ATOM     14  C   UNL d   1      50.005  34.580  53.055  0.00  0.00     0.003 A 
ATOM     15  C   UNL d   1      49.352  34.811  52.614  0.00  0.00     0.018 A 
ATOM     16  C   UNL d   1      49.302  34.673  51.816  0.00  0.00     0.064 A 
ATOM     17  C   UNL d   1      49.935  34.282  51.427  0.00  0.00     0.018 A 
ATOM     18  C   UNL d   1      50.607  34.036  51.844  0.00  0.00     0.003 A 
BRANCH  16  19
ATOM     19  N   UNL d   1      48.626  34.923  51.415  0.00  0.00    -0.301 N 
ATOM     20  C   UNL d   1      48.115  35.477  51.769  0.00  0.00     0.100 C 
ATOM     21  C   UNL d   1      48.479  34.616  50.674  0.00  0.00     0.100 C 
ENDBRANCH  16  19
ENDBRANCH  12  13
ENDBRANCH   1  12
TORSDOF 5
ENDMDL
MODEL 2
REMARK VINA RESULT:      -7.4      1.606      2.202
REMARK  5 active torsions:
REMARK  status: ('A' for Active; 'I' for Inactive)
REMARK    1  A    between atoms: C_2  and  S_1 
REMARK    2  A    between atoms: N_3  and  C_14 
REMARK    3  A    between atoms: C_9  and  N_3 
REMARK    4  A    between atoms: N_8  and  C_7 
REMARK    5  A    between atoms: C_15  and  C_9 
ROOT
ATOM      1  N   UNL d   1      50.272  34.490  52.902  0.00  0.00    -0.244 NA
ENDROOT
BRANCH   1   2
ATOM      2  C   UNL d   1      50.974  34.053  52.970  0.00  0.00     0.082 A 
ATOM      3  C   UNL d   1      50.931  33.279  53.254  0.00  0.00     0.020 A 
ATOM      4  C   UNL d   1      51.631  32.847  53.320  0.00  0.00     0.015 A 
ATOM      5  C   UNL d   1      52.345  33.175  53.110  0.00  0.00     0.107 A 
ATOM      6  C   UNL d   1      52.387  33.947  52.827  0.00  0.00     0.015 A 
ATOM      7  C   UNL d   1      51.688  34.381  52.760  0.00  0.00     0.020 A 
BRANCH   5   8
ATOM      8  S   UNL d   1      53.049  32.732  53.180  0.00  0.00     0.302 S 
ATOM      9  O   UNL d   1      52.819  32.272  52.528  0.00  0.00    -0.197 OA
ATOM     10  O   UNL d   1      53.744  32.286  53.239  0.00  0.00    -0.197 OA
ATOM     11  N   UNL d   1      53.275  33.189  53.824  0.00  0.00    -0.043 N 
ENDBRANCH   5   8
ENDBRANCH   1   2
BRANCH   1  12
ATOM     12  C   UNL d   1      49.831  34.464  52.220  0.00  0.00     0.099 C 
BRANCH  12  13
ATOM     13  C   UNL d   1      49.103  34.852  52.165  0.00  0.00     0.019 A 
ATOM     14  C   UNL d   1      48.796  35.293  52.811  0.00  0.00     0.003 A 
ATOM     15  C   UNL d   1      48.071  35.668  52.726  0.00  0.00     0.018 A 
ATOM     16  C   UNL d   1      47.642  35.623  52.038  0.00  0.00     0.064 A 
ATOM     17  C   UNL d   1      47.949  35.182  51.392  0.00  0.00     0.018 A 
ATOM     18  C   UNL d   1      48.678  34.793  51.447  0.00  0.00     0.003 A 
BRANCH  16  19
ATOM     19  N   UNL d   1      46.918  36.016  51.998  0.00  0.00    -0.301 N 
ATOM     20  C   UNL d   1      46.798  36.709  52.444  0.00  0.00     0.100 C 
ATOM     21  C   UNL d   1      46.336  35.708  51.518  0.00  0.00     0.100 C 
ENDBRANCH  16  19
ENDBRANCH  12  13
ENDBRANCH   1  12
TORSDOF 5
ENDMDL
MODEL 3
REMARK VINA RESULT:      -7.2      3.627      5.691
REMARK  5 active torsions:
REMARK  status: ('A' for Active; 'I' for Inactive)
REMARK    1  A    between atoms: C_2  and  S_1 
REMARK    2  A    between atoms: N_3  and  C_14 
REMARK    3  A    between atoms: C_9  and  N_3 
REMARK    4  A    between atoms: N_8  and  C_7 
REMARK    5  A    between atoms: C_15  and  C_9 
ROOT
ATOM      1  N   UNL d   1      49.770  34.457  52.077  0.00  0.00    -0.244 NA
ENDROOT
BRANCH   1   2
ATOM      2  C   UNL d   1      49.030  34.821  51.982  0.00  0.00     0.082 A 
ATOM      3  C   UNL d   1      48.638  34.734  51.261  0.00  0.00     0.020 A 
ATOM      4  C   UNL d   1      47.903  35.097  51.169  0.00  0.00     0.015 A 
ATOM      5  C   UNL d   1      47.572  35.528  51.774  0.00  0.00     0.107 A 
ATOM      6  C   UNL d   1      47.964  35.614  52.494  0.00  0.00     0.015 A 
ATOM      7  C   UNL d   1      48.700  35.252  52.587  0.00  0.00     0.020 A 
BRANCH   5   8
ATOM      8  S   UNL d   1      46.828  35.892  51.675  0.00  0.00     0.302 S 
ATOM      9  O   UNL d   1      46.540  35.199  51.321  0.00  0.00    -0.197 OA
ATOM     10  O   UNL d   1      46.085  36.243  51.572  0.00  0.00    -0.197 OA
ATOM     11  N   UNL d   1      47.114  36.577  52.026  0.00  0.00    -0.043 N 
ENDBRANCH   5   8
ENDBRANCH   1   2
BRANCH   1  12
ATOM     12  C   UNL d   1      50.185  34.537  52.771  0.00  0.00     0.099 C 
BRANCH  12  13
ATOM     13  C   UNL d   1      50.883  34.113  52.904  0.00  0.00     0.019 A 
ATOM     14  C   UNL d   1      50.866  33.348  53.250  0.00  0.00     0.003 A 
ATOM     15  C   UNL d   1      51.576  32.952  53.370  0.00  0.00     0.018 A 
ATOM     16  C   UNL d   1      52.290  33.278  53.163  0.00  0.00     0.064 A 
ATOM     17  C   UNL d   1      52.306  34.043  52.818  0.00  0.00     0.018 A 
ATOM     18  C   UNL d   1      51.608  34.468  52.684  0.00  0.00     0.003 A 
BRANCH  16  19
ATOM     19  N   UNL d   1      52.976  32.843  53.302  0.00  0.00    -0.301 N 
ATOM     20  C   UNL d   1      53.050  32.075  52.989  0.00  0.00     0.100 C 
ATOM     21  C   UNL d   1      53.568  33.184  53.747  0.00  0.00     0.100 C 
ENDBRANCH  16  19
ENDBRANCH  12  13
ENDBRANCH   1  12
TORSDOF 5
ENDMDL
MODEL 4
REMARK VINA RESULT:      -5.2     10.675     11.233
REMARK  5 active torsions:
REMARK  status: ('A' for Active; 'I' for Inactive)
REMARK    1  A    between atoms: C_2  and  S_1 
REMARK    2  A    between atoms: N_3  and  C_14 
REMARK    3  A    between atoms: C_9  and  N_3 
REMARK    4  A    between atoms: N_8  and  C_7 
REMARK    5  A    between atoms: C_15  and  C_9 
ROOT
ATOM      1  N   UNL d   1      44.732  28.432  58.386  0.00  0.00    -0.244 NA
ENDROOT
BRANCH   1   2
ATOM      2  C   UNL d   1      44.727  29.008  58.983  0.00  0.00     0.082 A 
ATOM      3  C   UNL d   1      45.145  29.709  58.858  0.00  0.00     0.020 A 
ATOM      4  C   UNL d   1      45.138  30.280  59.453  0.00  0.00     0.015 A 
ATOM      5  C   UNL d   1      44.731  30.155  60.146  0.00  0.00     0.107 A 
ATOM      6  C   UNL d   1      44.314  29.455  60.270  0.00  0.00     0.015 A 
ATOM      7  C   UNL d   1      44.320  28.884  59.676  0.00  0.00     0.020 A 
BRANCH   5   8
ATOM      8  S   UNL d   1      44.729  30.737  60.744  0.00  0.00     0.302 S 
ATOM      9  O   UNL d   1      45.137  30.217  61.246  0.00  0.00    -0.197 OA
ATOM     10  O   UNL d   1      44.732  31.307  61.345  0.00  0.00    -0.197 OA
ATOM     11  N   UNL d   1      44.324  31.250  60.246  0.00  0.00    -0.043 N 
ENDBRANCH   5   8
ENDBRANCH   1   2
BRANCH   1  12
ATOM     12  C   UNL d   1      45.086  27.710  58.509  0.00  0.00     0.099 C 
BRANCH  12  13
ATOM     13  C   UNL d   1      44.979  27.085  57.978  0.00  0.00     0.019 A 
ATOM     14  C   UNL d   1      45.210  27.153  57.173  0.00  0.00     0.003 A 
ATOM     15  C   UNL d   1      45.090  26.515  56.671  0.00  0.00     0.018 A 
ATOM     16  C   UNL d   1      44.756  25.821  56.930  0.00  0.00     0.064 A 
ATOM     17  C   UNL d   1      44.525  25.753  57.734  0.00  0.00     0.018 A 
ATOM     18  C   UNL d   1      44.632  26.379  58.265  0.00  0.00     0.003 A 
BRANCH  16  19
ATOM     19  N   UNL d   1      44.655  25.207  56.389  0.00  0.00    -0.301 N 
ATOM     20  C   UNL d   1      44.736  24.417  56.640  0.00  0.00     0.100 C 
ATOM     21  C   UNL d   1      44.478  25.396  55.617  0.00  0.00     0.100 C 
ENDBRANCH  16  19
ENDBRANCH  12  13
ENDBRANCH   1  12
TORSDOF 5
ENDMDL
MODEL 5
REMARK VINA RESULT:      -5.2     11.161     11.649
REMARK  5 active torsions:
REMARK  status: ('A' for Active; 'I' for Inactive)
REMARK    1  A    between atoms: C_2  and  S_1 
REMARK    2  A    between atoms: N_3  and  C_14 
REMARK    3  A    between atoms: C_9  and  N_3 
REMARK    4  A    between atoms: N_8  and  C_7 
REMARK    5  A    between atoms: C_15  and  C_9 
ROOT
ATOM      1  N   UNL d   1      45.269  26.324  56.536  0.00  0.00    -0.244 NA
ENDROOT
BRANCH   1   2
ATOM      2  C   UNL d   1      45.206  27.061  56.912  0.00  0.00     0.082 A 
ATOM      3  C   UNL d   1      45.534  27.149  57.664  0.00  0.00     0.020 A 
ATOM      4  C   UNL d   1      45.470  27.882  58.036  0.00  0.00     0.015 A 
ATOM      5  C   UNL d   1      45.094  28.503  57.670  0.00  0.00     0.107 A 
ATOM      6  C   UNL d   1      44.766  28.415  56.919  0.00  0.00     0.015 A 
ATOM      7  C   UNL d   1      44.829  27.682  56.547  0.00  0.00     0.020 A 
BRANCH   5   8
ATOM      8  S   UNL d   1      45.032  29.243  58.052  0.00  0.00     0.302 S 
ATOM      9  O   UNL d   1      45.050  29.621  57.313  0.00  0.00    -0.197 OA
ATOM     10  O   UNL d   1      44.972  29.982  58.419  0.00  0.00    -0.197 OA
ATOM     11  N   UNL d   1      45.015  28.867  58.782  0.00  0.00    -0.043 N 
ENDBRANCH   5   8
ENDBRANCH   1   2
BRANCH   1  12
ATOM     12  C   UNL d   1      44.626  25.829  56.483  0.00  0.00     0.099 C 
BRANCH  12  13
ATOM     13  C   UNL d   1      44.704  25.052  56.211  0.00  0.00     0.019 A 
ATOM     14  C   UNL d   1      44.858  24.889  55.401  0.00  0.00     0.003 A 
ATOM     15  C   UNL d   1      44.931  24.107  55.162  0.00  0.00     0.018 A 
ATOM     16  C   UNL d   1      44.859  23.489  55.684  0.00  0.00     0.064 A 
ATOM     17  C   UNL d   1      44.706  23.652  56.493  0.00  0.00     0.018 A 
ATOM     18  C   UNL d   1      44.627  24.430  56.766  0.00  0.00     0.003 A 
BRANCH  16  19
ATOM     19  N   UNL d   1      44.940  22.720  55.397  0.00  0.00    -0.301 N 
ATOM     20  C   UNL d   1      44.406  22.432  54.827  0.00  0.00     0.100 C 
ATOM     21  C   UNL d   1      45.548  22.261  55.686  0.00  0.00     0.100 C 
ENDBRANCH  16  19
ENDBRANCH  12  13
ENDBRANCH   1  12
TORSDOF 5
ENDMDL
MODEL 6
REMARK VINA RESULT:      -5.0     11.109     11.742
REMARK  5 active torsions:
REMARK  status: ('A' for Active; 'I' for Inactive)
REMARK    1  A    between atoms: C_2  and  S_1 
REMARK    2  A    between atoms: N_3  and  C_14 
REMARK    3  A    between atoms: C_9  and  N_3 
REMARK    4  A    between atoms: N_8  and  C_7 
REMARK    5  A    between atoms: C_15  and  C_9 
ROOT
ATOM      1  N   UNL d   1      44.574  26.116  56.636  0.00  0.00    -0.244 NA
ENDROOT
BRANCH   1   2
ATOM      2  C   UNL d   1      44.593  25.435  56.163  0.00  0.00     0.082 A 
ATOM      3  C   UNL d   1      44.895  24.738  56.486  0.00  0.00     0.020 A 
ATOM      4  C   UNL d   1      44.913  24.063  56.014  0.00  0.00     0.015 A 
ATOM      5  C   UNL d   1      44.638  24.082  55.248  0.00  0.00     0.107 A 
ATOM      6  C   UNL d   1      44.336  24.778  54.926  0.00  0.00     0.015 A 
ATOM      7  C   UNL d   1      44.319  25.454  55.398  0.00  0.00     0.020 A 
BRANCH   5   8
ATOM      8  S   UNL d   1      44.659  23.395  54.775  0.00  0.00     0.302 S 
ATOM      9  O   UNL d   1      45.004  23.833  54.161  0.00  0.00    -0.197 OA
ATOM     10  O   UNL d   1      44.684  22.720  54.297  0.00  0.00    -0.197 OA
ATOM     11  N   UNL d   1      44.317  22.963  55.385  0.00  0.00    -0.043 N 
ENDBRANCH   5   8
ENDBRANCH   1   2
BRANCH   1  12
ATOM     12  C   UNL d   1      45.205  26.629  56.650  0.00  0.00     0.099 C 
BRANCH  12  13
ATOM     13  C   UNL d   1      45.178  27.330  57.089  0.00  0.00     0.019 A 
ATOM     14  C   UNL d   1      44.907  28.047  56.746  0.00  0.00     0.003 A 
ATOM     15  C   UNL d   1      44.892  28.725  57.207  0.00  0.00     0.018 A 
ATOM     16  C   UNL d   1      45.131  28.723  57.983  0.00  0.00     0.064 A 
ATOM     17  C   UNL d   1      45.402  28.006  58.326  0.00  0.00     0.018 A 
ATOM     18  C   UNL d   1      45.429  27.305  57.887  0.00  0.00     0.003 A 
BRANCH  16  19
ATOM     19  N   UNL d   1      45.098  29.429  58.407  0.00  0.00    -0.301 N 
ATOM     20  C   UNL d   1      45.226  30.154  58.016  0.00  0.00     0.100 C 
ATOM     21  C   UNL d   1      44.940  29.395  59.206  0.00  0.00     0.100 C 
ENDBRANCH  16  19
ENDBRANCH  12  13
ENDBRANCH   1  12
TORSDOF 5
ENDMDL
