MODEL 1
REMARK VINA RESULT:      35.6      0.000      0.000
REMARK  1 active torsions:
REMARK  status: ('A' for Active; 'I' for Inactive)
REMARK    1  A    between atoms: C_7  and  C_1 
ROOT
ATOM      1  C   UNL d   1     -51.233  26.022  33.479  0.00  0.00     0.103 A 
ATOM      2  C   UNL d   1     -50.827  25.290  33.516  0.00  0.00     0.067 A 
ATOM      3  C   UNL d   1     -52.087  24.586  33.430  0.00  0.00     0.062 A 
ATOM      4  C   UNL d   1     -51.259  24.578  33.492  0.00  0.00     0.200 A 
ATOM      5  O   UNL d   1     -52.063  26.035  33.417  0.00  0.00    -0.307 OA
ATOM      6  C   UNL d   1     -52.486  25.322  33.393  0.00  0.00     0.103 A 
ATOM      7  C   UNL d   1     -52.510  23.883  33.406  0.00  0.00     0.005 A 
ATOM      8  O   UNL d   1     -50.859  23.857  33.529  0.00  0.00    -0.286 OA
ATOM      9  C   UNL d   1     -53.314  25.332  33.331  0.00  0.00     0.025 A 
ATOM     10  C   UNL d   1     -53.331  23.897  33.345  0.00  0.00     0.000 A 
ATOM     11  C   UNL d   1     -53.731  24.617  33.308  0.00  0.00     0.002 A 
ATOM     12  C   UNL d   1     -53.751  23.190  33.321  0.00  0.00     0.000 C 
ENDROOT
BRANCH   1  13
ATOM     13  C   UNL d   1     -50.809  26.722  33.503  0.00  0.00     0.023 A 
ATOM     14  C   UNL d   1     -51.186  27.445  33.351  0.00  0.00     0.002 A 
ATOM     15  C   UNL d   1     -50.752  28.145  33.378  0.00  0.00     0.000 A 
ATOM     16  C   UNL d   1     -49.946  28.126  33.554  0.00  0.00     0.000 A 
ATOM     17  C   UNL d   1     -49.574  27.407  33.704  0.00  0.00     0.000 A 
ATOM     18  C   UNL d   1     -49.514  28.834  33.579  0.00  0.00     0.000 C 
ATOM     19  C   UNL d   1     -50.007  26.708  33.678  0.00  0.00     0.002 A 
ENDBRANCH   1  13
TORSDOF 1
ENDMDL
