MODEL 1
REMARK VINA RESULT:      -2.4      0.000      0.000
REMARK  5 active torsions:
REMARK  status: ('A' for Active; 'I' for Inactive)
REMARK    1  A    between atoms: N_3  and  S_1 
REMARK    2  A    between atoms: C_11  and  S_1 
REMARK    3  A    between atoms: C_9  and  C_2 
REMARK    4  A    between atoms: C_4  and  N_7 
REMARK       I    between atoms: N_7  and  C_10 
REMARK    5  A    between atoms: C_10  and  C_14 
ROOT
ATOM      1  C   UNL d   1      57.803  -0.425  30.804  0.00  0.00     0.104 A 
ATOM      2  C   UNL d   1      58.862  -0.174  29.553  0.00  0.00     0.058 A 
ATOM      3  C   UNL d   1      57.571  -0.556  30.036  0.00  0.00     0.013 A 
ATOM      4  C   UNL d   1      58.579  -0.162  30.945  0.00  0.00     0.013 A 
ATOM      5  C   UNL d   1      58.092  -0.434  29.409  0.00  0.00     0.005 A 
ATOM      6  C   UNL d   1      59.100  -0.040  30.317  0.00  0.00     0.005 A 
ENDROOT
BRANCH   2   7
ATOM      7  C   UNL d   1      59.400  -0.046  28.916  0.00  0.00     0.282 C 
ATOM      8  N   UNL d   1      59.892  -0.658  28.655  0.00  0.00    -0.165 NA
ATOM      9  O   UNL d   1      59.427   0.682  28.564  0.00  0.00    -0.265 OA
BRANCH   8  10
ATOM     10  C   UNL d   1      59.859  -1.384  29.012  0.00  0.00     0.297 A 
ATOM     11  O   UNL d   1      59.474  -2.016  28.630  0.00  0.00    -0.253 OA
ATOM     12  C   UNL d   1      59.535  -2.667  29.126  0.00  0.00     0.207 A 
ATOM     13  N   UNL d   1      59.946  -2.443  29.793  0.00  0.00    -0.119 NA
ATOM     14  N   UNL d   1      60.149  -1.648  29.727  0.00  0.00    -0.101 NA
BRANCH  12  15
ATOM     15  C   UNL d   1      59.207  -3.398  28.913  0.00  0.00     0.054 A 
ATOM     16  C   UNL d   1      59.708  -4.003  28.669  0.00  0.00     0.061 A 
ATOM     17 CL   UNL d   1      60.524  -3.881  28.637  0.00  0.00    -0.082 Cl
ATOM     18  C   UNL d   1      59.383  -4.732  28.456  0.00  0.00     0.011 A 
ATOM     19  C   UNL d   1      58.568  -4.864  28.485  0.00  0.00     0.001 A 
ATOM     20  C   UNL d   1      58.071  -4.265  28.727  0.00  0.00     0.000 A 
ATOM     21  C   UNL d   1      58.388  -3.532  28.941  0.00  0.00     0.004 A 
ENDBRANCH  12  15
ENDBRANCH   8  10
ENDBRANCH   2   7
BRANCH   1  22
ATOM     22  S   UNL d   1      57.267  -0.552  31.430  0.00  0.00     0.271 S 
ATOM     23  O   UNL d   1      57.509   0.151  31.796  0.00  0.00    -0.200 OA
ATOM     24  O   UNL d   1      57.026  -1.252  31.065  0.00  0.00    -0.200 OA
BRANCH  22  25
ATOM     25  N   UNL d   1      56.733  -0.698  32.035  0.00  0.00    -0.231 N 
ATOM     26  C   UNL d   1      56.253  -0.077  32.305  0.00  0.00     0.075 A 
ATOM     27  C   UNL d   1      56.315   0.672  31.970  0.00  0.00     0.020 C 
ATOM     28  C   UNL d   1      55.712  -0.212  32.914  0.00  0.00     0.018 A 
ATOM     29  C   UNL d   1      55.651  -0.961  33.249  0.00  0.00     0.003 A 
ATOM     30  C   UNL d   1      56.130  -1.574  32.976  0.00  0.00     0.020 A 
ATOM     31  C   UNL d   1      56.671  -1.438  32.368  0.00  0.00     0.092 A 
ENDBRANCH  22  25
ENDBRANCH   1  22
TORSDOF 5
ENDMDL
MODEL 2
REMARK VINA RESULT:      -1.4      1.620      4.692
REMARK  5 active torsions:
REMARK  status: ('A' for Active; 'I' for Inactive)
REMARK    1  A    between atoms: N_3  and  S_1 
REMARK    2  A    between atoms: C_11  and  S_1 
REMARK    3  A    between atoms: C_9  and  C_2 
REMARK    4  A    between atoms: C_4  and  N_7 
REMARK       I    between atoms: N_7  and  C_10 
REMARK    5  A    between atoms: C_10  and  C_14 
ROOT
ATOM      1  C   UNL d   1      59.178  -2.083  29.342  0.00  0.00     0.104 A 
ATOM      2  C   UNL d   1      59.386  -0.507  29.812  0.00  0.00     0.058 A 
ATOM      3  C   UNL d   1      59.586  -1.907  30.022  0.00  0.00     0.013 A 
ATOM      4  C   UNL d   1      58.870  -1.457  28.891  0.00  0.00     0.013 A 
ATOM      5  C   UNL d   1      59.693  -1.126  30.263  0.00  0.00     0.005 A 
ATOM      6  C   UNL d   1      58.977  -0.675  29.131  0.00  0.00     0.005 A 
ENDROOT
BRANCH   2   7
ATOM      7  C   UNL d   1      59.492   0.295  30.052  0.00  0.00     0.282 C 
ATOM      8  N   UNL d   1      58.907   0.682  30.492  0.00  0.00    -0.165 NA
ATOM      9  O   UNL d   1      60.173   0.680  29.847  0.00  0.00    -0.265 OA
BRANCH   8  10
ATOM     10  C   UNL d   1      58.228   0.290  30.693  0.00  0.00     0.297 A 
ATOM     11  O   UNL d   1      57.963   0.298  31.483  0.00  0.00    -0.253 OA
ATOM     12  C   UNL d   1      57.271  -0.142  31.507  0.00  0.00     0.207 A 
ATOM     13  N   UNL d   1      57.113  -0.412  30.756  0.00  0.00    -0.119 NA
ATOM     14  N   UNL d   1      57.703  -0.147  30.247  0.00  0.00    -0.101 NA
BRANCH  12  15
ATOM     15  C   UNL d   1      56.857  -0.248  32.219  0.00  0.00     0.054 A 
ATOM     16  C   UNL d   1      56.422  -0.937  32.327  0.00  0.00     0.061 A 
ATOM     17 CL   UNL d   1      56.399  -1.512  31.735  0.00  0.00    -0.082 Cl
ATOM     18  C   UNL d   1      56.010  -1.045  33.035  0.00  0.00     0.011 A 
ATOM     19  C   UNL d   1      56.027  -0.474  33.633  0.00  0.00     0.001 A 
ATOM     20  C   UNL d   1      56.458   0.209  33.526  0.00  0.00     0.000 A 
ATOM     21  C   UNL d   1      56.874   0.324  32.820  0.00  0.00     0.004 A 
ENDBRANCH  12  15
ENDBRANCH   8  10
ENDBRANCH   2   7
BRANCH   1  22
ATOM     22  S   UNL d   1      59.076  -2.877  29.109  0.00  0.00     0.271 S 
ATOM     23  O   UNL d   1      59.772  -2.848  28.661  0.00  0.00    -0.200 OA
ATOM     24  O   UNL d   1      58.382  -2.906  29.555  0.00  0.00    -0.200 OA
BRANCH  22  25
ATOM     25  N   UNL d   1      58.955  -3.659  28.893  0.00  0.00    -0.231 N 
ATOM     26  C   UNL d   1      59.613  -4.129  28.706  0.00  0.00     0.075 A 
ATOM     27  C   UNL d   1      60.372  -3.814  28.737  0.00  0.00     0.020 C 
ATOM     28  C   UNL d   1      59.503  -4.918  28.487  0.00  0.00     0.018 A 
ATOM     29  C   UNL d   1      58.744  -5.233  28.456  0.00  0.00     0.003 A 
ATOM     30  C   UNL d   1      58.095  -4.761  28.643  0.00  0.00     0.020 A 
ATOM     31  C   UNL d   1      58.205  -3.973  28.862  0.00  0.00     0.092 A 
ENDBRANCH  22  25
ENDBRANCH   1  22
TORSDOF 5
ENDMDL
