MODEL 1
REMARK VINA RESULT:      89.7      0.000      0.000
REMARK  3 active torsions:
REMARK  status: ('A' for Active; 'I' for Inactive)
REMARK    1  A    between atoms: C_2  and  C_1 
REMARK    2  A    between atoms: C_3  and  C_1 
REMARK       I    between atoms: N_4  and  C_2 
REMARK    3  A    between atoms: C_6  and  N_4 
ROOT
ATOM      1  C   UNL d   1     -57.441 -99.432 -44.292  0.00  0.00     0.150 A 
ATOM      2  O   UNL d   1     -58.058 -99.541 -45.821  0.00  0.00    -0.304 OA
ATOM      3  C   UNL d   1     -56.932 -99.526 -44.937  0.00  0.00     0.019 A 
ATOM      4  C   UNL d   1     -58.247 -99.394 -44.412  0.00  0.00     0.019 A 
ATOM      5  C   UNL d   1     -58.558 -99.449 -45.183  0.00  0.00     0.119 A 
ATOM      6  C   UNL d   1     -57.242 -99.580 -45.702  0.00  0.00     0.119 A 
ENDROOT
BRANCH   1   7
ATOM      7  C   UNL d   1     -56.624 -99.471 -44.169  0.00  0.00     0.315 C 
ATOM      8  N   UNL d   1     -56.250-100.199 -44.069  0.00  0.00    -0.367 NA
ATOM      9  O   UNL d   1     -56.185 -98.775 -44.149  0.00  0.00    -0.255 OA
BRANCH   8  10
ATOM     10  C   UNL d   1     -55.871-100.922 -43.968  0.00  0.00     0.135 A 
ATOM     11  C   UNL d   1     -55.717-101.175 -43.210  0.00  0.00     0.032 A 
ATOM     12  C   UNL d   1     -55.332-101.910 -43.104  0.00  0.00     0.003 A 
ATOM     13  C   UNL d   1     -55.173-102.172 -42.334  0.00  0.00     0.000 C 
ATOM     14  C   UNL d   1     -55.126-102.342 -43.738  0.00  0.00     0.000 A 
ATOM     15  C   UNL d   1     -55.279-102.090 -44.492  0.00  0.00     0.003 A 
ATOM     16  C   UNL d   1     -55.653-101.377 -44.602  0.00  0.00     0.032 A 
ATOM     17  C   UNL d   1     -55.062-102.543 -45.143  0.00  0.00     0.000 C 
ENDBRANCH   8  10
ENDBRANCH   1   7
BRANCH   1  18
ATOM     18  C   UNL d   1     -57.949 -99.338 -43.643  0.00  0.00     0.024 A 
ATOM     19  S   UNL d   1     -57.918 -99.752 -42.924  0.00  0.00    -0.090 SA
ATOM     20  C   UNL d   1     -58.526 -99.486 -42.434  0.00  0.00     0.035 A 
ATOM     21  C   UNL d   1     -58.946 -98.904 -42.833  0.00  0.00     0.007 A 
ATOM     22  C   UNL d   1     -58.590 -98.811 -43.585  0.00  0.00     0.004 A 
ENDBRANCH   1  18
TORSDOF 3
ENDMDL
