MODEL 1
REMARK VINA RESULT:      -1.4      0.000      0.000
REMARK  4 active torsions:
REMARK  status: ('A' for Active; 'I' for Inactive)
REMARK    1  A    between atoms: N_3  and  C_1 
REMARK       I    between atoms: C_7  and  N_3 
REMARK    2  A    between atoms: C_12  and  N_3 
REMARK    3  A    between atoms: C_17  and  C_12 
REMARK    4  A    between atoms: N_18  and  C_17 
ROOT
ATOM      1  C   UNL d   1      32.847  19.272 -22.982  0.00  0.00     0.182 A 
ATOM      2  N   UNL d   1      32.275  18.985 -23.520  0.00  0.00    -0.222 NA
ATOM      3  S   UNL d   1      33.232  18.618 -22.645  0.00  0.00    -0.048 SA
ATOM      4  C   UNL d   1      32.310  18.160 -23.512  0.00  0.00     0.092 A 
ATOM      5  C   UNL d   1      32.895  17.935 -22.977  0.00  0.00     0.052 A 
ATOM      6  C   UNL d   1      31.883  17.597 -23.924  0.00  0.00     0.046 A 
ATOM      7  C   UNL d   1      33.050  17.135 -22.858  0.00  0.00     0.034 A 
ATOM      8  C   UNL d   1      32.043  16.806 -23.800  0.00  0.00     0.121 A 
ATOM      9  C   UNL d   1      32.620  16.574 -23.273  0.00  0.00     0.120 A 
ATOM     10  O   UNL d   1      32.650  15.745 -23.268  0.00  0.00    -0.300 OA
ATOM     11  O   UNL d   1      31.709  16.120 -24.130  0.00  0.00    -0.299 OA
ATOM     12  C   UNL d   1      32.084  15.462 -23.802  0.00  0.00     0.304 A 
ENDROOT
BRANCH   1  13
ATOM     13  N   UNL d   1      32.996  20.072 -22.821  0.00  0.00    -0.251 N 
ATOM     14  C   UNL d   1      33.092  20.597 -23.455  0.00  0.00     0.267 C 
ATOM     15  O   UNL d   1      33.039  20.332 -24.227  0.00  0.00    -0.267 OA
ATOM     16  C   UNL d   1      33.241  21.397 -23.293  0.00  0.00     0.066 C 
BRANCH  13  17
ATOM     17  C   UNL d   1      33.049  20.340 -22.040  0.00  0.00     0.104 C 
BRANCH  17  18
ATOM     18  C   UNL d   1      32.495  20.879 -21.751  0.00  0.00     0.100 C 
BRANCH  18  19
ATOM     19  N   UNL d   1      32.547  21.147 -20.970  0.00  0.00    -0.299 N 
ATOM     20  C   UNL d   1      32.013  21.709 -20.690  0.00  0.00     0.100 C 
ATOM     21  C   UNL d   1      33.133  20.851 -20.470  0.00  0.00     0.100 C 
ENDBRANCH  18  19
ENDBRANCH  17  18
ENDBRANCH  13  17
ENDBRANCH   1  13
TORSDOF 4
ENDMDL
MODEL 2
REMARK VINA RESULT:      -1.3      1.637      4.278
REMARK  4 active torsions:
REMARK  status: ('A' for Active; 'I' for Inactive)
REMARK    1  A    between atoms: N_3  and  C_1 
REMARK       I    between atoms: C_7  and  N_3 
REMARK    2  A    between atoms: C_12  and  N_3 
REMARK    3  A    between atoms: C_17  and  C_12 
REMARK    4  A    between atoms: N_18  and  C_17 
ROOT
ATOM      1  C   UNL d   1      32.975  19.423 -22.952  0.00  0.00     0.182 A 
ATOM      2  N   UNL d   1      33.200  19.242 -22.167  0.00  0.00    -0.222 NA
ATOM      3  S   UNL d   1      32.741  20.220 -22.973  0.00  0.00    -0.048 SA
ATOM      4  C   UNL d   1      33.105  19.924 -21.712  0.00  0.00     0.092 A 
ATOM      5  C   UNL d   1      32.824  20.523 -22.204  0.00  0.00     0.052 A 
ATOM      6  C   UNL d   1      33.241  20.066 -20.918  0.00  0.00     0.046 A 
ATOM      7  C   UNL d   1      32.679  21.271 -21.891  0.00  0.00     0.034 A 
ATOM      8  C   UNL d   1      33.094  20.811 -20.615  0.00  0.00     0.121 A 
ATOM      9  C   UNL d   1      32.816  21.408 -21.095  0.00  0.00     0.120 A 
ATOM     10  O   UNL d   1      32.723  22.091 -20.632  0.00  0.00    -0.300 OA
ATOM     11  O   UNL d   1      33.176  21.118 -19.847  0.00  0.00    -0.299 OA
ATOM     12  C   UNL d   1      32.947  21.910 -19.856  0.00  0.00     0.304 A 
ENDROOT
BRANCH   1  13
ATOM     13  N   UNL d   1      32.985  18.893 -23.590  0.00  0.00    -0.251 N 
ATOM     14  C   UNL d   1      33.120  19.189 -24.353  0.00  0.00     0.267 C 
ATOM     15  O   UNL d   1      33.241  19.989 -24.474  0.00  0.00    -0.267 OA
ATOM     16  C   UNL d   1      33.131  18.659 -24.991  0.00  0.00     0.066 C 
BRANCH  13  17
ATOM     17  C   UNL d   1      32.863  18.084 -23.467  0.00  0.00     0.104 C 
BRANCH  17  18
ATOM     18  C   UNL d   1      32.156  17.733 -23.704  0.00  0.00     0.100 C 
BRANCH  18  19
ATOM     19  N   UNL d   1      32.007  16.940 -23.524  0.00  0.00    -0.299 N 
ATOM     20  C   UNL d   1      31.230  16.669 -23.465  0.00  0.00     0.100 C 
ATOM     21  C   UNL d   1      32.634  16.418 -23.404  0.00  0.00     0.100 C 
ENDBRANCH  18  19
ENDBRANCH  17  18
ENDBRANCH  13  17
ENDBRANCH   1  13
TORSDOF 4
ENDMDL
MODEL 3
REMARK VINA RESULT:      -1.1      1.484      4.213
REMARK  4 active torsions:
REMARK  status: ('A' for Active; 'I' for Inactive)
REMARK    1  A    between atoms: N_3  and  C_1 
REMARK       I    between atoms: C_7  and  N_3 
REMARK    2  A    between atoms: C_12  and  N_3 
REMARK    3  A    between atoms: C_17  and  C_12 
REMARK    4  A    between atoms: N_18  and  C_17 
ROOT
ATOM      1  C   UNL d   1      32.616  18.341 -23.423  0.00  0.00     0.182 A 
ATOM      2  N   UNL d   1      32.475  19.123 -23.684  0.00  0.00    -0.222 NA
ATOM      3  S   UNL d   1      32.877  18.378 -22.635  0.00  0.00    -0.048 SA
ATOM      4  C   UNL d   1      32.648  19.635 -23.060  0.00  0.00     0.092 A 
ATOM      5  C   UNL d   1      32.895  19.180 -22.418  0.00  0.00     0.052 A 
ATOM      6  C   UNL d   1      32.611  20.450 -23.004  0.00  0.00     0.046 A 
ATOM      7  C   UNL d   1      33.104  19.553 -21.714  0.00  0.00     0.034 A 
ATOM      8  C   UNL d   1      32.821  20.812 -22.303  0.00  0.00     0.121 A 
ATOM      9  C   UNL d   1      33.065  20.370 -21.663  0.00  0.00     0.120 A 
ATOM     10  O   UNL d   1      33.238  20.889 -21.039  0.00  0.00    -0.300 OA
ATOM     11  O   UNL d   1      32.840  21.612 -22.081  0.00  0.00    -0.299 OA
ATOM     12  C   UNL d   1      33.098  21.663 -21.299  0.00  0.00     0.304 A 
ENDROOT
BRANCH   1  13
ATOM     13  N   UNL d   1      32.511  17.655 -23.877  0.00  0.00    -0.251 N 
ATOM     14  C   UNL d   1      32.830  17.630 -24.642  0.00  0.00     0.267 C 
ATOM     15  O   UNL d   1      33.241  18.270 -24.944  0.00  0.00    -0.267 OA
ATOM     16  C   UNL d   1      32.725  16.944 -25.097  0.00  0.00     0.066 C 
BRANCH  13  17
ATOM     17  C   UNL d   1      32.096  17.008 -23.573  0.00  0.00     0.104 C 
BRANCH  17  18
ATOM     18  C   UNL d   1      31.340  16.834 -23.852  0.00  0.00     0.100 C 
BRANCH  18  19
ATOM     19  N   UNL d   1      30.920  16.194 -23.539  0.00  0.00    -0.299 N 
ATOM     20  C   UNL d   1      31.325  15.537 -23.250  0.00  0.00     0.100 C 
ATOM     21  C   UNL d   1      30.096  16.213 -23.515  0.00  0.00     0.100 C 
ENDBRANCH  18  19
ENDBRANCH  17  18
ENDBRANCH  13  17
ENDBRANCH   1  13
TORSDOF 4
ENDMDL
MODEL 4
REMARK VINA RESULT:      -0.7      1.192      1.625
REMARK  4 active torsions:
REMARK  status: ('A' for Active; 'I' for Inactive)
REMARK    1  A    between atoms: N_3  and  C_1 
REMARK       I    between atoms: C_7  and  N_3 
REMARK    2  A    between atoms: C_12  and  N_3 
REMARK    3  A    between atoms: C_17  and  C_12 
REMARK    4  A    between atoms: N_18  and  C_17 
ROOT
ATOM      1  C   UNL d   1      33.237  20.552 -22.925  0.00  0.00     0.182 A 
ATOM      2  N   UNL d   1      33.241  19.944 -22.351  0.00  0.00    -0.222 NA
ATOM      3  S   UNL d   1      33.233  20.195 -23.675  0.00  0.00    -0.048 SA
ATOM      4  C   UNL d   1      33.239  19.220 -22.747  0.00  0.00     0.092 A 
ATOM      5  C   UNL d   1      33.234  19.372 -23.557  0.00  0.00     0.052 A 
ATOM      6  C   UNL d   1      33.240  18.451 -22.467  0.00  0.00     0.046 A 
ATOM      7  C   UNL d   1      33.230  18.743 -24.088  0.00  0.00     0.034 A 
ATOM      8  C   UNL d   1      33.237  17.833 -23.001  0.00  0.00     0.121 A 
ATOM      9  C   UNL d   1      33.232  17.975 -23.804  0.00  0.00     0.120 A 
ATOM     10  O   UNL d   1      33.230  17.244 -24.197  0.00  0.00    -0.300 OA
ATOM     11  O   UNL d   1      33.238  17.010 -22.888  0.00  0.00    -0.299 OA
ATOM     12  C   UNL d   1      33.233  16.643 -23.627  0.00  0.00     0.304 A 
ENDROOT
BRANCH   1  13
ATOM     13  N   UNL d   1      33.238  21.365 -22.764  0.00  0.00    -0.251 N 
ATOM     14  C   UNL d   1      33.238  21.899 -23.399  0.00  0.00     0.267 C 
ATOM     15  O   UNL d   1      33.236  21.627 -24.171  0.00  0.00    -0.267 OA
ATOM     16  C   UNL d   1      33.239  22.712 -23.239  0.00  0.00     0.066 C 
BRANCH  13  17
ATOM     17  C   UNL d   1      33.240  21.640 -21.984  0.00  0.00     0.104 C 
BRANCH  17  18
ATOM     18  C   UNL d   1      32.592  22.060 -21.693  0.00  0.00     0.100 C 
BRANCH  18  19
ATOM     19  N   UNL d   1      32.529  22.214 -20.883  0.00  0.00    -0.299 N 
ATOM     20  C   UNL d   1      33.161  22.555 -20.477  0.00  0.00     0.100 C 
ATOM     21  C   UNL d   1      31.834  22.028 -20.480  0.00  0.00     0.100 C 
ENDBRANCH  18  19
ENDBRANCH  17  18
ENDBRANCH  13  17
ENDBRANCH   1  13
TORSDOF 4
ENDMDL
MODEL 5
REMARK VINA RESULT:      -0.2      2.133      4.840
REMARK  4 active torsions:
REMARK  status: ('A' for Active; 'I' for Inactive)
REMARK    1  A    between atoms: N_3  and  C_1 
REMARK       I    between atoms: C_7  and  N_3 
REMARK    2  A    between atoms: C_12  and  N_3 
REMARK    3  A    between atoms: C_17  and  C_12 
REMARK    4  A    between atoms: N_18  and  C_17 
ROOT
ATOM      1  C   UNL d   1      32.980  20.999 -22.366  0.00  0.00     0.182 A 
ATOM      2  N   UNL d   1      32.603  21.745 -22.371  0.00  0.00    -0.222 NA
ATOM      3  S   UNL d   1      33.235  20.847 -21.591  0.00  0.00    -0.048 SA
ATOM      4  C   UNL d   1      32.627  22.048 -21.604  0.00  0.00     0.092 A 
ATOM      5  C   UNL d   1      33.013  21.499 -21.125  0.00  0.00     0.052 A 
ATOM      6  C   UNL d   1      32.345  22.749 -21.291  0.00  0.00     0.046 A 
ATOM      7  C   UNL d   1      33.116  21.660 -20.324  0.00  0.00     0.034 A 
ATOM      8  C   UNL d   1      32.451  22.901 -20.495  0.00  0.00     0.121 A 
ATOM      9  C   UNL d   1      32.832  22.364 -20.015  0.00  0.00     0.120 A 
ATOM     10  O   UNL d   1      32.853  22.673 -19.245  0.00  0.00    -0.300 OA
ATOM     11  O   UNL d   1      32.231  23.551 -20.026  0.00  0.00    -0.299 OA
ATOM     12  C   UNL d   1      32.479  23.412 -19.252  0.00  0.00     0.304 A 
ENDROOT
BRANCH   1  13
ATOM     13  N   UNL d   1      33.079  20.505 -23.025  0.00  0.00    -0.251 N 
ATOM     14  C   UNL d   1      33.143  20.849 -23.777  0.00  0.00     0.267 C 
ATOM     15  O   UNL d   1      33.109  21.661 -23.868  0.00  0.00    -0.267 OA
ATOM     16  C   UNL d   1      33.241  20.354 -24.436  0.00  0.00     0.066 C 
BRANCH  13  17
ATOM     17  C   UNL d   1      33.112  19.684 -22.934  0.00  0.00     0.104 C 
BRANCH  17  18
ATOM     18  C   UNL d   1      32.787  19.190 -23.509  0.00  0.00     0.100 C 
BRANCH  18  19
ATOM     19  N   UNL d   1      32.644  18.394 -23.339  0.00  0.00    -0.299 N 
ATOM     20  C   UNL d   1      33.234  17.934 -22.991  0.00  0.00     0.100 C 
ATOM     21  C   UNL d   1      31.912  18.058 -23.517  0.00  0.00     0.100 C 
ENDBRANCH  18  19
ENDBRANCH  17  18
ENDBRANCH  13  17
ENDBRANCH   1  13
TORSDOF 4
ENDMDL
MODEL 6
REMARK VINA RESULT:       0.7      3.024      5.624
REMARK  4 active torsions:
REMARK  status: ('A' for Active; 'I' for Inactive)
REMARK    1  A    between atoms: N_3  and  C_1 
REMARK       I    between atoms: C_7  and  N_3 
REMARK    2  A    between atoms: C_12  and  N_3 
REMARK    3  A    between atoms: C_17  and  C_12 
REMARK    4  A    between atoms: N_18  and  C_17 
ROOT
ATOM      1  C   UNL d   1      32.660  22.024 -21.508  0.00  0.00     0.182 A 
ATOM      2  N   UNL d   1      33.218  22.506 -21.115  0.00  0.00    -0.222 NA
ATOM      3  S   UNL d   1      32.003  21.934 -21.007  0.00  0.00    -0.048 SA
ATOM      4  C   UNL d   1      32.905  22.710 -20.379  0.00  0.00     0.092 A 
ATOM      5  C   UNL d   1      32.161  22.360 -20.312  0.00  0.00     0.052 A 
ATOM      6  C   UNL d   1      33.207  23.167 -19.771  0.00  0.00     0.046 A 
ATOM      7  C   UNL d   1      31.720  22.474 -19.626  0.00  0.00     0.034 A 
ATOM      8  C   UNL d   1      32.763  23.274 -19.094  0.00  0.00     0.121 A 
ATOM      9  C   UNL d   1      32.027  22.932 -19.020  0.00  0.00     0.120 A 
ATOM     10  O   UNL d   1      31.717  23.140 -18.279  0.00  0.00    -0.300 OA
ATOM     11  O   UNL d   1      32.917  23.700 -18.397  0.00  0.00    -0.299 OA
ATOM     12  C   UNL d   1      32.271  23.618 -17.891  0.00  0.00     0.304 A 
ENDROOT
BRANCH   1  13
ATOM     13  N   UNL d   1      32.754  21.697 -22.264  0.00  0.00    -0.251 N 
ATOM     14  C   UNL d   1      33.011  20.911 -22.331  0.00  0.00     0.267 C 
ATOM     15  O   UNL d   1      33.169  20.466 -21.663  0.00  0.00    -0.267 OA
ATOM     16  C   UNL d   1      33.105  20.584 -23.087  0.00  0.00     0.066 C 
BRANCH  13  17
ATOM     17  C   UNL d   1      32.595  22.147 -22.940  0.00  0.00     0.104 C 
BRANCH  17  18
ATOM     18  C   UNL d   1      33.216  22.451 -23.389  0.00  0.00     0.100 C 
BRANCH  18  19
ATOM     19  N   UNL d   1      33.058  22.855 -24.093  0.00  0.00    -0.299 N 
ATOM     20  C   UNL d   1      33.107  22.460 -24.816  0.00  0.00     0.100 C 
ATOM     21  C   UNL d   1      32.852  23.654 -24.074  0.00  0.00     0.100 C 
ENDBRANCH  18  19
ENDBRANCH  17  18
ENDBRANCH  13  17
ENDBRANCH   1  13
TORSDOF 4
ENDMDL
