MODEL 1
REMARK VINA RESULT:      24.7      0.000      0.000
REMARK  3 active torsions:
REMARK  status: ('A' for Active; 'I' for Inactive)
REMARK    1  A    between atoms: C_2  and  C_4 
REMARK    2  A    between atoms: N_3  and  C_2 
REMARK    3  A    between atoms: C_5  and  N_3 
ROOT
ATOM      1  N   UNL d   1      14.150  13.156  -2.103  0.00  0.00    -0.243 NA
ATOM      2  C   UNL d   1      13.776  12.439  -2.314  0.00  0.00     0.109 A 
ATOM      3  C   UNL d   1      14.588  13.202  -1.406  0.00  0.00     0.081 A 
ATOM      4  C   UNL d   1      13.846  11.780  -1.824  0.00  0.00     0.021 A 
ATOM      5  C   UNL d   1      14.656  12.533  -0.915  0.00  0.00     0.018 A 
ATOM      6  C   UNL d   1      14.285  11.823  -1.123  0.00  0.00     0.003 A 
ATOM      7  C   UNL d   1      14.960  13.904  -1.192  0.00  0.00     0.019 A 
ATOM      8  C   UNL d   1      15.093  12.581  -0.221  0.00  0.00     0.002 A 
ATOM      9  C   UNL d   1      15.393  13.945  -0.500  0.00  0.00     0.002 A 
ATOM     10  C   UNL d   1      15.459  13.284  -0.014  0.00  0.00     0.000 A 
ENDROOT
BRANCH   2  11
ATOM     11  C   UNL d   1      13.336  12.395  -3.015  0.00  0.00     0.153 C 
ATOM     12  S   UNL d   1      12.794  11.781  -3.127  0.00  0.00    -0.056 SA
BRANCH  11  13
ATOM     13  N   UNL d   1      13.442  12.966  -3.600  0.00  0.00    -0.233 NA
BRANCH  13  14
ATOM     14  C   UNL d   1      13.353  12.761  -4.394  0.00  0.00     0.082 A 
ATOM     15  C   UNL d   1      13.104  13.333  -4.943  0.00  0.00     0.018 A 
ATOM     16  C   UNL d   1      12.945  14.100  -4.697  0.00  0.00     0.002 C 
ATOM     17  C   UNL d   1      13.018  13.121  -5.736  0.00  0.00     0.002 A 
ATOM     18  C   UNL d   1      13.177  12.350  -5.986  0.00  0.00     0.000 A 
ATOM     19  C   UNL d   1      13.425  11.785  -5.436  0.00  0.00     0.002 A 
ATOM     20  C   UNL d   1      13.513  11.991  -4.638  0.00  0.00     0.019 A 
ENDBRANCH  13  14
ENDBRANCH  11  13
ENDBRANCH   2  11
TORSDOF 3
ENDMDL
