MODEL 1
REMARK VINA RESULT:      -0.6      0.000      0.000
REMARK  2 active torsions:
REMARK  status: ('A' for Active; 'I' for Inactive)
REMARK    1  A    between atoms: CA_3  and  C_1 
REMARK    2  A    between atoms: C_2  and  CA_3 
ROOT
ATOM      1  C   UNL d   1      24.175  13.031  -1.153  0.00  0.00     0.026 A 
ATOM      2  C   UNL d   1      23.387  13.092  -0.895  0.00  0.00     0.013 A 
ATOM      3  C   UNL d   1      23.182  13.652  -0.327  0.00  0.00     0.058 A 
ATOM      4 CL   UNL d   1      22.400  13.710  -0.073  0.00  0.00    -0.082 Cl
ATOM      5  C   UNL d   1      24.749  13.533  -0.840  0.00  0.00     0.002 A 
ATOM      6  C   UNL d   1      24.537  14.096  -0.268  0.00  0.00     0.001 A 
ATOM      7  C   UNL d   1      23.757  14.154  -0.014  0.00  0.00     0.011 A 
ENDROOT
BRANCH   1   8
ATOM      8  CA  UNL d   1      24.378  12.468  -1.723  0.00  0.00     0.167 C 
ATOM      9  N   UNL d   1      24.768  11.779  -1.503  0.00  0.00    -0.142 N 
BRANCH   8  10
ATOM     10  C   UNL d   1      24.188  12.601  -2.515  0.00  0.00     0.231 C 
ATOM     11  O   UNL d   1      23.426  12.461  -2.793  0.00  0.00    -0.643 OA
ATOM     12  OXT UNL d   1      24.767  12.877  -3.038  0.00  0.00    -0.643 OA
ENDBRANCH   8  10
ENDBRANCH   1   8
TORSDOF 2
ENDMDL
MODEL 2
REMARK VINA RESULT:       1.5      2.025      2.571
REMARK  2 active torsions:
REMARK  status: ('A' for Active; 'I' for Inactive)
REMARK    1  A    between atoms: CA_3  and  C_1 
REMARK    2  A    between atoms: C_2  and  CA_3 
ROOT
ATOM      1  C   UNL d   1      23.579  12.454  -0.958  0.00  0.00     0.026 A 
ATOM      2  C   UNL d   1      23.501  12.783  -1.716  0.00  0.00     0.013 A 
ATOM      3  C   UNL d   1      24.054  12.610  -2.301  0.00  0.00     0.058 A 
ATOM      4 CL   UNL d   1      23.974  12.939  -3.052  0.00  0.00    -0.082 Cl
ATOM      5  C   UNL d   1      24.213  11.952  -0.792  0.00  0.00     0.002 A 
ATOM      6  C   UNL d   1      24.768  11.781  -1.385  0.00  0.00     0.001 A 
ATOM      7  C   UNL d   1      24.688  12.109  -2.135  0.00  0.00     0.011 A 
ENDROOT
BRANCH   1   8
ATOM      8  CA  UNL d   1      23.022  12.629  -0.374  0.00  0.00     0.167 C 
ATOM      9  N   UNL d   1      22.585  12.027  -0.024  0.00  0.00    -0.142 N 
BRANCH   8  10
ATOM     10  C   UNL d   1      22.906  13.412  -0.142  0.00  0.00     0.231 C 
ATOM     11  O   UNL d   1      22.146  13.709  -0.030  0.00  0.00    -0.643 OA
ATOM     12  OXT UNL d   1      23.557  13.908  -0.019  0.00  0.00    -0.643 OA
ENDBRANCH   8  10
ENDBRANCH   1   8
TORSDOF 2
ENDMDL
