MODEL 1
REMARK VINA RESULT:      -4.7      0.000      0.000
REMARK  6 active torsions:
REMARK  status: ('A' for Active; 'I' for Inactive)
REMARK       I    between atoms: C_2  and  N_1 
REMARK    1  A    between atoms: C_3  and  C_2 
REMARK    2  A    between atoms: C_12  and  C_4 
REMARK       I    between atoms: C_5  and  N_8 
REMARK    3  A    between atoms: C_6  and  C_5 
REMARK       I    between atoms: N_9  and  C_6 
REMARK    4  A    between atoms: N_8  and  C_12 
REMARK    5  A    between atoms: C_19  and  N_9 
REMARK    6  A    between atoms: C_21  and  C_19 
ROOT
ATOM      1  C   UNL d   1     -41.676-121.677 -51.061  0.00  0.00     0.337 C 
ATOM      2  N   UNL d   1     -41.618-121.843 -51.861  0.00  0.00    -0.199 NA
ATOM      3  O   UNL d   1     -41.233-121.066 -50.736  0.00  0.00    -0.260 OA
ENDROOT
BRANCH   2   4
ATOM      4  C   UNL d   1     -42.061-122.455 -52.186  0.00  0.00     0.146 C 
BRANCH   4   5
ATOM      5  C   UNL d   1     -41.754-122.891 -52.825  0.00  0.00     0.190 A 
ATOM      6  N   UNL d   1     -41.850-122.695 -53.617  0.00  0.00    -0.250 N 
ATOM      7  C   UNL d   1     -42.242-122.067 -53.993  0.00  0.00     0.272 C 
ATOM      8  C   UNL d   1     -41.458-123.275 -54.058  0.00  0.00     0.112 A 
ATOM      9  O   UNL d   1     -42.630-121.494 -53.539  0.00  0.00    -0.266 OA
ATOM     10  C   UNL d   1     -41.127-123.817 -53.536  0.00  0.00     0.144 A 
ATOM     11  O   UNL d   1     -41.317-123.570 -52.768  0.00  0.00    -0.285 OA
BRANCH   7  12
ATOM     12  C   UNL d   1     -42.246-122.011 -54.813  0.00  0.00     0.086 A 
ATOM     13  S   UNL d   1     -41.673-121.737 -55.346  0.00  0.00    -0.082 SA
ATOM     14  C   UNL d   1     -41.990-121.813 -56.117  0.00  0.00     0.036 A 
ATOM     15  C   UNL d   1     -42.749-122.130 -56.044  0.00  0.00     0.008 A 
ATOM     16  C   UNL d   1     -42.910-122.253 -55.247  0.00  0.00     0.012 A 
ENDBRANCH   7  12
ENDBRANCH   4   5
ENDBRANCH   2   4
BRANCH   1  17
ATOM     17  C   UNL d   1     -42.177-122.121 -50.575  0.00  0.00     0.337 C 
ATOM     18  N   UNL d   1     -41.883-122.510 -49.912  0.00  0.00    -0.202 NA
ATOM     19  O   UNL d   1     -42.978-122.173 -50.757  0.00  0.00    -0.260 OA
BRANCH  18  20
ATOM     20  C   UNL d   1     -42.383-122.949 -49.432  0.00  0.00     0.102 C 
BRANCH  20  21
ATOM     21  C   UNL d   1     -42.136-123.212 -48.672  0.00  0.00     0.019 A 
ATOM     22  C   UNL d   1     -42.640-123.113 -48.035  0.00  0.00     0.002 A 
ATOM     23  C   UNL d   1     -42.397-123.373 -47.284  0.00  0.00     0.000 A 
ATOM     24  C   UNL d   1     -41.667-123.722 -47.184  0.00  0.00     0.000 A 
ATOM     25  C   UNL d   1     -41.160-123.817 -47.845  0.00  0.00     0.000 A 
ATOM     26  C   UNL d   1     -41.407-123.556 -48.593  0.00  0.00     0.002 A 
ENDBRANCH  20  21
ENDBRANCH  18  20
ENDBRANCH   1  17
TORSDOF 6
ENDMDL
MODEL 2
REMARK VINA RESULT:      -3.7      1.866      5.742
REMARK  6 active torsions:
REMARK  status: ('A' for Active; 'I' for Inactive)
REMARK       I    between atoms: C_2  and  N_1 
REMARK    1  A    between atoms: C_3  and  C_2 
REMARK    2  A    between atoms: C_12  and  C_4 
REMARK       I    between atoms: C_5  and  N_8 
REMARK    3  A    between atoms: C_6  and  C_5 
REMARK       I    between atoms: N_9  and  C_6 
REMARK    4  A    between atoms: N_8  and  C_12 
REMARK    5  A    between atoms: C_19  and  N_9 
REMARK    6  A    between atoms: C_21  and  C_19 
ROOT
ATOM      1  C   UNL d   1     -41.758-121.770 -51.429  0.00  0.00     0.337 C 
ATOM      2  N   UNL d   1     -41.949-122.069 -50.690  0.00  0.00    -0.199 NA
ATOM      3  O   UNL d   1     -41.782-120.959 -51.560  0.00  0.00    -0.260 OA
ENDROOT
BRANCH   2   4
ATOM      4  C   UNL d   1     -41.926-122.881 -50.558  0.00  0.00     0.146 C 
BRANCH   4   5
ATOM      5  C   UNL d   1     -42.513-123.238 -50.089  0.00  0.00     0.190 A 
ATOM      6  N   UNL d   1     -42.443-123.391 -49.284  0.00  0.00    -0.250 N 
ATOM      7  C   UNL d   1     -41.831-123.253 -48.742  0.00  0.00     0.272 C 
ATOM      8  C   UNL d   1     -43.150-123.748 -49.045  0.00  0.00     0.112 A 
ATOM      9  O   UNL d   1     -41.129-122.895 -48.996  0.00  0.00    -0.266 OA
ATOM     10  C   UNL d   1     -43.643-123.810 -49.699  0.00  0.00     0.144 A 
ATOM     11  O   UNL d   1     -43.237-123.489 -50.347  0.00  0.00    -0.285 OA
BRANCH   7  12
ATOM     12  C   UNL d   1     -41.917-123.469 -47.953  0.00  0.00     0.086 A 
ATOM     13  S   UNL d   1     -42.594-123.581 -47.487  0.00  0.00    -0.082 SA
ATOM     14  C   UNL d   1     -42.338-123.800 -46.721  0.00  0.00     0.036 A 
ATOM     15  C   UNL d   1     -41.512-123.817 -46.730  0.00  0.00     0.008 A 
ATOM     16  C   UNL d   1     -41.250-123.616 -47.483  0.00  0.00     0.012 A 
ENDBRANCH   7  12
ENDBRANCH   4   5
ENDBRANCH   2   4
BRANCH   1  17
ATOM     17  C   UNL d   1     -41.541-122.277 -52.044  0.00  0.00     0.337 C 
ATOM     18  N   UNL d   1     -41.693-122.076 -52.828  0.00  0.00    -0.202 NA
ATOM     19  O   UNL d   1     -41.170-122.991 -51.871  0.00  0.00    -0.260 OA
BRANCH  18  20
ATOM     20  C   UNL d   1     -41.476-122.582 -53.436  0.00  0.00     0.102 C 
BRANCH  20  21
ATOM     21  C   UNL d   1     -41.748-122.458 -54.223  0.00  0.00     0.019 A 
ATOM     22  C   UNL d   1     -42.551-122.383 -54.358  0.00  0.00     0.002 A 
ATOM     23  C   UNL d   1     -42.819-122.261 -55.136  0.00  0.00     0.000 A 
ATOM     24  C   UNL d   1     -42.289-122.216 -55.754  0.00  0.00     0.000 A 
ATOM     25  C   UNL d   1     -41.468-122.294 -55.601  0.00  0.00     0.000 A 
ATOM     26  C   UNL d   1     -41.206-122.416 -54.823  0.00  0.00     0.002 A 
ENDBRANCH  20  21
ENDBRANCH  18  20
ENDBRANCH   1  17
TORSDOF 6
ENDMDL
