MODEL 1
REMARK VINA RESULT:      27.2      0.000      0.000
REMARK  6 active torsions:
REMARK  status: ('A' for Active; 'I' for Inactive)
REMARK    1  A    between atoms: N_2  and  C_1 
REMARK    2  A    between atoms: N_3  and  C_1 
REMARK       I    between atoms: C_4  and  N_2 
REMARK    3  A    between atoms: C_5  and  N_3 
REMARK    4  A    between atoms: C_14  and  C_4 
REMARK    5  A    between atoms: C_8  and  O_10 
REMARK    6  A    between atoms: O_10  and  C_14 
ROOT
ATOM      1  N   UNL d   1      14.725  13.176  -1.413  0.00  0.00    -0.177 NA
ATOM      2  C   UNL d   1      14.462  12.439  -1.688  0.00  0.00     0.306 C 
ATOM      3  O   UNL d   1      14.429  11.792  -1.134  0.00  0.00    -0.263 OA
ENDROOT
BRANCH   2   4
ATOM      4  C   UNL d   1      14.234  12.308  -2.464  0.00  0.00     0.185 C 
BRANCH   4   5
ATOM      5  O   UNL d   1      13.887  12.888  -2.922  0.00  0.00    -0.300 OA
BRANCH   5   6
ATOM      6  C   UNL d   1      13.617  12.727  -3.663  0.00  0.00     0.106 A 
ATOM      7  C   UNL d   1      13.393  13.360  -4.186  0.00  0.00     0.057 A 
ATOM      8  C   UNL d   1      13.117  13.163  -4.948  0.00  0.00     0.009 A 
ATOM      9 BR   UNL d   1      13.455  14.154  -3.927  0.00  0.00    -0.047 Br
ATOM     10  C   UNL d   1      13.053  12.424  -5.207  0.00  0.00     0.001 A 
ATOM     11  C   UNL d   1      13.279  11.785  -4.676  0.00  0.00     0.002 A 
ATOM     12  C   UNL d   1      12.775  12.246  -5.972  0.00  0.00     0.000 C 
ATOM     13  C   UNL d   1      13.552  11.973  -3.925  0.00  0.00     0.025 A 
ENDBRANCH   5   6
ENDBRANCH   4   5
ENDBRANCH   2   4
BRANCH   1  14
ATOM     14  C   UNL d   1      14.950  13.291  -0.629  0.00  0.00     0.225 C 
ATOM     15  S   UNL d   1      14.581  12.855  -0.017  0.00  0.00    -0.037 SA
BRANCH  14  16
ATOM     16  N   UNL d   1      15.540  13.838  -0.460  0.00  0.00    -0.198 NA
BRANCH  16  17
ATOM     17  C   UNL d   1      15.372  14.656  -0.517  0.00  0.00     0.165 A 
ATOM     18  N   UNL d   1      14.784  14.944  -1.053  0.00  0.00    -0.225 NA
ATOM     19  C   UNL d   1      14.626  15.751  -1.102  0.00  0.00     0.101 A 
ATOM     20  C   UNL d   1      15.048  16.271  -0.621  0.00  0.00     0.021 A 
ATOM     21  C   UNL d   1      15.622  15.979  -0.099  0.00  0.00     0.005 A 
ATOM     22  C   UNL d   1      15.781  15.190  -0.047  0.00  0.00     0.039 A 
ENDBRANCH  16  17
ENDBRANCH  14  16
ENDBRANCH   1  14
TORSDOF 6
ENDMDL
MODEL 2
REMARK VINA RESULT:      29.5      1.604      4.524
REMARK  6 active torsions:
REMARK  status: ('A' for Active; 'I' for Inactive)
REMARK    1  A    between atoms: N_2  and  C_1 
REMARK    2  A    between atoms: N_3  and  C_1 
REMARK       I    between atoms: C_4  and  N_2 
REMARK    3  A    between atoms: C_5  and  N_3 
REMARK    4  A    between atoms: C_14  and  C_4 
REMARK    5  A    between atoms: C_8  and  O_10 
REMARK    6  A    between atoms: O_10  and  C_14 
ROOT
ATOM      1  N   UNL d   1      14.298  12.952  -1.302  0.00  0.00    -0.177 NA
ATOM      2  C   UNL d   1      14.650  13.004  -0.554  0.00  0.00     0.306 C 
ATOM      3  O   UNL d   1      15.006  12.302  -0.227  0.00  0.00    -0.263 OA
ENDROOT
BRANCH   2   4
ATOM      4  C   UNL d   1      14.670  13.697  -0.118  0.00  0.00     0.185 C 
BRANCH   4   5
ATOM      5  O   UNL d   1      15.341  14.159  -0.060  0.00  0.00    -0.300 OA
BRANCH   5   6
ATOM      6  C   UNL d   1      15.334  14.933  -0.281  0.00  0.00     0.106 A 
ATOM      7  C   UNL d   1      16.051  15.391  -0.267  0.00  0.00     0.057 A 
ATOM      8  C   UNL d   1      16.013  16.190  -0.501  0.00  0.00     0.009 A 
ATOM      9 BR   UNL d   1      16.767  15.033  -0.021  0.00  0.00    -0.047 Br
ATOM     10  C   UNL d   1      15.350  16.541  -0.734  0.00  0.00     0.001 A 
ATOM     11  C   UNL d   1      14.626  16.077  -0.748  0.00  0.00     0.002 A 
ATOM     12  C   UNL d   1      15.332  17.342  -0.965  0.00  0.00     0.000 C 
ATOM     13  C   UNL d   1      14.657  15.289  -0.519  0.00  0.00     0.025 A 
ENDBRANCH   5   6
ENDBRANCH   4   5
ENDBRANCH   2   4
BRANCH   1  14
ATOM     14  C   UNL d   1      14.287  12.246  -1.728  0.00  0.00     0.225 C 
ATOM     15  S   UNL d   1      14.980  11.779  -1.786  0.00  0.00    -0.037 SA
BRANCH  14  16
ATOM     16  N   UNL d   1      13.589  12.011  -2.092  0.00  0.00    -0.198 NA
BRANCH  16  17
ATOM     17  C   UNL d   1      13.430  12.257  -2.877  0.00  0.00     0.165 A 
ATOM     18  N   UNL d   1      13.723  12.995  -3.170  0.00  0.00    -0.225 NA
ATOM     19  C   UNL d   1      13.562  13.228  -3.943  0.00  0.00     0.101 A 
ATOM     20  C   UNL d   1      13.111  12.733  -4.424  0.00  0.00     0.021 A 
ATOM     21  C   UNL d   1      12.829  12.012  -4.127  0.00  0.00     0.005 A 
ATOM     22  C   UNL d   1      12.984  11.779  -3.371  0.00  0.00     0.039 A 
ENDBRANCH  16  17
ENDBRANCH  14  16
ENDBRANCH   1  14
TORSDOF 6
ENDMDL
