MODEL 1
REMARK VINA RESULT:      19.6      0.000      0.000
REMARK  3 active torsions:
REMARK  status: ('A' for Active; 'I' for Inactive)
REMARK       I    between atoms: C_4  and  N_1 
REMARK    1  A    between atoms: C_2  and  S_8 
REMARK    2  A    between atoms: C_10  and  C_4 
REMARK    3  A    between atoms: S_8  and  C_10 
ROOT
ATOM      1  N   UNL d   1      14.424  12.588  -1.790  0.00  0.00    -0.274 N 
ATOM      2  C   UNL d   1      14.742  13.133  -1.256  0.00  0.00     0.067 A 
ATOM      3  C   UNL d   1      14.009  12.768  -2.493  0.00  0.00     0.259 C 
ATOM      4  C   UNL d   1      14.588  11.822  -1.508  0.00  0.00     0.083 A 
ATOM      5  C   UNL d   1      15.102  12.713  -0.645  0.00  0.00     0.018 A 
ATOM      6  O   UNL d   1      13.880  13.563  -2.715  0.00  0.00    -0.267 OA
ATOM      7  C   UNL d   1      15.005  11.910  -0.804  0.00  0.00     0.021 A 
ATOM      8  C   UNL d   1      14.749  13.957  -1.249  0.00  0.00     0.018 A 
ATOM      9  C   UNL d   1      15.469  13.107  -0.029  0.00  0.00     0.002 A 
ATOM     10  C   UNL d   1      15.111  14.362  -0.641  0.00  0.00     0.002 A 
ATOM     11  C   UNL d   1      15.476  13.945  -0.020  0.00  0.00     0.000 A 
ENDROOT
BRANCH   3  12
ATOM     12  C   UNL d   1      13.718  12.155  -2.979  0.00  0.00     0.127 C 
BRANCH  12  13
ATOM     13  S   UNL d   1      13.058  12.281  -3.453  0.00  0.00    -0.069 SA
BRANCH  13  14
ATOM     14  C   UNL d   1      13.139  12.285  -4.279  0.00  0.00     0.140 A 
ATOM     15  N   UNL d   1      13.541  11.787  -4.811  0.00  0.00    -0.230 NA
ATOM     16  C   UNL d   1      13.412  12.082  -5.571  0.00  0.00     0.107 A 
ATOM     17  C   UNL d   1      12.943  12.748  -5.525  0.00  0.00     0.058 A 
ATOM     18  S   UNL d   1      12.769  12.882  -4.729  0.00  0.00    -0.059 SA
ENDBRANCH  13  14
ENDBRANCH  12  13
ENDBRANCH   3  12
TORSDOF 3
ENDMDL
