MODEL 1
REMARK VINA RESULT:      -3.4      0.000      0.000
REMARK  4 active torsions:
REMARK  status: ('A' for Active; 'I' for Inactive)
REMARK    1  A    between atoms: O_2  and  C_1 
REMARK       I    between atoms: N_6  and  C_1 
REMARK    2  A    between atoms: C_3  and  O_2 
REMARK    3  A    between atoms: C_14  and  N_6 
REMARK    4  A    between atoms: C_15  and  N_6 
ROOT
ATOM      1  C   UNL d   1     -41.276-123.027 -50.974  0.00  0.00     0.105 A 
ATOM      2  C   UNL d   1     -41.225-122.350 -51.444  0.00  0.00     0.024 A 
ATOM      3  C   UNL d   1     -41.190-122.403 -52.252  0.00  0.00     0.013 A 
ATOM      4  C   UNL d   1     -41.204-123.133 -52.614  0.00  0.00     0.058 A 
ATOM      5  C   UNL d   1     -41.290-123.765 -51.355  0.00  0.00     0.026 A 
ATOM      6  C   UNL d   1     -41.254-123.817 -52.163  0.00  0.00     0.013 A 
ATOM      7 CL   UNL d   1     -41.168-123.195 -53.439  0.00  0.00    -0.082 Cl
ATOM      8  C   UNL d   1     -41.212-121.613 -51.063  0.00  0.00     0.002 A 
ATOM      9  C   UNL d   1     -41.139-121.719 -52.703  0.00  0.00     0.001 A 
ATOM     10  C   UNL d   1     -41.124-120.968 -52.342  0.00  0.00     0.000 A 
ATOM     11  C   UNL d   1     -41.160-120.916 -51.534  0.00  0.00     0.000 A 
ENDROOT
BRANCH   1  12
ATOM     12  O   UNL d   1     -41.313-122.982 -50.159  0.00  0.00    -0.259 OA
BRANCH  12  13
ATOM     13  C   UNL d   1     -41.957-123.318 -49.755  0.00  0.00     0.377 C 
ATOM     14  N   UNL d   1     -41.897-123.452 -48.917  0.00  0.00    -0.252 N 
ATOM     15  O   UNL d   1     -42.648-123.525 -50.141  0.00  0.00    -0.237 OA
BRANCH  14  16
ATOM     16  C   UNL d   1     -42.534-123.785 -48.514  0.00  0.00     0.085 C 
ATOM     17  C   UNL d   1     -43.000-123.306 -48.018  0.00  0.00     0.021 C 
ENDBRANCH  14  16
BRANCH  14  18
ATOM     18  C   UNL d   1     -41.218-123.251 -48.522  0.00  0.00     0.085 C 
ATOM     19  C   UNL d   1     -41.148-123.412 -47.709  0.00  0.00     0.021 C 
ENDBRANCH  14  18
ENDBRANCH  12  13
ENDBRANCH   1  12
TORSDOF 4
ENDMDL
MODEL 2
REMARK VINA RESULT:      -3.2      2.319      4.265
REMARK  4 active torsions:
REMARK  status: ('A' for Active; 'I' for Inactive)
REMARK    1  A    between atoms: O_2  and  C_1 
REMARK       I    between atoms: N_6  and  C_1 
REMARK    2  A    between atoms: C_3  and  O_2 
REMARK    3  A    between atoms: C_14  and  N_6 
REMARK    4  A    between atoms: C_15  and  N_6 
ROOT
ATOM      1  C   UNL d   1     -41.238-122.143 -52.399  0.00  0.00     0.105 A 
ATOM      2  C   UNL d   1     -41.203-122.556 -51.685  0.00  0.00     0.024 A 
ATOM      3  C   UNL d   1     -41.165-122.166 -50.977  0.00  0.00     0.013 A 
ATOM      4  C   UNL d   1     -41.161-121.351 -50.959  0.00  0.00     0.058 A 
ATOM      5  C   UNL d   1     -41.234-121.313 -52.368  0.00  0.00     0.026 A 
ATOM      6  C   UNL d   1     -41.196-120.923 -51.659  0.00  0.00     0.013 A 
ATOM      7 CL   UNL d   1     -41.123-120.945 -50.238  0.00  0.00    -0.082 Cl
ATOM      8  C   UNL d   1     -41.208-123.386 -51.716  0.00  0.00     0.002 A 
ATOM      9  C   UNL d   1     -41.131-122.594 -50.277  0.00  0.00     0.001 A 
ATOM     10  C   UNL d   1     -41.134-123.427 -50.284  0.00  0.00     0.000 A 
ATOM     11  C   UNL d   1     -41.172-123.817 -50.993  0.00  0.00     0.000 A 
ENDROOT
BRANCH   1  12
ATOM     12  O   UNL d   1     -41.277-122.530 -53.118  0.00  0.00    -0.259 OA
BRANCH  12  13
ATOM     13  C   UNL d   1     -41.735-122.212 -53.734  0.00  0.00     0.377 C 
ATOM     14  N   UNL d   1     -41.671-122.545 -54.514  0.00  0.00    -0.252 N 
ATOM     15  O   UNL d   1     -42.247-121.585 -53.613  0.00  0.00    -0.237 OA
BRANCH  14  16
ATOM     16  C   UNL d   1     -42.123-122.232 -55.127  0.00  0.00     0.085 C 
ATOM     17  C   UNL d   1     -41.799-121.641 -55.614  0.00  0.00     0.021 C 
ENDBRANCH  14  16
BRANCH  14  18
ATOM     18  C   UNL d   1     -41.167-123.167 -54.649  0.00  0.00     0.085 C 
ATOM     19  C   UNL d   1     -41.422-123.817 -55.101  0.00  0.00     0.021 C 
ENDBRANCH  14  18
ENDBRANCH  12  13
ENDBRANCH   1  12
TORSDOF 4
ENDMDL
MODEL 3
REMARK VINA RESULT:      -3.0      1.992      3.818
REMARK  4 active torsions:
REMARK  status: ('A' for Active; 'I' for Inactive)
REMARK    1  A    between atoms: O_2  and  C_1 
REMARK       I    between atoms: N_6  and  C_1 
REMARK    2  A    between atoms: C_3  and  O_2 
REMARK    3  A    between atoms: C_14  and  N_6 
REMARK    4  A    between atoms: C_15  and  N_6 
ROOT
ATOM      1  C   UNL d   1     -41.844-122.952 -51.146  0.00  0.00     0.105 A 
ATOM      2  C   UNL d   1     -42.391-122.763 -50.558  0.00  0.00     0.024 A 
ATOM      3  C   UNL d   1     -42.310-123.045 -49.803  0.00  0.00     0.013 A 
ATOM      4  C   UNL d   1     -41.678-123.524 -49.612  0.00  0.00     0.058 A 
ATOM      5  C   UNL d   1     -41.204-123.441 -50.939  0.00  0.00     0.026 A 
ATOM      6  C   UNL d   1     -41.123-123.723 -50.184  0.00  0.00     0.013 A 
ATOM      7 CL   UNL d   1     -41.588-123.816 -48.843  0.00  0.00    -0.082 Cl
ATOM      8  C   UNL d   1     -43.030-122.274 -50.765  0.00  0.00     0.002 A 
ATOM      9  C   UNL d   1     -42.864-122.846 -49.231  0.00  0.00     0.001 A 
ATOM     10  C   UNL d   1     -43.513-122.357 -49.416  0.00  0.00     0.000 A 
ATOM     11  C   UNL d   1     -43.595-122.075 -50.171  0.00  0.00     0.000 A 
ENDROOT
BRANCH   1  12
ATOM     12  O   UNL d   1     -41.919-122.671 -51.909  0.00  0.00    -0.259 OA
BRANCH  12  13
ATOM     13  C   UNL d   1     -41.532-123.061 -52.533  0.00  0.00     0.377 C 
ATOM     14  N   UNL d   1     -41.509-122.696 -53.301  0.00  0.00    -0.252 N 
ATOM     15  O   UNL d   1     -41.171-123.789 -52.430  0.00  0.00    -0.237 OA
BRANCH  14  16
ATOM     16  C   UNL d   1     -41.126-123.080 -53.921  0.00  0.00     0.085 C 
ATOM     17  C   UNL d   1     -41.577-123.454 -54.511  0.00  0.00     0.021 C 
ENDBRANCH  14  16
BRANCH  14  18
ATOM     18  C   UNL d   1     -41.862-121.975 -53.417  0.00  0.00     0.085 C 
ATOM     19  C   UNL d   1     -41.747-121.567 -54.133  0.00  0.00     0.021 C 
ENDBRANCH  14  18
ENDBRANCH  12  13
ENDBRANCH   1  12
TORSDOF 4
ENDMDL
MODEL 4
REMARK VINA RESULT:      -2.9      1.820      2.852
REMARK  4 active torsions:
REMARK  status: ('A' for Active; 'I' for Inactive)
REMARK    1  A    between atoms: O_2  and  C_1 
REMARK       I    between atoms: N_6  and  C_1 
REMARK    2  A    between atoms: C_3  and  O_2 
REMARK    3  A    between atoms: C_14  and  N_6 
REMARK    4  A    between atoms: C_15  and  N_6 
ROOT
ATOM      1  C   UNL d   1     -41.802-122.366 -53.126  0.00  0.00     0.105 A 
ATOM      2  C   UNL d   1     -41.631-122.702 -53.860  0.00  0.00     0.024 A 
ATOM      3  C   UNL d   1     -41.778-122.303 -54.549  0.00  0.00     0.013 A 
ATOM      4  C   UNL d   1     -42.102-121.555 -54.526  0.00  0.00     0.058 A 
ATOM      5  C   UNL d   1     -42.131-121.603 -53.116  0.00  0.00     0.026 A 
ATOM      6  C   UNL d   1     -42.279-121.203 -53.805  0.00  0.00     0.013 A 
ATOM      7 CL   UNL d   1     -42.256-121.141 -55.226  0.00  0.00    -0.082 Cl
ATOM      8  C   UNL d   1     -41.302-123.464 -53.870  0.00  0.00     0.002 A 
ATOM      9  C   UNL d   1     -41.602-122.654 -55.269  0.00  0.00     0.001 A 
ATOM     10  C   UNL d   1     -41.271-123.418 -55.304  0.00  0.00     0.000 A 
ATOM     11  C   UNL d   1     -41.123-123.817 -54.614  0.00  0.00     0.000 A 
ENDROOT
BRANCH   1  12
ATOM     12  O   UNL d   1     -41.656-122.762 -52.427  0.00  0.00    -0.259 OA
BRANCH  12  13
ATOM     13  C   UNL d   1     -41.428-122.336 -51.751  0.00  0.00     0.377 C 
ATOM     14  N   UNL d   1     -41.464-122.715 -50.989  0.00  0.00    -0.252 N 
ATOM     15  O   UNL d   1     -41.170-121.561 -51.794  0.00  0.00    -0.237 OA
BRANCH  14  16
ATOM     16  C   UNL d   1     -41.239-122.296 -50.317  0.00  0.00     0.085 C 
ATOM     17  C   UNL d   1     -41.125-122.702 -49.600  0.00  0.00     0.021 C 
ENDBRANCH  14  16
BRANCH  14  18
ATOM     18  C   UNL d   1     -41.718-123.483 -50.931  0.00  0.00     0.085 C 
ATOM     19  C   UNL d   1     -42.017-123.768 -50.208  0.00  0.00     0.021 C 
ENDBRANCH  14  18
ENDBRANCH  12  13
ENDBRANCH   1  12
TORSDOF 4
ENDMDL
MODEL 5
REMARK VINA RESULT:      -2.8      1.757      3.968
REMARK  4 active torsions:
REMARK  status: ('A' for Active; 'I' for Inactive)
REMARK    1  A    between atoms: O_2  and  C_1 
REMARK       I    between atoms: N_6  and  C_1 
REMARK    2  A    between atoms: C_3  and  O_2 
REMARK    3  A    between atoms: C_14  and  N_6 
REMARK    4  A    between atoms: C_15  and  N_6 
ROOT
ATOM      1  C   UNL d   1     -41.935-123.000 -49.841  0.00  0.00     0.105 A 
ATOM      2  C   UNL d   1     -42.535-123.268 -49.341  0.00  0.00     0.024 A 
ATOM      3  C   UNL d   1     -42.435-123.285 -48.538  0.00  0.00     0.013 A 
ATOM      4  C   UNL d   1     -41.732-123.034 -48.209  0.00  0.00     0.058 A 
ATOM      5  C   UNL d   1     -41.224-122.747 -49.494  0.00  0.00     0.026 A 
ATOM      6  C   UNL d   1     -41.123-122.764 -48.690  0.00  0.00     0.013 A 
ATOM      7 CL   UNL d   1     -41.622-123.049 -47.388  0.00  0.00    -0.082 Cl
ATOM      8  C   UNL d   1     -43.246-123.520 -49.688  0.00  0.00     0.002 A 
ATOM      9  C   UNL d   1     -43.042-123.555 -48.056  0.00  0.00     0.001 A 
ATOM     10  C   UNL d   1     -43.764-123.813 -48.383  0.00  0.00     0.000 A 
ATOM     11  C   UNL d   1     -43.865-123.796 -49.186  0.00  0.00     0.000 A 
ENDROOT
BRANCH   1  12
ATOM     12  O   UNL d   1     -42.029-122.980 -50.652  0.00  0.00    -0.259 OA
BRANCH  12  13
ATOM     13  C   UNL d   1     -41.699-122.356 -51.091  0.00  0.00     0.377 C 
ATOM     14  N   UNL d   1     -41.498-122.483 -51.908  0.00  0.00    -0.252 N 
ATOM     15  O   UNL d   1     -41.560-121.620 -50.760  0.00  0.00    -0.237 OA
BRANCH  14  16
ATOM     16  C   UNL d   1     -41.171-121.867 -52.345  0.00  0.00     0.085 C 
ATOM     17  C   UNL d   1     -41.548-121.614 -53.042  0.00  0.00     0.021 C 
ENDBRANCH  14  16
BRANCH  14  18
ATOM     18  C   UNL d   1     -41.630-123.207 -52.250  0.00  0.00     0.085 C 
ATOM     19  C   UNL d   1     -41.149-123.464 -52.878  0.00  0.00     0.021 C 
ENDBRANCH  14  18
ENDBRANCH  12  13
ENDBRANCH   1  12
TORSDOF 4
ENDMDL
