MODEL 1
REMARK VINA RESULT:      -6.1      0.000      0.000
REMARK  3 active torsions:
REMARK  status: ('A' for Active; 'I' for Inactive)
REMARK    1  A    between atoms: C_12  and  C_9 
REMARK    2  A    between atoms: O_26  and  C_19 
REMARK    3  A    between atoms: O_27  and  C_22 
ROOT
ATOM      1  C   UNL d   1     -47.352  12.202  23.121  0.00  0.00     0.156 A 
ATOM      2  C   UNL d   1     -48.028  12.672  23.119  0.00  0.00     0.091 A 
ATOM      3  N   UNL d   1     -47.401  11.405  23.314  0.00  0.00    -0.241 N 
ATOM      4  N   UNL d   1     -48.805  11.544  23.502  0.00  0.00    -0.224 N 
ATOM      5  C   UNL d   1     -48.126  11.077  23.504  0.00  0.00     0.343 A 
ATOM      6  C   UNL d   1     -48.757  12.338  23.311  0.00  0.00     0.271 A 
ATOM      7  C   UNL d   1     -47.252  13.799  22.735  0.00  0.00     0.056 A 
ATOM      8  N   UNL d   1     -46.625  12.532  22.930  0.00  0.00    -0.228 NA
ATOM      9  C   UNL d   1     -47.981  13.466  22.927  0.00  0.00     0.012 A 
ATOM     10  C   UNL d   1     -46.569  13.324  22.737  0.00  0.00     0.082 A 
ATOM     11  C   UNL d   1     -47.202  14.595  22.542  0.00  0.00     0.193 A 
ATOM     12  C   UNL d   1     -45.842  13.655  22.546  0.00  0.00    -0.003 A 
ATOM     13  C   UNL d   1     -45.787  14.452  22.353  0.00  0.00     0.042 A 
ATOM     14  O   UNL d   1     -48.178  10.277  23.698  0.00  0.00    -0.245 OA
ATOM     15  C   UNL d   1     -46.468  14.921  22.351  0.00  0.00     0.019 A 
ATOM     16  O   UNL d   1     -49.286  12.677  23.315  0.00  0.00    -0.266 OA
ATOM     17  O   UNL d   1     -47.800  15.002  22.542  0.00  0.00    -0.287 OA
ATOM     18  C   UNL d   1     -46.724  10.938  23.315  0.00  0.00     0.105 C 
ATOM     19  C   UNL d   1     -49.534  11.210  23.695  0.00  0.00     0.107 C 
ATOM     20  C   UNL d   1     -45.242  14.078  22.354  0.00  0.00     0.009 C 
ATOM     21  C   UNL d   1     -45.741  15.252  22.160  0.00  0.00     0.009 C 
ENDROOT
BRANCH   9  22
ATOM     22  C   UNL d   1     -48.700  13.960  22.925  0.00  0.00     0.003 A 
ATOM     23  C   UNL d   1     -49.286  13.987  22.161  0.00  0.00     0.026 A 
ATOM     24  C   UNL d   1     -49.994  14.499  22.210  0.00  0.00     0.116 A 
ATOM     25  C   UNL d   1     -50.141  14.953  22.922  0.00  0.00     0.116 A 
ATOM     26  C   UNL d   1     -49.593  14.908  23.597  0.00  0.00     0.026 A 
ATOM     27  C   UNL d   1     -48.895  14.405  23.552  0.00  0.00     0.002 A 
BRANCH  24  28
ATOM     28  O   UNL d   1     -50.531  14.538  21.539  0.00  0.00    -0.326 OA
ATOM     29  C   UNL d   1     -50.505  13.931  20.921  0.00  0.00     0.181 C 
ENDBRANCH  24  28
BRANCH  25  30
ATOM     30  O   UNL d   1     -50.835  15.448  22.959  0.00  0.00    -0.326 OA
ATOM     31  C   UNL d   1     -51.062  15.847  23.698  0.00  0.00     0.181 C 
ENDBRANCH  25  30
ENDBRANCH   9  22
TORSDOF 3
ENDMDL
MODEL 2
REMARK VINA RESULT:      -5.8      0.783      2.853
REMARK  3 active torsions:
REMARK  status: ('A' for Active; 'I' for Inactive)
REMARK    1  A    between atoms: C_12  and  C_9 
REMARK    2  A    between atoms: O_26  and  C_19 
REMARK    3  A    between atoms: O_27  and  C_22 
ROOT
ATOM      1  C   UNL d   1     -46.637  13.090  22.716  0.00  0.00     0.156 A 
ATOM      2  C   UNL d   1     -47.247  13.643  22.718  0.00  0.00     0.091 A 
ATOM      3  N   UNL d   1     -45.872  13.317  22.520  0.00  0.00    -0.241 N 
ATOM      4  N   UNL d   1     -46.325  14.652  22.326  0.00  0.00    -0.224 N 
ATOM      5  C   UNL d   1     -45.717  14.096  22.325  0.00  0.00     0.343 A 
ATOM      6  C   UNL d   1     -47.087  14.428  22.522  0.00  0.00     0.271 A 
ATOM      7  C   UNL d   1     -48.169  12.635  23.110  0.00  0.00     0.056 A 
ATOM      8  N   UNL d   1     -46.794  12.308  22.912  0.00  0.00    -0.228 NA
ATOM      9  C   UNL d   1     -48.009  13.419  22.913  0.00  0.00     0.012 A 
ATOM     10  C   UNL d   1     -47.552  12.076  23.108  0.00  0.00     0.082 A 
ATOM     11  C   UNL d   1     -48.933  12.408  23.306  0.00  0.00     0.193 A 
ATOM     12  C   UNL d   1     -47.710  11.295  23.303  0.00  0.00    -0.003 A 
ATOM     13  C   UNL d   1     -48.474  11.062  23.501  0.00  0.00     0.042 A 
ATOM     14  O   UNL d   1     -44.950  14.326  22.128  0.00  0.00    -0.245 OA
ATOM     15  C   UNL d   1     -49.084  11.620  23.502  0.00  0.00     0.019 A 
ATOM     16  O   UNL d   1     -47.537  14.867  22.516  0.00  0.00    -0.266 OA
ATOM     17  O   UNL d   1     -49.464  12.899  23.306  0.00  0.00    -0.287 OA
ATOM     18  C   UNL d   1     -45.265  12.762  22.519  0.00  0.00     0.105 C 
ATOM     19  C   UNL d   1     -46.165  15.437  22.130  0.00  0.00     0.107 C 
ATOM     20  C   UNL d   1     -47.986  10.616  23.500  0.00  0.00     0.009 C 
ATOM     21  C   UNL d   1     -49.242  10.838  23.697  0.00  0.00     0.009 C 
ENDROOT
BRANCH   9  22
ATOM     22  C   UNL d   1     -48.653  14.008  22.914  0.00  0.00     0.003 A 
ATOM     23  C   UNL d   1     -49.205  14.145  22.137  0.00  0.00     0.026 A 
ATOM     24  C   UNL d   1     -49.838  14.747  22.189  0.00  0.00     0.116 A 
ATOM     25  C   UNL d   1     -49.945  15.189  22.916  0.00  0.00     0.116 A 
ATOM     26  C   UNL d   1     -49.430  15.043  23.602  0.00  0.00     0.026 A 
ATOM     27  C   UNL d   1     -48.806  14.451  23.554  0.00  0.00     0.002 A 
BRANCH  24  28
ATOM     28  O   UNL d   1     -50.343  14.886  21.507  0.00  0.00    -0.326 OA
ATOM     29  C   UNL d   1     -50.678  14.220  21.067  0.00  0.00     0.181 C 
ENDBRANCH  24  28
BRANCH  25  30
ATOM     30  O   UNL d   1     -50.564  15.774  22.956  0.00  0.00    -0.326 OA
ATOM     31  C   UNL d   1     -50.994  15.922  23.697  0.00  0.00     0.181 C 
ENDBRANCH  25  30
ENDBRANCH   9  22
TORSDOF 3
ENDMDL
MODEL 3
REMARK VINA RESULT:      -4.9      1.504      3.133
REMARK  3 active torsions:
REMARK  status: ('A' for Active; 'I' for Inactive)
REMARK    1  A    between atoms: C_12  and  C_9 
REMARK    2  A    between atoms: O_26  and  C_19 
REMARK    3  A    between atoms: O_27  and  C_22 
ROOT
ATOM      1  C   UNL d   1     -46.508  13.746  22.826  0.00  0.00     0.156 A 
ATOM      2  C   UNL d   1     -47.295  13.501  22.830  0.00  0.00     0.091 A 
ATOM      3  N   UNL d   1     -46.320  14.532  22.683  0.00  0.00    -0.241 N 
ATOM      4  N   UNL d   1     -47.704  14.833  22.548  0.00  0.00    -0.224 N 
ATOM      5  C   UNL d   1     -46.916  15.074  22.545  0.00  0.00     0.343 A 
ATOM      6  C   UNL d   1     -47.894  14.050  22.690  0.00  0.00     0.271 A 
ATOM      7  C   UNL d   1     -46.886  12.169  23.112  0.00  0.00     0.056 A 
ATOM      8  N   UNL d   1     -45.911  13.200  22.965  0.00  0.00    -0.228 NA
ATOM      9  C   UNL d   1     -47.484  12.718  22.972  0.00  0.00     0.012 A 
ATOM     10  C   UNL d   1     -46.092  12.417  23.107  0.00  0.00     0.082 A 
ATOM     11  C   UNL d   1     -47.074  11.383  23.255  0.00  0.00     0.193 A 
ATOM     12  C   UNL d   1     -45.494  11.871  23.246  0.00  0.00    -0.003 A 
ATOM     13  C   UNL d   1     -45.678  11.082  23.390  0.00  0.00     0.042 A 
ATOM     14  O   UNL d   1     -46.729  15.865  22.401  0.00  0.00    -0.245 OA
ATOM     15  C   UNL d   1     -46.468  10.840  23.394  0.00  0.00     0.019 A 
ATOM     16  O   UNL d   1     -48.500  13.886  22.689  0.00  0.00    -0.266 OA
ATOM     17  O   UNL d   1     -47.767  11.175  23.257  0.00  0.00    -0.287 OA
ATOM     18  C   UNL d   1     -45.533  14.773  22.679  0.00  0.00     0.105 C 
ATOM     19  C   UNL d   1     -48.303  15.383  22.409  0.00  0.00     0.107 C 
ATOM     20  C   UNL d   1     -45.045  11.275  23.387  0.00  0.00     0.009 C 
ATOM     21  C   UNL d   1     -45.871  10.294  23.533  0.00  0.00     0.009 C 
ENDROOT
BRANCH   9  22
ATOM     22  C   UNL d   1     -48.319  12.463  22.976  0.00  0.00     0.003 A 
ATOM     23  C   UNL d   1     -48.843  12.457  22.168  0.00  0.00     0.026 A 
ATOM     24  C   UNL d   1     -49.675  12.192  22.225  0.00  0.00     0.116 A 
ATOM     25  C   UNL d   1     -49.993  11.950  22.984  0.00  0.00     0.116 A 
ATOM     26  C   UNL d   1     -49.494  11.966  23.697  0.00  0.00     0.026 A 
ATOM     27  C   UNL d   1     -48.675  12.227  23.644  0.00  0.00     0.002 A 
BRANCH  24  28
ATOM     28  O   UNL d   1     -50.161  12.179  21.516  0.00  0.00    -0.326 OA
ATOM     29  C   UNL d   1     -49.882  12.554  20.786  0.00  0.00     0.181 C 
ENDBRANCH  24  28
BRANCH  25  30
ATOM     30  O   UNL d   1     -50.805  11.694  23.028  0.00  0.00    -0.326 OA
ATOM     31  C   UNL d   1     -51.064  11.131  23.637  0.00  0.00     0.181 C 
ENDBRANCH  25  30
ENDBRANCH   9  22
TORSDOF 3
ENDMDL
MODEL 4
REMARK VINA RESULT:      -4.1      1.643      2.173
REMARK  3 active torsions:
REMARK  status: ('A' for Active; 'I' for Inactive)
REMARK    1  A    between atoms: C_12  and  C_9 
REMARK    2  A    between atoms: O_26  and  C_19 
REMARK    3  A    between atoms: O_27  and  C_22 
ROOT
ATOM      1  C   UNL d   1     -45.853  12.279  23.089  0.00  0.00     0.156 A 
ATOM      2  C   UNL d   1     -46.652  12.077  23.084  0.00  0.00     0.091 A 
ATOM      3  N   UNL d   1     -45.281  11.705  23.221  0.00  0.00    -0.241 N 
ATOM      4  N   UNL d   1     -46.304  10.724  23.346  0.00  0.00    -0.224 N 
ATOM      5  C   UNL d   1     -45.506  10.929  23.350  0.00  0.00     0.343 A 
ATOM      6  C   UNL d   1     -46.875  11.294  23.214  0.00  0.00     0.271 A 
ATOM      7  C   UNL d   1     -46.999  13.430  22.823  0.00  0.00     0.056 A 
ATOM      8  N   UNL d   1     -45.629  13.059  22.960  0.00  0.00    -0.228 NA
ATOM      9  C   UNL d   1     -47.223  12.648  22.952  0.00  0.00     0.012 A 
ATOM     10  C   UNL d   1     -46.192  13.634  22.827  0.00  0.00     0.082 A 
ATOM     11  C   UNL d   1     -47.571  14.005  22.690  0.00  0.00     0.193 A 
ATOM     12  C   UNL d   1     -45.968  14.414  22.699  0.00  0.00    -0.003 A 
ATOM     13  C   UNL d   1     -46.537  14.993  22.565  0.00  0.00     0.042 A 
ATOM     14  O   UNL d   1     -44.934  10.351  23.483  0.00  0.00    -0.245 OA
ATOM     15  C   UNL d   1     -47.338  14.786  22.561  0.00  0.00     0.019 A 
ATOM     16  O   UNL d   1     -47.478  11.118  23.215  0.00  0.00    -0.266 OA
ATOM     17  O   UNL d   1     -48.270  13.821  22.688  0.00  0.00    -0.287 OA
ATOM     18  C   UNL d   1     -44.484  11.910  23.225  0.00  0.00     0.105 C 
ATOM     19  C   UNL d   1     -46.528   9.940  23.475  0.00  0.00     0.107 C 
ATOM     20  C   UNL d   1     -45.897  15.158  22.568  0.00  0.00     0.009 C 
ATOM     21  C   UNL d   1     -47.114  15.566  22.433  0.00  0.00     0.009 C 
ENDROOT
BRANCH   9  22
ATOM     22  C   UNL d   1     -48.068  12.430  22.948  0.00  0.00     0.003 A 
ATOM     23  C   UNL d   1     -48.517  12.189  22.131  0.00  0.00     0.026 A 
ATOM     24  C   UNL d   1     -49.365  11.979  22.181  0.00  0.00     0.116 A 
ATOM     25  C   UNL d   1     -49.763  11.994  22.940  0.00  0.00     0.116 A 
ATOM     26  C   UNL d   1     -49.330  12.216  23.662  0.00  0.00     0.026 A 
ATOM     27  C   UNL d   1     -48.495  12.424  23.616  0.00  0.00     0.002 A 
BRANCH  24  28
ATOM     28  O   UNL d   1     -49.786  11.760  21.463  0.00  0.00    -0.326 OA
ATOM     29  C   UNL d   1     -49.608  12.154  20.713  0.00  0.00     0.181 C 
ENDBRANCH  24  28
BRANCH  25  30
ATOM     30  O   UNL d   1     -50.589  11.787  22.977  0.00  0.00    -0.326 OA
ATOM     31  C   UNL d   1     -51.056  11.931  23.697  0.00  0.00     0.181 C 
ENDBRANCH  25  30
ENDBRANCH   9  22
TORSDOF 3
ENDMDL
MODEL 5
REMARK VINA RESULT:      -3.6      9.801     11.079
REMARK  3 active torsions:
REMARK  status: ('A' for Active; 'I' for Inactive)
REMARK    1  A    between atoms: C_12  and  C_9 
REMARK    2  A    between atoms: O_26  and  C_19 
REMARK    3  A    between atoms: O_27  and  C_22 
ROOT
ATOM      1  C   UNL d   1     -38.429  13.407  19.681  0.00  0.00     0.156 A 
ATOM      2  C   UNL d   1     -38.521  13.936  19.056  0.00  0.00     0.091 A 
ATOM      3  N   UNL d   1     -38.486  13.669  20.457  0.00  0.00    -0.241 N 
ATOM      4  N   UNL d   1     -38.727  14.990  19.988  0.00  0.00    -0.224 N 
ATOM      5  C   UNL d   1     -38.635  14.458  20.610  0.00  0.00     0.343 A 
ATOM      6  C   UNL d   1     -38.671  14.732  19.214  0.00  0.00     0.271 A 
ATOM      7  C   UNL d   1     -38.314  12.883  18.124  0.00  0.00     0.056 A 
ATOM      8  N   UNL d   1     -38.279  12.615  19.525  0.00  0.00    -0.228 NA
ATOM      9  C   UNL d   1     -38.464  13.678  18.282  0.00  0.00     0.012 A 
ATOM     10  C   UNL d   1     -38.222  12.349  18.755  0.00  0.00     0.082 A 
ATOM     11  C   UNL d   1     -38.257  12.621  17.348  0.00  0.00     0.193 A 
ATOM     12  C   UNL d   1     -38.072  11.556  18.600  0.00  0.00    -0.003 A 
ATOM     13  C   UNL d   1     -38.014  11.289  17.824  0.00  0.00     0.042 A 
ATOM     14  O   UNL d   1     -38.692  14.723  21.389  0.00  0.00    -0.245 OA
ATOM     15  C   UNL d   1     -38.107  11.823  17.199  0.00  0.00     0.019 A 
ATOM     16  O   UNL d   1     -38.744  15.153  18.753  0.00  0.00    -0.266 OA
ATOM     17  O   UNL d   1     -38.339  13.091  16.805  0.00  0.00    -0.287 OA
ATOM     18  C   UNL d   1     -38.393  13.137  21.078  0.00  0.00     0.105 C 
ATOM     19  C   UNL d   1     -38.877  15.786  20.146  0.00  0.00     0.107 C 
ATOM     20  C   UNL d   1     -37.940  10.862  18.323  0.00  0.00     0.009 C 
ATOM     21  C   UNL d   1     -37.958  11.031  17.044  0.00  0.00     0.009 C 
ENDROOT
BRANCH   9  22
ATOM     22  C   UNL d   1     -38.562  14.242  17.623  0.00  0.00     0.003 A 
ATOM     23  C   UNL d   1     -39.432  14.575  17.376  0.00  0.00     0.026 A 
ATOM     24  C   UNL d   1     -39.476  15.138  16.708  0.00  0.00     0.116 A 
ATOM     25  C   UNL d   1     -38.759  15.372  16.301  0.00  0.00     0.116 A 
ATOM     26  C   UNL d   1     -37.987  15.053  16.547  0.00  0.00     0.026 A 
ATOM     27  C   UNL d   1     -37.940  14.498  17.204  0.00  0.00     0.002 A 
BRANCH  24  28
ATOM     28  O   UNL d   1     -40.242  15.449  16.471  0.00  0.00    -0.326 OA
ATOM     29  C   UNL d   1     -40.930  15.363  16.991  0.00  0.00     0.181 C 
ENDBRANCH  24  28
BRANCH  25  30
ATOM     30  O   UNL d   1     -38.814  15.921  15.651  0.00  0.00    -0.326 OA
ATOM     31  C   UNL d   1     -38.257  15.884  14.984  0.00  0.00     0.181 C 
ENDBRANCH  25  30
ENDBRANCH   9  22
TORSDOF 3
ENDMDL
