MODEL 1
REMARK VINA RESULT:      16.0      0.000      0.000
REMARK  4 active torsions:
REMARK  status: ('A' for Active; 'I' for Inactive)
REMARK    1  A    between atoms: C_6  and  C_1 
REMARK    2  A    between atoms: C_7  and  C_4 
REMARK    3  A    between atoms: O_10  and  C_6 
REMARK    4  A    between atoms: C_13  and  O_10 
ROOT
ATOM      1  C   UNL d   1      46.222 -17.914  43.757  0.00  0.00     0.112 A 
ATOM      2  S   UNL d   1      46.048 -17.100  43.662  0.00  0.00    -0.080 SA
ATOM      3  C   UNL d   1      46.163 -18.086  44.562  0.00  0.00     0.115 A 
ATOM      4  C   UNL d   1      45.886 -16.793  44.416  0.00  0.00     0.031 A 
ATOM      5  C   UNL d   1      45.959 -17.405  44.955  0.00  0.00     0.028 A 
ATOM      6  N   UNL d   1      46.291 -18.839  44.913  0.00  0.00    -0.147 N 
ENDROOT
BRANCH   4   7
ATOM      7  C   UNL d   1      45.694 -15.991  44.486  0.00  0.00     0.006 A 
ATOM      8  C   UNL d   1      44.925 -15.782  44.720  0.00  0.00     0.001 A 
ATOM      9  C   UNL d   1      44.735 -14.983  44.789  0.00  0.00     0.000 A 
ATOM     10  C   UNL d   1      45.295 -14.403  44.631  0.00  0.00     0.000 A 
ATOM     11  C   UNL d   1      46.052 -14.614  44.402  0.00  0.00     0.000 A 
ATOM     12  C   UNL d   1      46.255 -15.411  44.328  0.00  0.00     0.001 A 
ENDBRANCH   4   7
BRANCH   1  13
ATOM     13  C   UNL d   1      46.420 -18.457  43.150  0.00  0.00     0.308 C 
ATOM     14  O   UNL d   1      46.590 -19.260  43.314  0.00  0.00    -0.258 OA
BRANCH  13  15
ATOM     15  O   UNL d   1      46.448 -18.183  42.362  0.00  0.00    -0.271 OA
BRANCH  15  16
ATOM     16  C   UNL d   1      46.531 -18.728  41.731  0.00  0.00     0.126 C 
ATOM     17  C   UNL d   1      46.582 -18.439  40.960  0.00  0.00     0.029 C 
ENDBRANCH  15  16
ENDBRANCH  13  15
ENDBRANCH   1  13
TORSDOF 4
ENDMDL
