MODEL 1
REMARK VINA RESULT:      18.9      0.000      0.000
REMARK  4 active torsions:
REMARK  status: ('A' for Active; 'I' for Inactive)
REMARK    1  A    between atoms: C_4  and  C_1 
REMARK    2  A    between atoms: N_5  and  C_2 
REMARK       I    between atoms: N_9  and  C_4 
REMARK       I    between atoms: C_7  and  N_5 
REMARK    3  A    between atoms: C_13  and  C_7 
REMARK    4  A    between atoms: C_11  and  N_9 
ROOT
ATOM      1  C   UNL d   1     -42.139-122.571 -52.364  0.00  0.00     0.175 A 
ATOM      2  C   UNL d   1     -42.398-122.077 -52.898  0.00  0.00     0.114 A 
ATOM      3  O   UNL d   1     -42.591-122.508 -51.743  0.00  0.00    -0.301 OA
ATOM      4  C   UNL d   1     -43.011-121.708 -52.610  0.00  0.00     0.043 A 
ATOM      5  C   UNL d   1     -43.131-121.975 -51.892  0.00  0.00     0.102 A 
ATOM      6  C   UNL d   1     -43.472-121.169 -52.899  0.00  0.00     0.004 A 
ATOM      7  C   UNL d   1     -43.709-121.702 -51.472  0.00  0.00     0.025 A 
ATOM      8  C   UNL d   1     -44.057-120.894 -52.474  0.00  0.00     0.000 A 
ATOM      9  C   UNL d   1     -44.173-121.161 -51.763  0.00  0.00     0.002 A 
ENDROOT
BRANCH   1  10
ATOM     10  C   UNL d   1     -41.540-123.041 -52.436  0.00  0.00     0.303 C 
ATOM     11  N   UNL d   1     -41.124-123.735 -51.180  0.00  0.00    -0.206 NA
ATOM     12  O   UNL d   1     -41.137-123.191 -53.071  0.00  0.00    -0.263 OA
BRANCH  11  13
ATOM     13  C   UNL d   1     -41.537-123.596 -50.476  0.00  0.00     0.085 A 
ATOM     14  C   UNL d   1     -41.153-123.238 -49.835  0.00  0.00     0.019 A 
ATOM     15  C   UNL d   1     -41.566-123.098 -49.130  0.00  0.00     0.002 A 
ATOM     16  C   UNL d   1     -41.183-122.739 -48.485  0.00  0.00     0.000 C 
ATOM     17  C   UNL d   1     -42.369-123.314 -49.057  0.00  0.00     0.000 A 
ATOM     18  C   UNL d   1     -42.756-123.677 -49.707  0.00  0.00     0.002 A 
ATOM     19  C   UNL d   1     -42.780-123.175 -48.355  0.00  0.00     0.000 C 
ATOM     20  C   UNL d   1     -42.330-123.815 -50.419  0.00  0.00     0.019 A 
ENDBRANCH  11  13
ENDBRANCH   1  10
BRANCH   2  21
ATOM     21  N   UNL d   1     -42.094-121.974 -53.599  0.00  0.00    -0.204 NA
ATOM     22  C   UNL d   1     -42.417-122.364 -54.256  0.00  0.00     0.302 C 
ATOM     23  O   UNL d   1     -43.074-122.872 -54.160  0.00  0.00    -0.263 OA
BRANCH  22  24
ATOM     24  C   UNL d   1     -42.085-122.251 -55.013  0.00  0.00     0.158 A 
ATOM     25  O   UNL d   1     -42.339-121.708 -55.594  0.00  0.00    -0.300 OA
ATOM     26  C   UNL d   1     -41.850-121.788 -56.255  0.00  0.00     0.123 A 
ATOM     27  C   UNL d   1     -41.285-122.381 -56.096  0.00  0.00     0.029 A 
ATOM     28  C   UNL d   1     -41.425-122.667 -55.339  0.00  0.00     0.032 A 
ENDBRANCH  22  24
ENDBRANCH   2  21
TORSDOF 4
ENDMDL
MODEL 2
REMARK VINA RESULT:      21.1      1.704      4.660
REMARK  4 active torsions:
REMARK  status: ('A' for Active; 'I' for Inactive)
REMARK    1  A    between atoms: C_4  and  C_1 
REMARK    2  A    between atoms: N_5  and  C_2 
REMARK       I    between atoms: N_9  and  C_4 
REMARK       I    between atoms: C_7  and  N_5 
REMARK    3  A    between atoms: C_13  and  C_7 
REMARK    4  A    between atoms: C_11  and  N_9 
ROOT
ATOM      1  C   UNL d   1     -42.051-121.541 -51.720  0.00  0.00     0.175 A 
ATOM      2  C   UNL d   1     -42.564-121.901 -51.270  0.00  0.00     0.114 A 
ATOM      3  O   UNL d   1     -41.427-121.991 -51.776  0.00  0.00    -0.301 OA
ATOM      4  C   UNL d   1     -42.261-122.574 -51.045  0.00  0.00     0.043 A 
ATOM      5  C   UNL d   1     -41.554-122.630 -51.359  0.00  0.00     0.102 A 
ATOM      6  C   UNL d   1     -42.528-123.139 -50.602  0.00  0.00     0.004 A 
ATOM      7  C   UNL d   1     -41.123-123.248 -51.228  0.00  0.00     0.025 A 
ATOM      8  C   UNL d   1     -42.092-123.763 -50.469  0.00  0.00     0.000 A 
ATOM      9  C   UNL d   1     -41.392-123.816 -50.782  0.00  0.00     0.002 A 
ENDROOT
BRANCH   1  10
ATOM     10  C   UNL d   1     -42.141-120.860 -52.053  0.00  0.00     0.303 C 
ATOM     11  N   UNL d   1     -42.080-120.869 -53.546  0.00  0.00    -0.206 NA
ATOM     12  O   UNL d   1     -42.258-120.183 -51.711  0.00  0.00    -0.263 OA
BRANCH  11  13
ATOM     13  C   UNL d   1     -41.955-121.582 -53.949  0.00  0.00     0.085 A 
ATOM     14  C   UNL d   1     -42.530-121.867 -54.473  0.00  0.00     0.019 A 
ATOM     15  C   UNL d   1     -42.405-122.581 -54.876  0.00  0.00     0.002 A 
ATOM     16  C   UNL d   1     -42.980-122.870 -55.402  0.00  0.00     0.000 C 
ATOM     17  C   UNL d   1     -41.704-123.019 -54.761  0.00  0.00     0.000 A 
ATOM     18  C   UNL d   1     -41.123-122.728 -54.229  0.00  0.00     0.002 A 
ATOM     19  C   UNL d   1     -41.579-123.729 -55.162  0.00  0.00     0.000 C 
ATOM     20  C   UNL d   1     -41.257-122.003 -53.824  0.00  0.00     0.019 A 
ENDBRANCH  11  13
ENDBRANCH   1  10
BRANCH   2  21
ATOM     21  N   UNL d   1     -43.261-121.631 -51.079  0.00  0.00    -0.204 NA
ATOM     22  C   UNL d   1     -43.638-121.897 -50.391  0.00  0.00     0.302 C 
ATOM     23  O   UNL d   1     -43.263-122.462 -49.900  0.00  0.00    -0.263 OA
BRANCH  22  24
ATOM     24  C   UNL d   1     -44.392-121.603 -50.187  0.00  0.00     0.158 A 
ATOM     25  O   UNL d   1     -45.088-121.651 -50.644  0.00  0.00    -0.300 OA
ATOM     26  C   UNL d   1     -45.699-121.287 -50.226  0.00  0.00     0.123 A 
ATOM     27  C   UNL d   1     -45.393-121.007 -49.501  0.00  0.00     0.029 A 
ATOM     28  C   UNL d   1     -44.595-121.198 -49.474  0.00  0.00     0.032 A 
ENDBRANCH  22  24
ENDBRANCH   2  21
TORSDOF 4
ENDMDL
MODEL 3
REMARK VINA RESULT:      21.2      1.330      5.022
REMARK  4 active torsions:
REMARK  status: ('A' for Active; 'I' for Inactive)
REMARK    1  A    between atoms: C_4  and  C_1 
REMARK    2  A    between atoms: N_5  and  C_2 
REMARK       I    between atoms: N_9  and  C_4 
REMARK       I    between atoms: C_7  and  N_5 
REMARK    3  A    between atoms: C_13  and  C_7 
REMARK    4  A    between atoms: C_11  and  N_9 
ROOT
ATOM      1  C   UNL d   1     -43.009-122.044 -51.881  0.00  0.00     0.175 A 
ATOM      2  C   UNL d   1     -42.765-122.427 -51.257  0.00  0.00     0.114 A 
ATOM      3  O   UNL d   1     -42.592-122.284 -52.484  0.00  0.00    -0.301 OA
ATOM      4  C   UNL d   1     -42.198-122.904 -51.471  0.00  0.00     0.043 A 
ATOM      5  C   UNL d   1     -42.090-122.816 -52.233  0.00  0.00     0.102 A 
ATOM      6  C   UNL d   1     -41.767-123.404 -51.080  0.00  0.00     0.004 A 
ATOM      7  C   UNL d   1     -41.556-123.225 -52.597  0.00  0.00     0.025 A 
ATOM      8  C   UNL d   1     -41.228-123.817 -51.448  0.00  0.00     0.000 A 
ATOM      9  C   UNL d   1     -41.124-123.727 -52.203  0.00  0.00     0.002 A 
ENDROOT
BRANCH   1  10
ATOM     10  C   UNL d   1     -43.564-121.520 -51.901  0.00  0.00     0.303 C 
ATOM     11  N   UNL d   1     -43.910-121.013 -53.263  0.00  0.00    -0.206 NA
ATOM     12  O   UNL d   1     -43.956-121.231 -51.308  0.00  0.00    -0.263 OA
BRANCH  11  13
ATOM     13  C   UNL d   1     -43.507-121.303 -53.925  0.00  0.00     0.085 A 
ATOM     14  C   UNL d   1     -42.752-121.015 -54.109  0.00  0.00     0.019 A 
ATOM     15  C   UNL d   1     -42.348-121.306 -54.772  0.00  0.00     0.002 A 
ATOM     16  C   UNL d   1     -41.591-121.019 -54.959  0.00  0.00     0.000 C 
ATOM     17  C   UNL d   1     -42.694-121.888 -55.260  0.00  0.00     0.000 A 
ATOM     18  C   UNL d   1     -43.458-122.178 -55.073  0.00  0.00     0.002 A 
ATOM     19  C   UNL d   1     -42.292-122.178 -55.920  0.00  0.00     0.000 C 
ATOM     20  C   UNL d   1     -43.862-121.879 -54.398  0.00  0.00     0.019 A 
ENDBRANCH  11  13
ENDBRANCH   1  10
BRANCH   2  21
ATOM     21  N   UNL d   1     -43.043-122.344 -50.542  0.00  0.00    -0.204 NA
ATOM     22  C   UNL d   1     -42.536-122.395 -49.888  0.00  0.00     0.302 C 
ATOM     23  O   UNL d   1     -41.719-122.536 -50.001  0.00  0.00    -0.263 OA
BRANCH  22  24
ATOM     24  C   UNL d   1     -42.840-122.305 -49.116  0.00  0.00     0.158 A 
ATOM     25  O   UNL d   1     -43.420-121.759 -48.868  0.00  0.00    -0.300 OA
ATOM     26  C   UNL d   1     -43.550-121.867 -48.059  0.00  0.00     0.123 A 
ATOM     27  C   UNL d   1     -43.052-122.482 -47.792  0.00  0.00     0.029 A 
ATOM     28  C   UNL d   1     -42.617-122.752 -48.434  0.00  0.00     0.032 A 
ENDBRANCH  22  24
ENDBRANCH   2  21
TORSDOF 4
ENDMDL
