MODEL 1
REMARK VINA RESULT:      -5.8      0.000      0.000
REMARK  5 active torsions:
REMARK  status: ('A' for Active; 'I' for Inactive)
REMARK    1  A    between atoms: C_5  and  C_1 
REMARK    2  A    between atoms: O_8  and  C_2 
REMARK    3  A    between atoms: C_20  and  O_8 
REMARK    4  A    between atoms: C_11  and  O_14 
REMARK    5  A    between atoms: O_14  and  C_13 
ROOT
ATOM      1  C   UNL d   1     -41.264-121.648 -51.678  0.00  0.00     0.197 A 
ATOM      2  C   UNL d   1     -41.198-122.399 -51.340  0.00  0.00     0.165 A 
ATOM      3  O   UNL d   1     -41.329-121.576 -52.481  0.00  0.00    -0.301 OA
ATOM      4  C   UNL d   1     -41.198-123.074 -51.814  0.00  0.00     0.222 A 
ATOM      5  C   UNL d   1     -41.330-122.243 -52.962  0.00  0.00     0.105 A 
ATOM      6  C   UNL d   1     -41.265-122.994 -52.622  0.00  0.00     0.064 A 
ATOM      7  C   UNL d   1     -41.397-122.169 -53.779  0.00  0.00     0.050 A 
ATOM      8  C   UNL d   1     -41.266-123.667 -53.108  0.00  0.00     0.007 A 
ATOM      9  O   UNL d   1     -41.133-123.817 -51.478  0.00  0.00    -0.284 OA
ATOM     10  C   UNL d   1     -41.398-122.825 -54.250  0.00  0.00     0.105 A 
ATOM     11  C   UNL d   1     -41.333-123.576 -53.915  0.00  0.00     0.025 A 
ENDROOT
BRANCH   2  12
ATOM     12  O   UNL d   1     -41.130-122.497 -50.514  0.00  0.00    -0.302 OA
BRANCH  12  13
ATOM     13  C   UNL d   1     -41.745-122.825 -50.076  0.00  0.00     0.100 A 
ATOM     14  C   UNL d   1     -42.523-122.629 -50.242  0.00  0.00     0.025 A 
ATOM     15  C   UNL d   1     -43.138-122.960 -49.801  0.00  0.00     0.002 A 
ATOM     16  C   UNL d   1     -42.968-123.490 -49.190  0.00  0.00     0.000 A 
ATOM     17  C   UNL d   1     -42.180-123.693 -49.017  0.00  0.00     0.002 A 
ATOM     18  C   UNL d   1     -41.566-123.360 -49.460  0.00  0.00     0.025 A 
ENDBRANCH  12  13
ENDBRANCH   2  12
BRANCH   1  19
ATOM     19  C   UNL d   1     -41.264-120.980 -51.213  0.00  0.00     0.442 C 
ATOM     20  F   UNL d   1     -41.277-120.270 -50.812  0.00  0.00    -0.164 F 
ATOM     21  F   UNL d   1     -41.135-121.010 -50.340  0.00  0.00    -0.164 F 
ATOM     22  F   UNL d   1     -41.384-120.321 -51.588  0.00  0.00    -0.164 F 
ENDBRANCH   1  19
BRANCH  10  23
ATOM     23  O   UNL d   1     -41.468-122.736 -55.101  0.00  0.00    -0.273 OA
BRANCH  23  24
ATOM     24  C   UNL d   1     -41.978-122.163 -55.407  0.00  0.00     0.300 C 
ATOM     25  O   UNL d   1     -41.667-121.445 -55.730  0.00  0.00    -0.259 OA
ATOM     26  C   UNL d   1     -42.783-122.293 -55.397  0.00  0.00     0.074 C 
ENDBRANCH  23  24
ENDBRANCH  10  23
TORSDOF 5
ENDMDL
