MODEL 1
REMARK VINA RESULT:      22.1      0.000      0.000
REMARK  5 active torsions:
REMARK  status: ('A' for Active; 'I' for Inactive)
REMARK    1  A    between atoms: C_7  and  C_1 
REMARK    2  A    between atoms: N_8  and  C_7 
REMARK    3  A    between atoms: C_9  and  N_8 
REMARK    4  A    between atoms: O_17  and  C_13 
REMARK    5  A    between atoms: O_20  and  C_15 
ROOT
ATOM      1  C   UNL d   1      45.634 -15.781  43.974  0.00  0.00     0.145 A 
ATOM      2  C   UNL d   1      46.153 -15.494  44.548  0.00  0.00     0.305 A 
ATOM      3  C   UNL d   1      45.140 -15.264  43.567  0.00  0.00     0.305 A 
ATOM      4  O   UNL d   1      45.164 -14.457  43.733  0.00  0.00    -0.269 OA
ATOM      5  O   UNL d   1      46.171 -14.692  44.708  0.00  0.00    -0.269 OA
ATOM      6  C   UNL d   1      45.677 -14.174  44.301  0.00  0.00     0.242 A 
ATOM      7  O   UNL d   1      44.614 -15.552  42.985  0.00  0.00    -0.259 OA
ATOM      8  O   UNL d   1      46.647 -16.011  44.954  0.00  0.00    -0.259 OA
ATOM      9  C   UNL d   1      45.094 -14.040  43.736  0.00  0.00     0.035 A 
ATOM     10  C   UNL d   1      45.993 -13.533  44.733  0.00  0.00     0.035 A 
ATOM     11  C   UNL d   1      45.721 -12.767  44.594  0.00  0.00     0.001 A 
ATOM     12  C   UNL d   1      44.820 -13.276  43.595  0.00  0.00     0.001 A 
ATOM     13  C   UNL d   1      45.136 -12.635  44.027  0.00  0.00    -0.000 A 
ENDROOT
BRANCH   1  14
ATOM     14  C   UNL d   1      45.610 -16.595  43.805  0.00  0.00     0.110 C 
BRANCH  14  15
ATOM     15  N   UNL d   1      46.249 -16.959  43.430  0.00  0.00    -0.242 NA
BRANCH  15  16
ATOM     16  C   UNL d   1      46.312 -17.781  43.433  0.00  0.00     0.106 A 
ATOM     17  C   UNL d   1      46.271 -18.196  44.143  0.00  0.00     0.045 A 
ATOM     18  C   UNL d   1      46.333 -19.011  44.149  0.00  0.00     0.096 A 
ATOM     19  C   UNL d   1      46.437 -19.427  43.433  0.00  0.00     0.026 A 
ATOM     20  C   UNL d   1      46.478 -19.012  42.723  0.00  0.00     0.028 A 
ATOM     21  C   UNL d   1      46.415 -18.186  42.722  0.00  0.00     0.112 A 
BRANCH  18  22
ATOM     22  O   UNL d   1      46.292 -19.422  44.858  0.00  0.00    -0.328 OA
ATOM     23  C   UNL d   1      46.289 -20.246  44.863  0.00  0.00     0.181 C 
ENDBRANCH  18  22
BRANCH  21  24
ATOM     24  O   UNL d   1      46.455 -17.771  42.012  0.00  0.00    -0.327 OA
ATOM     25  C   UNL d   1      46.516 -18.176  41.302  0.00  0.00     0.181 C 
ENDBRANCH  21  24
ENDBRANCH  15  16
ENDBRANCH  14  15
ENDBRANCH   1  14
TORSDOF 5
ENDMDL
MODEL 2
REMARK VINA RESULT:      22.1      1.098      4.850
REMARK  5 active torsions:
REMARK  status: ('A' for Active; 'I' for Inactive)
REMARK    1  A    between atoms: C_7  and  C_1 
REMARK    2  A    between atoms: N_8  and  C_7 
REMARK    3  A    between atoms: C_9  and  N_8 
REMARK    4  A    between atoms: O_17  and  C_13 
REMARK    5  A    between atoms: O_20  and  C_15 
ROOT
ATOM      1  C   UNL d   1      46.349 -17.203  43.673  0.00  0.00     0.145 A 
ATOM      2  C   UNL d   1      46.461 -17.259  42.857  0.00  0.00     0.305 A 
ATOM      3  C   UNL d   1      46.288 -17.885  44.129  0.00  0.00     0.305 A 
ATOM      4  O   UNL d   1      46.339 -18.625  43.771  0.00  0.00    -0.269 OA
ATOM      5  O   UNL d   1      46.511 -17.997  42.508  0.00  0.00    -0.269 OA
ATOM      6  C   UNL d   1      46.450 -18.679  42.964  0.00  0.00     0.242 A 
ATOM      7  O   UNL d   1      46.174 -17.832  44.955  0.00  0.00    -0.259 OA
ATOM      8  O   UNL d   1      46.522 -16.577  42.401  0.00  0.00    -0.259 OA
ATOM      9  C   UNL d   1      46.350 -19.041  43.696  0.00  0.00     0.035 A 
ATOM     10  C   UNL d   1      46.545 -19.146  42.278  0.00  0.00     0.035 A 
ATOM     11  C   UNL d   1      46.539 -19.969  42.335  0.00  0.00     0.001 A 
ATOM     12  C   UNL d   1      46.344 -19.863  43.755  0.00  0.00     0.001 A 
ATOM     13  C   UNL d   1      46.439 -20.330  43.070  0.00  0.00    -0.000 A 
ENDROOT
BRANCH   1  14
ATOM     14  C   UNL d   1      46.297 -16.457  44.035  0.00  0.00     0.110 C 
BRANCH  14  15
ATOM     15  N   UNL d   1      45.586 -16.210  44.373  0.00  0.00    -0.242 NA
BRANCH  15  16
ATOM     16  C   UNL d   1      45.459 -15.409  44.521  0.00  0.00     0.106 A 
ATOM     17  C   UNL d   1      46.061 -14.863  44.386  0.00  0.00     0.045 A 
ATOM     18  C   UNL d   1      45.938 -14.068  44.532  0.00  0.00     0.096 A 
ATOM     19  C   UNL d   1      45.200 -13.806  44.820  0.00  0.00     0.026 A 
ATOM     20  C   UNL d   1      44.598 -14.351  44.955  0.00  0.00     0.028 A 
ATOM     21  C   UNL d   1      44.727 -15.155  44.805  0.00  0.00     0.112 A 
BRANCH  18  22
ATOM     22  O   UNL d   1      46.540 -13.527  44.396  0.00  0.00    -0.328 OA
ATOM     23  C   UNL d   1      46.642 -12.881  44.899  0.00  0.00     0.181 C 
ENDBRANCH  18  22
BRANCH  21  24
ATOM     24  O   UNL d   1      44.125 -15.700  44.940  0.00  0.00    -0.327 OA
ATOM     25  C   UNL d   1      43.341 -15.469  44.886  0.00  0.00     0.181 C 
ENDBRANCH  21  24
ENDBRANCH  15  16
ENDBRANCH  14  15
ENDBRANCH   1  14
TORSDOF 5
ENDMDL
