MODEL 1
REMARK VINA RESULT:      -3.8      0.000      0.000
REMARK  3 active torsions:
REMARK  status: ('A' for Active; 'I' for Inactive)
REMARK    1  A    between atoms: C_13  and  C_2 
REMARK    2  A    between atoms: C_10  and  C_4 
REMARK    3  A    between atoms: N_7  and  C_10 
ROOT
ATOM      1  N   UNL d   1      33.188  19.257 -21.619  0.00  0.00    -0.121 NA
ATOM      2  C   UNL d   1      33.001  19.890 -22.108  0.00  0.00     0.204 A 
ATOM      3  O   UNL d   1      32.936  19.607 -22.878  0.00  0.00    -0.267 OA
ATOM      4  C   UNL d   1      33.085  18.792 -22.868  0.00  0.00     0.222 A 
ATOM      5  N   UNL d   1      33.241  18.577 -22.084  0.00  0.00    -0.119 NA
ENDROOT
BRANCH   4   6
ATOM      6  C   UNL d   1      33.079  18.283 -23.517  0.00  0.00     0.127 C 
BRANCH   6   7
ATOM      7  N   UNL d   1      32.411  17.829 -23.679  0.00  0.00    -0.300 N 
ATOM      8  C   UNL d   1      31.840  18.119 -24.196  0.00  0.00     0.081 A 
ATOM      9  C   UNL d   1      31.174  17.673 -24.360  0.00  0.00     0.053 A 
ATOM     10  C   UNL d   1      31.075  16.932 -24.009  0.00  0.00     0.239 A 
ATOM     11  C   UNL d   1      31.653  16.641 -23.488  0.00  0.00     0.053 A 
ATOM     12  O   UNL d   1      31.023  16.196 -23.631  0.00  0.00    -0.298 OA
ATOM     13  O   UNL d   1      30.476  17.179 -24.519  0.00  0.00    -0.298 OA
ATOM     14  C   UNL d   1      32.321  17.096 -23.326  0.00  0.00     0.081 A 
ATOM     15  C   UNL d   1      30.311  15.869 -23.892  0.00  0.00     0.146 A 
ATOM     16  C   UNL d   1      29.933  16.560 -24.512  0.00  0.00     0.146 A 
ENDBRANCH   6   7
ENDBRANCH   4   6
BRANCH   2  17
ATOM     17  C   UNL d   1      32.895  20.674 -21.868  0.00  0.00     0.043 A 
ATOM     18  C   UNL d   1      32.439  20.842 -21.198  0.00  0.00     0.004 A 
ATOM     19  C   UNL d   1      32.331  21.614 -20.955  0.00  0.00     0.000 A 
ATOM     20  C   UNL d   1      32.679  22.234 -21.381  0.00  0.00     0.000 A 
ATOM     21  C   UNL d   1      33.135  22.067 -22.051  0.00  0.00     0.000 A 
ATOM     22  C   UNL d   1      33.241  21.291 -22.291  0.00  0.00     0.004 A 
ENDBRANCH   2  17
TORSDOF 3
ENDMDL
MODEL 2
REMARK VINA RESULT:      -3.8      0.385      1.080
REMARK  3 active torsions:
REMARK  status: ('A' for Active; 'I' for Inactive)
REMARK    1  A    between atoms: C_13  and  C_2 
REMARK    2  A    between atoms: C_10  and  C_4 
REMARK    3  A    between atoms: N_7  and  C_10 
ROOT
ATOM      1  N   UNL d   1      33.123  19.532 -21.509  0.00  0.00    -0.121 NA
ATOM      2  C   UNL d   1      32.953  20.183 -21.979  0.00  0.00     0.204 A 
ATOM      3  O   UNL d   1      32.962  19.940 -22.766  0.00  0.00    -0.267 OA
ATOM      4  C   UNL d   1      33.140  19.131 -22.784  0.00  0.00     0.222 A 
ATOM      5  N   UNL d   1      33.240  18.879 -22.002  0.00  0.00    -0.119 NA
ENDROOT
BRANCH   4   6
ATOM      6  C   UNL d   1      33.207  18.658 -23.456  0.00  0.00     0.127 C 
BRANCH   6   7
ATOM      7  N   UNL d   1      32.580  18.173 -23.683  0.00  0.00    -0.300 N 
ATOM      8  C   UNL d   1      32.507  17.424 -23.350  0.00  0.00     0.081 A 
ATOM      9  C   UNL d   1      31.888  16.938 -23.572  0.00  0.00     0.053 A 
ATOM     10  C   UNL d   1      31.336  17.198 -24.128  0.00  0.00     0.239 A 
ATOM     11  C   UNL d   1      31.411  17.954 -24.462  0.00  0.00     0.053 A 
ATOM     12  O   UNL d   1      30.809  17.506 -24.690  0.00  0.00    -0.298 OA
ATOM     13  O   UNL d   1      31.220  16.441 -23.823  0.00  0.00    -0.298 OA
ATOM     14  C   UNL d   1      32.038  18.439 -24.235  0.00  0.00     0.081 A 
ATOM     15  C   UNL d   1      30.249  16.911 -24.809  0.00  0.00     0.146 A 
ATOM     16  C   UNL d   1      30.541  16.169 -24.201  0.00  0.00     0.146 A 
ENDBRANCH   6   7
ENDBRANCH   4   6
BRANCH   2  17
ATOM     17  C   UNL d   1      32.799  20.949 -21.709  0.00  0.00     0.043 A 
ATOM     18  C   UNL d   1      33.158  21.596 -22.079  0.00  0.00     0.004 A 
ATOM     19  C   UNL d   1      33.010  22.356 -21.818  0.00  0.00     0.000 A 
ATOM     20  C   UNL d   1      32.498  22.481 -21.178  0.00  0.00     0.000 A 
ATOM     21  C   UNL d   1      32.138  21.834 -20.808  0.00  0.00     0.000 A 
ATOM     22  C   UNL d   1      32.289  21.074 -21.074  0.00  0.00     0.004 A 
ENDBRANCH   2  17
TORSDOF 3
ENDMDL
MODEL 3
REMARK VINA RESULT:      -1.6      1.191      4.849
REMARK  3 active torsions:
REMARK  status: ('A' for Active; 'I' for Inactive)
REMARK    1  A    between atoms: C_13  and  C_2 
REMARK    2  A    between atoms: C_10  and  C_4 
REMARK    3  A    between atoms: N_7  and  C_10 
ROOT
ATOM      1  N   UNL d   1      32.849  18.080 -22.813  0.00  0.00    -0.121 NA
ATOM      2  C   UNL d   1      32.361  18.225 -23.458  0.00  0.00     0.204 A 
ATOM      3  O   UNL d   1      32.445  19.016 -23.669  0.00  0.00    -0.267 OA
ATOM      4  C   UNL d   1      32.990  19.365 -23.152  0.00  0.00     0.222 A 
ATOM      5  N   UNL d   1      33.240  18.782 -22.621  0.00  0.00    -0.119 NA
ENDROOT
BRANCH   4   6
ATOM      6  C   UNL d   1      33.241  20.151 -23.161  0.00  0.00     0.127 C 
BRANCH   6   7
ATOM      7  N   UNL d   1      33.019  20.661 -22.553  0.00  0.00    -0.300 N 
ATOM      8  C   UNL d   1      32.921  20.364 -21.792  0.00  0.00     0.081 A 
ATOM      9  C   UNL d   1      32.701  20.866 -21.184  0.00  0.00     0.053 A 
ATOM     10  C   UNL d   1      32.578  21.668 -21.333  0.00  0.00     0.239 A 
ATOM     11  C   UNL d   1      32.678  21.966 -22.103  0.00  0.00     0.053 A 
ATOM     12  O   UNL d   1      32.467  22.465 -21.536  0.00  0.00    -0.298 OA
ATOM     13  O   UNL d   1      32.468  21.420 -20.555  0.00  0.00    -0.298 OA
ATOM     14  C   UNL d   1      32.899  21.455 -22.711  0.00  0.00     0.081 A 
ATOM     15  C   UNL d   1      32.253  22.838 -20.831  0.00  0.00     0.146 A 
ATOM     16  C   UNL d   1      32.254  22.104 -20.149  0.00  0.00     0.146 A 
ENDBRANCH   6   7
ENDBRANCH   4   6
BRANCH   2  17
ATOM     17  C   UNL d   1      31.870  17.672 -23.828  0.00  0.00     0.043 A 
ATOM     18  C   UNL d   1      31.271  17.929 -24.337  0.00  0.00     0.004 A 
ATOM     19  C   UNL d   1      30.783  17.388 -24.706  0.00  0.00     0.000 A 
ATOM     20  C   UNL d   1      30.888  16.577 -24.572  0.00  0.00     0.000 A 
ATOM     21  C   UNL d   1      31.487  16.319 -24.063  0.00  0.00     0.000 A 
ATOM     22  C   UNL d   1      31.974  16.865 -23.695  0.00  0.00     0.004 A 
ENDBRANCH   2  17
TORSDOF 3
ENDMDL
MODEL 4
REMARK VINA RESULT:      -1.5      1.254      1.585
REMARK  3 active torsions:
REMARK  status: ('A' for Active; 'I' for Inactive)
REMARK    1  A    between atoms: C_13  and  C_2 
REMARK    2  A    between atoms: C_10  and  C_4 
REMARK    3  A    between atoms: N_7  and  C_10 
ROOT
ATOM      1  N   UNL d   1      33.241  20.176 -23.051  0.00  0.00    -0.121 NA
ATOM      2  C   UNL d   1      33.162  20.693 -23.684  0.00  0.00     0.204 A 
ATOM      3  O   UNL d   1      33.059  20.246 -24.368  0.00  0.00    -0.267 OA
ATOM      4  C   UNL d   1      33.073  19.445 -24.158  0.00  0.00     0.222 A 
ATOM      5  N   UNL d   1      33.186  19.403 -23.339  0.00  0.00    -0.119 NA
ENDROOT
BRANCH   4   6
ATOM      6  C   UNL d   1      32.990  18.803 -24.668  0.00  0.00     0.127 C 
BRANCH   6   7
ATOM      7  N   UNL d   1      32.381  18.260 -24.552  0.00  0.00    -0.300 N 
ATOM      8  C   UNL d   1      31.670  18.358 -24.955  0.00  0.00     0.081 A 
ATOM      9  C   UNL d   1      31.061  17.823 -24.844  0.00  0.00     0.053 A 
ATOM     10  C   UNL d   1      31.159  17.185 -24.329  0.00  0.00     0.239 A 
ATOM     11  C   UNL d   1      31.877  17.089 -23.923  0.00  0.00     0.053 A 
ATOM     12  O   UNL d   1      31.308  16.563 -23.801  0.00  0.00    -0.298 OA
ATOM     13  O   UNL d   1      30.430  17.240 -24.708  0.00  0.00    -0.298 OA
ATOM     14  C   UNL d   1      32.487  17.631 -24.039  0.00  0.00     0.081 A 
ATOM     15  C   UNL d   1      30.614  16.116 -23.794  0.00  0.00     0.146 A 
ATOM     16  C   UNL d   1      30.003  16.593 -24.430  0.00  0.00     0.146 A 
ENDBRANCH   6   7
ENDBRANCH   4   6
BRANCH   2  17
ATOM     17  C   UNL d   1      33.184  21.519 -23.641  0.00  0.00     0.043 A 
ATOM     18  C   UNL d   1      33.218  21.966 -24.337  0.00  0.00     0.004 A 
ATOM     19  C   UNL d   1      33.239  22.782 -24.302  0.00  0.00     0.000 A 
ATOM     20  C   UNL d   1      33.226  23.165 -23.566  0.00  0.00     0.000 A 
ATOM     21  C   UNL d   1      33.192  22.717 -22.871  0.00  0.00     0.000 A 
ATOM     22  C   UNL d   1      33.171  21.900 -22.911  0.00  0.00     0.004 A 
ENDBRANCH   2  17
TORSDOF 3
ENDMDL
MODEL 5
REMARK VINA RESULT:      -0.9      3.466      6.614
REMARK  3 active torsions:
REMARK  status: ('A' for Active; 'I' for Inactive)
REMARK    1  A    between atoms: C_13  and  C_2 
REMARK    2  A    between atoms: C_10  and  C_4 
REMARK    3  A    between atoms: N_7  and  C_10 
ROOT
ATOM      1  N   UNL d   1      31.461  21.459 -20.782  0.00  0.00    -0.121 NA
ATOM      2  C   UNL d   1      32.213  21.458 -21.114  0.00  0.00     0.204 A 
ATOM      3  O   UNL d   1      32.594  22.150 -20.883  0.00  0.00    -0.267 OA
ATOM      4  C   UNL d   1      32.076  22.584 -20.404  0.00  0.00     0.222 A 
ATOM      5  N   UNL d   1      31.372  22.153 -20.343  0.00  0.00    -0.119 NA
ENDROOT
BRANCH   4   6
ATOM      6  C   UNL d   1      32.228  23.313 -20.051  0.00  0.00     0.127 C 
BRANCH   6   7
ATOM      7  N   UNL d   1      32.321  23.364 -19.234  0.00  0.00    -0.300 N 
ATOM      8  C   UNL d   1      31.683  23.598 -18.769  0.00  0.00     0.081 A 
ATOM      9  C   UNL d   1      31.769  23.651 -17.956  0.00  0.00     0.053 A 
ATOM     10  C   UNL d   1      32.493  23.470 -17.604  0.00  0.00     0.239 A 
ATOM     11  C   UNL d   1      33.135  23.234 -18.076  0.00  0.00     0.053 A 
ATOM     12  O   UNL d   1      33.240  23.277 -17.299  0.00  0.00    -0.298 OA
ATOM     13  O   UNL d   1      31.885  23.699 -17.096  0.00  0.00    -0.298 OA
ATOM     14  C   UNL d   1      33.042  23.183 -18.893  0.00  0.00     0.081 A 
ATOM     15  C   UNL d   1      33.172  23.376 -16.483  0.00  0.00     0.146 A 
ATOM     16  C   UNL d   1      32.223  23.671 -16.346  0.00  0.00     0.146 A 
ENDBRANCH   6   7
ENDBRANCH   4   6
BRANCH   2  17
ATOM     17  C   UNL d   1      32.529  20.865 -21.595  0.00  0.00     0.043 A 
ATOM     18  C   UNL d   1      32.897  20.208 -21.251  0.00  0.00     0.004 A 
ATOM     19  C   UNL d   1      33.212  19.619 -21.720  0.00  0.00     0.000 A 
ATOM     20  C   UNL d   1      33.164  19.678 -22.546  0.00  0.00     0.000 A 
ATOM     21  C   UNL d   1      32.797  20.334 -22.890  0.00  0.00     0.000 A 
ATOM     22  C   UNL d   1      32.482  20.923 -22.415  0.00  0.00     0.004 A 
ENDBRANCH   2  17
TORSDOF 3
ENDMDL
