MODEL 1
REMARK VINA RESULT:      -6.4      0.000      0.000
REMARK  3 active torsions:
REMARK  status: ('A' for Active; 'I' for Inactive)
REMARK    1  A    between atoms: N_2  and  C_1 
REMARK    2  A    between atoms: C_6  and  C_5 
REMARK       I    between atoms: N_13  and  C_6 
REMARK    3  A    between atoms: C_17  and  N_13 
ROOT
ATOM      1  C   UNL d   1     -41.797-123.368 -50.926  0.00  0.00     0.285 C 
ATOM      2  N   UNL d   1     -41.225-122.924 -51.388  0.00  0.00    -0.208 NA
ATOM      3  O   UNL d   1     -42.378-123.812 -51.253  0.00  0.00    -0.265 OA
ENDROOT
BRANCH   2   4
ATOM      4  C   UNL d   1     -41.310-122.984 -52.248  0.00  0.00     0.086 A 
ATOM      5  C   UNL d   1     -41.583-122.328 -52.681  0.00  0.00     0.039 A 
ATOM      6  C   UNL d   1     -41.664-122.385 -53.500  0.00  0.00     0.089 A 
ATOM      7  N   UNL d   1     -41.912-121.853 -54.066  0.00  0.00    -0.238 NA
ATOM      8  C   UNL d   1     -41.474-123.097 -53.886  0.00  0.00     0.049 A 
ATOM      9  C   UNL d   1     -41.880-122.213 -54.789  0.00  0.00     0.111 A 
ATOM     10  C   UNL d   1     -42.084-121.871 -55.513  0.00  0.00     0.028 C 
ATOM     11  S   UNL d   1     -41.617-122.961 -54.689  0.00  0.00    -0.066 SA
ATOM     12  C   UNL d   1     -41.205-123.740 -53.452  0.00  0.00     0.010 A 
ATOM     13  C   UNL d   1     -41.123-123.684 -52.633  0.00  0.00     0.020 A 
ENDBRANCH   2   4
BRANCH   1  14
ATOM     14  C   UNL d   1     -41.784-123.364 -50.108  0.00  0.00     0.089 A 
ATOM     15  S   UNL d   1     -42.439-123.246 -49.647  0.00  0.00    -0.059 SA
ATOM     16  C   UNL d   1     -42.162-123.289 -48.850  0.00  0.00     0.156 A 
ATOM     17  C   UNL d   1     -41.387-123.425 -48.840  0.00  0.00     0.031 A 
ATOM     18  C   UNL d   1     -41.123-123.477 -49.623  0.00  0.00     0.014 A 
BRANCH  16  19
ATOM     19  N   UNL d   1     -42.602-123.206 -48.173  0.00  0.00    -0.107 N 
ATOM     20  O   UNL d   1     -43.050-123.797 -47.794  0.00  0.00    -0.531 OA
ATOM     21  O   UNL d   1     -42.669-122.503 -47.752  0.00  0.00    -0.531 OA
ENDBRANCH  16  19
ENDBRANCH   1  14
TORSDOF 3
ENDMDL
MODEL 2
REMARK VINA RESULT:      -6.2      1.785      4.930
REMARK  3 active torsions:
REMARK  status: ('A' for Active; 'I' for Inactive)
REMARK    1  A    between atoms: N_2  and  C_1 
REMARK    2  A    between atoms: C_6  and  C_5 
REMARK       I    between atoms: N_13  and  C_6 
REMARK    3  A    between atoms: C_17  and  N_13 
ROOT
ATOM      1  C   UNL d   1     -41.701-123.048 -52.809  0.00  0.00     0.285 C 
ATOM      2  N   UNL d   1     -41.531-122.490 -52.179  0.00  0.00    -0.208 NA
ATOM      3  O   UNL d   1     -41.889-123.816 -52.678  0.00  0.00    -0.265 OA
ENDROOT
BRANCH   2   4
ATOM      4  C   UNL d   1     -41.575-122.808 -51.374  0.00  0.00     0.086 A 
ATOM      5  C   UNL d   1     -42.072-122.447 -50.815  0.00  0.00     0.039 A 
ATOM      6  C   UNL d   1     -42.114-122.749 -50.049  0.00  0.00     0.089 A 
ATOM      7  N   UNL d   1     -42.539-122.524 -49.390  0.00  0.00    -0.238 NA
ATOM      8  C   UNL d   1     -41.657-123.413 -49.841  0.00  0.00     0.049 A 
ATOM      9  C   UNL d   1     -42.360-123.027 -48.784  0.00  0.00     0.111 A 
ATOM     10  C   UNL d   1     -42.669-122.997 -48.018  0.00  0.00     0.028 C 
ATOM     11  S   UNL d   1     -41.830-123.565 -49.047  0.00  0.00    -0.066 SA
ATOM     12  C   UNL d   1     -41.167-123.765 -50.399  0.00  0.00     0.010 A 
ATOM     13  C   UNL d   1     -41.126-123.463 -51.165  0.00  0.00     0.020 A 
ENDBRANCH   2   4
BRANCH   1  14
ATOM     14  C   UNL d   1     -41.681-122.827 -53.596  0.00  0.00     0.089 A 
ATOM     15  S   UNL d   1     -42.218-122.326 -53.937  0.00  0.00    -0.059 SA
ATOM     16  C   UNL d   1     -41.980-122.261 -54.745  0.00  0.00     0.156 A 
ATOM     17  C   UNL d   1     -41.338-122.699 -54.874  0.00  0.00     0.031 A 
ATOM     18  C   UNL d   1     -41.129-123.067 -54.163  0.00  0.00     0.014 A 
BRANCH  16  19
ATOM     19  N   UNL d   1     -42.336-121.822 -55.328  0.00  0.00    -0.107 N 
ATOM     20  O   UNL d   1     -43.104-121.926 -55.632  0.00  0.00    -0.531 OA
ATOM     21  O   UNL d   1     -41.976-121.191 -55.712  0.00  0.00    -0.531 OA
ENDBRANCH  16  19
ENDBRANCH   1  14
TORSDOF 3
ENDMDL
