MODEL 1
REMARK VINA RESULT:      33.8      0.000      0.000
REMARK  1 active torsions:
REMARK  status: ('A' for Active; 'I' for Inactive)
REMARK    1  A    between atoms: C_10  and  N_2 
ROOT
ATOM      1  C   UNL d   1      14.172  13.872  -2.717  0.00  0.00     0.759 A 
ATOM      2  N   UNL d   1      14.182  13.164  -2.256  0.00  0.00    -0.103 N 
ATOM      3  N   UNL d   1      13.817  13.868  -3.458  0.00  0.00    -0.038 N 
ATOM      4  C   UNL d   1      13.837  12.484  -2.558  0.00  0.00     0.280 A 
ATOM      5  N   UNL d   1      14.469  14.631  -2.566  0.00  0.00     0.066 NA
ATOM      6  C   UNL d   1      13.481  12.475  -3.299  0.00  0.00     0.075 A 
ATOM      7  N   UNL d   1      13.898  14.648  -3.775  0.00  0.00    -0.025 NA
ATOM      8  N   UNL d   1      14.291  15.099  -3.230  0.00  0.00    -0.007 NA
ATOM      9  C   UNL d   1      13.471  13.183  -3.760  0.00  0.00     0.107 A 
ATOM     10  O   UNL d   1      13.847  11.779  -2.099  0.00  0.00    -0.266 OA
ATOM     11  C   UNL d   1      13.135  11.795  -3.600  0.00  0.00     0.006 A 
ATOM     12  C   UNL d   1      13.116  13.179  -4.501  0.00  0.00     0.020 A 
ATOM     13  C   UNL d   1      12.779  11.786  -4.342  0.00  0.00     0.000 A 
ATOM     14  C   UNL d   1      12.769  12.494  -4.803  0.00  0.00     0.002 A 
ENDROOT
BRANCH   2  15
ATOM     15  C   UNL d   1      14.535  13.169  -1.520  0.00  0.00     0.084 A 
ATOM     16  C   UNL d   1      15.106  12.614  -1.314  0.00  0.00     0.017 A 
ATOM     17  C   UNL d   1      15.311  12.091  -1.803  0.00  0.00     0.002 C 
ATOM     18  C   UNL d   1      15.461  12.618  -0.575  0.00  0.00     0.002 A 
ATOM     19  C   UNL d   1      15.238  13.203  -0.014  0.00  0.00     0.000 A 
ATOM     20  C   UNL d   1      14.663  13.774  -0.202  0.00  0.00     0.002 A 
ATOM     21  C   UNL d   1      14.311  13.755  -0.959  0.00  0.00     0.018 A 
ENDBRANCH   2  15
TORSDOF 1
ENDMDL
MODEL 2
REMARK VINA RESULT:      36.1      1.414      3.642
REMARK  1 active torsions:
REMARK  status: ('A' for Active; 'I' for Inactive)
REMARK    1  A    between atoms: C_10  and  N_2 
ROOT
ATOM      1  C   UNL d   1      14.629  12.660  -1.193  0.00  0.00     0.759 A 
ATOM      2  N   UNL d   1      14.298  13.072  -1.852  0.00  0.00    -0.103 N 
ATOM      3  N   UNL d   1      14.991  13.084  -0.590  0.00  0.00    -0.038 N 
ATOM      4  C   UNL d   1      14.344  13.890  -1.878  0.00  0.00     0.280 A 
ATOM      5  N   UNL d   1      14.667  11.852  -1.013  0.00  0.00     0.066 NA
ATOM      6  C   UNL d   1      14.706  14.319  -1.277  0.00  0.00     0.075 A 
ATOM      7  N   UNL d   1      15.262  12.521  -0.020  0.00  0.00    -0.025 NA
ATOM      8  N   UNL d   1      15.062  11.782  -0.284  0.00  0.00    -0.007 NA
ATOM      9  C   UNL d   1      15.036  13.907  -0.617  0.00  0.00     0.107 A 
ATOM     10  O   UNL d   1      14.015  14.301  -2.534  0.00  0.00    -0.266 OA
ATOM     11  C   UNL d   1      14.752  15.137  -1.302  0.00  0.00     0.006 A 
ATOM     12  C   UNL d   1      15.398  14.332  -0.014  0.00  0.00     0.020 A 
ATOM     13  C   UNL d   1      15.113  15.568  -0.701  0.00  0.00     0.000 A 
ATOM     14  C   UNL d   1      15.444  15.155  -0.041  0.00  0.00     0.002 A 
ENDROOT
BRANCH   2  15
ATOM     15  C   UNL d   1      13.939  12.649  -2.451  0.00  0.00     0.084 A 
ATOM     16  C   UNL d   1      13.259  12.205  -2.314  0.00  0.00     0.017 A 
ATOM     17  C   UNL d   1      12.959  12.183  -1.633  0.00  0.00     0.002 C 
ATOM     18  C   UNL d   1      12.897  11.779  -2.914  0.00  0.00     0.002 A 
ATOM     19  C   UNL d   1      13.227  11.796  -3.688  0.00  0.00     0.000 A 
ATOM     20  C   UNL d   1      13.913  12.238  -3.848  0.00  0.00     0.002 A 
ATOM     21  C   UNL d   1      14.268  12.666  -3.224  0.00  0.00     0.018 A 
ENDBRANCH   2  15
TORSDOF 1
ENDMDL
