MODEL 1
REMARK VINA RESULT:      29.7      0.000      0.000
REMARK  9 active torsions:
REMARK  status: ('A' for Active; 'I' for Inactive)
REMARK    1  A    between atoms: S_3  and  C_1 
REMARK    2  A    between atoms: C_7  and  S_3 
REMARK    3  A    between atoms: N_8  and  C_4 
REMARK    4  A    between atoms: C_19  and  N_8 
REMARK    5  A    between atoms: C_20  and  N_8 
REMARK    6  A    between atoms: O_17  and  C_22 
REMARK    7  A    between atoms: O_18  and  C_21 
REMARK    8  A    between atoms: C_21  and  C_19 
REMARK    9  A    between atoms: C_22  and  C_20 
ROOT
ATOM      1  C   UNL d   1      46.120 -16.858  43.645  0.00  0.00     0.187 A 
ATOM      2  N   UNL d   1      46.153 -17.203  42.909  0.00  0.00    -0.209 NA
ATOM      3  C   UNL d   1      46.363 -17.997  43.020  0.00  0.00     0.181 A 
ATOM      4  S   UNL d   1      46.455 -18.125  43.824  0.00  0.00    -0.036 SA
ATOM      5  C   UNL d   1      46.304 -17.419  44.206  0.00  0.00     0.118 A 
ATOM      6 CL   UNL d   1      46.267 -17.057  44.946  0.00  0.00    -0.073 Cl
ENDROOT
BRANCH   1   7
ATOM      7  S   UNL d   1      45.931 -16.071  43.794  0.00  0.00     0.228 S 
ATOM      8  O   UNL d   1      45.854 -15.807  44.564  0.00  0.00    -0.216 OA
ATOM      9  O   UNL d   1      45.819 -15.550  43.165  0.00  0.00    -0.216 OA
BRANCH   7  10
ATOM     10  C   UNL d   1      45.746 -15.309  44.067  0.00  0.00     0.089 A 
ATOM     11  C   UNL d   1      45.088 -15.200  44.570  0.00  0.00     0.011 A 
ATOM     12  C   UNL d   1      44.906 -14.439  44.841  0.00  0.00     0.001 A 
ATOM     13  C   UNL d   1      45.370 -13.793  44.615  0.00  0.00     0.000 A 
ATOM     14  C   UNL d   1      46.030 -13.903  44.110  0.00  0.00     0.001 A 
ATOM     15  C   UNL d   1      45.192 -13.039  44.882  0.00  0.00     0.000 C 
ATOM     16  C   UNL d   1      46.210 -14.662  43.842  0.00  0.00     0.011 A 
ENDBRANCH   7  10
ENDBRANCH   1   7
BRANCH   3  17
ATOM     17  N   UNL d   1      46.399 -18.355  42.286  0.00  0.00    -0.280 N 
BRANCH  17  18
ATOM     18  C   UNL d   1      46.409 -17.896  41.604  0.00  0.00     0.108 C 
BRANCH  18  19
ATOM     19  C   UNL d   1      46.644 -18.228  40.886  0.00  0.00     0.135 C 
BRANCH  19  20
ATOM     20  O   UNL d   1      46.468 -17.846  40.177  0.00  0.00    -0.325 OA
ATOM     21  C   UNL d   1      45.688 -17.804  39.913  0.00  0.00     0.182 C 
ENDBRANCH  19  20
ENDBRANCH  18  19
ENDBRANCH  17  18
BRANCH  17  22
ATOM     22  C   UNL d   1      46.436 -19.038  41.828  0.00  0.00     0.108 C 
BRANCH  22  23
ATOM     23  C   UNL d   1      46.603 -19.757  42.177  0.00  0.00     0.135 C 
BRANCH  23  24
ATOM     24  O   UNL d   1      46.007 -20.318  42.272  0.00  0.00    -0.325 OA
ATOM     25  C   UNL d   1      45.305 -20.118  42.644  0.00  0.00     0.182 C 
ENDBRANCH  23  24
ENDBRANCH  22  23
ENDBRANCH  17  22
ENDBRANCH   3  17
TORSDOF 9
ENDMDL
MODEL 2
REMARK VINA RESULT:      31.2      1.882      4.870
REMARK  9 active torsions:
REMARK  status: ('A' for Active; 'I' for Inactive)
REMARK    1  A    between atoms: S_3  and  C_1 
REMARK    2  A    between atoms: C_7  and  S_3 
REMARK    3  A    between atoms: N_8  and  C_4 
REMARK    4  A    between atoms: C_19  and  N_8 
REMARK    5  A    between atoms: C_20  and  N_8 
REMARK    6  A    between atoms: O_17  and  C_22 
REMARK    7  A    between atoms: O_18  and  C_21 
REMARK    8  A    between atoms: C_21  and  C_19 
REMARK    9  A    between atoms: C_22  and  C_20 
ROOT
ATOM      1  C   UNL d   1      45.593 -15.982  44.476  0.00  0.00     0.187 A 
ATOM      2  N   UNL d   1      46.045 -15.307  44.442  0.00  0.00    -0.209 NA
ATOM      3  C   UNL d   1      45.547 -14.669  44.623  0.00  0.00     0.181 A 
ATOM      4  S   UNL d   1      44.797 -14.966  44.766  0.00  0.00    -0.036 SA
ATOM      5  C   UNL d   1      44.830 -15.777  44.673  0.00  0.00     0.118 A 
ATOM      6 CL   UNL d   1      44.382 -16.469  44.705  0.00  0.00    -0.073 Cl
ENDROOT
BRANCH   1   7
ATOM      7  S   UNL d   1      45.865 -16.745  44.334  0.00  0.00     0.228 S 
ATOM      8  O   UNL d   1      45.498 -17.213  43.773  0.00  0.00    -0.216 OA
ATOM      9  O   UNL d   1      46.508 -17.037  44.758  0.00  0.00    -0.216 OA
BRANCH   7  10
ATOM     10  C   UNL d   1      46.047 -17.522  44.104  0.00  0.00     0.089 A 
ATOM     11  C   UNL d   1      45.972 -17.744  43.303  0.00  0.00     0.011 A 
ATOM     12  C   UNL d   1      46.154 -18.519  43.077  0.00  0.00     0.001 A 
ATOM     13  C   UNL d   1      46.407 -19.070  43.639  0.00  0.00     0.000 A 
ATOM     14  C   UNL d   1      46.481 -18.847  44.443  0.00  0.00     0.001 A 
ATOM     15  C   UNL d   1      46.588 -19.838  43.418  0.00  0.00     0.000 C 
ATOM     16  C   UNL d   1      46.300 -18.074  44.667  0.00  0.00     0.011 A 
ENDBRANCH   7  10
ENDBRANCH   1   7
BRANCH   3  17
ATOM     17  N   UNL d   1      45.991 -13.983  44.592  0.00  0.00    -0.280 N 
BRANCH  17  18
ATOM     18  C   UNL d   1      45.957 -13.500  43.928  0.00  0.00     0.108 C 
BRANCH  18  19
ATOM     19  C   UNL d   1      45.287 -13.507  43.446  0.00  0.00     0.135 C 
BRANCH  19  20
ATOM     20  O   UNL d   1      45.039 -12.815  43.073  0.00  0.00    -0.325 OA
ATOM     21  C   UNL d   1      44.442 -12.843  42.505  0.00  0.00     0.182 C 
ENDBRANCH  19  20
ENDBRANCH  18  19
ENDBRANCH  17  18
BRANCH  17  22
ATOM     22  C   UNL d   1      46.528 -13.466  44.941  0.00  0.00     0.108 C 
BRANCH  22  23
ATOM     23  C   UNL d   1      46.645 -12.723  44.626  0.00  0.00     0.135 C 
BRANCH  23  24
ATOM     24  O   UNL d   1      46.157 -12.098  44.849  0.00  0.00    -0.325 OA
ATOM     25  C   UNL d   1      45.352 -12.214  44.940  0.00  0.00     0.182 C 
ENDBRANCH  23  24
ENDBRANCH  22  23
ENDBRANCH  17  22
ENDBRANCH   3  17
TORSDOF 9
ENDMDL
