MODEL 1
REMARK VINA RESULT:      22.0      0.000      0.000
REMARK  3 active torsions:
REMARK  status: ('A' for Active; 'I' for Inactive)
REMARK    1  A    between atoms: N_2  and  S_1 
REMARK    2  A    between atoms: N_3  and  S_1 
REMARK    3  A    between atoms: C_6  and  N_3 
ROOT
ATOM      1  S   UNL d   1      14.654  12.641  -0.701  0.00  0.00     0.351 S 
ATOM      2  O   UNL d   1      15.230  12.052  -0.691  0.00  0.00    -0.180 OA
ATOM      3  O   UNL d   1      14.079  13.228  -0.712  0.00  0.00    -0.180 OA
ENDROOT
BRANCH   1   4
ATOM      4  N   UNL d   1      14.339  12.318  -1.390  0.00  0.00    -0.215 N 
ATOM      5  C   UNL d   1      14.816  12.246  -2.065  0.00  0.00     0.093 C 
ATOM      6  C   UNL d   1      14.500  11.927  -2.746  0.00  0.00     0.020 C 
ATOM      7  C   UNL d   1      13.698  11.780  -2.807  0.00  0.00     0.003 C 
ATOM      8  C   UNL d   1      13.204  11.956  -2.173  0.00  0.00     0.020 C 
ATOM      9  C   UNL d   1      13.511  12.280  -1.477  0.00  0.00     0.093 C 
ENDBRANCH   1   4
BRANCH   1  10
ATOM     10  N   UNL d   1      14.920  13.012  -0.015  0.00  0.00    -0.144 NA
BRANCH  10  11
ATOM     11  C   UNL d   1      15.116  13.830  -0.025  0.00  0.00     0.095 A 
ATOM     12  C   UNL d   1      15.914  14.066  -0.018  0.00  0.00     0.020 A 
ATOM     13  C   UNL d   1      16.107  14.871  -0.040  0.00  0.00     0.002 A 
ATOM     14  C   UNL d   1      15.500  15.441  -0.062  0.00  0.00     0.000 A 
ATOM     15  C   UNL d   1      14.694  15.218  -0.070  0.00  0.00     0.002 A 
ATOM     16  C   UNL d   1      15.701  16.245  -0.065  0.00  0.00     0.000 C 
ATOM     17  C   UNL d   1      14.505  14.400  -0.054  0.00  0.00     0.020 A 
ENDBRANCH  10  11
ENDBRANCH   1  10
TORSDOF 3
ENDMDL
