MODEL 1
REMARK VINA RESULT:      -0.5      0.000      0.000
REMARK  5 active torsions:
REMARK  status: ('A' for Active; 'I' for Inactive)
REMARK    1  A    between atoms: N_7  and  S_1 
REMARK    2  A    between atoms: C_10  and  S_1 
REMARK    3  A    between atoms: C_2  and  N_4 
REMARK       I    between atoms: N_4  and  C_8 
REMARK    4  A    between atoms: C_8  and  C_13 
REMARK    5  A    between atoms: O_23  and  C_14 
ROOT
ATOM      1  C   UNL d   1     -41.702-123.112 -49.937  0.00  0.00     0.104 A 
ATOM      2  C   UNL d   1     -41.633-122.874 -51.553  0.00  0.00     0.058 A 
ATOM      3  C   UNL d   1     -41.738-123.745 -50.428  0.00  0.00     0.013 A 
ATOM      4  C   UNL d   1     -41.630-122.329 -50.235  0.00  0.00     0.013 A 
ATOM      5  C   UNL d   1     -41.704-123.637 -51.245  0.00  0.00     0.005 A 
ATOM      6  C   UNL d   1     -41.596-122.219 -51.050  0.00  0.00     0.005 A 
ENDROOT
BRANCH   2   7
ATOM      7  C   UNL d   1     -41.599-122.767 -52.371  0.00  0.00     0.281 C 
ATOM      8  N   UNL d   1     -42.017-122.142 -52.721  0.00  0.00    -0.183 NA
ATOM      9  O   UNL d   1     -41.150-123.281 -52.838  0.00  0.00    -0.265 OA
BRANCH   8  10
ATOM     10  C   UNL d   1     -41.973-122.046 -53.548  0.00  0.00     0.197 A 
ATOM     11  N   UNL d   1     -42.547-122.250 -54.074  0.00  0.00    -0.219 NA
ATOM     12  C   UNL d   1     -42.288-122.065 -54.842  0.00  0.00     0.112 A 
ATOM     13  C   UNL d   1     -42.633-122.151 -55.561  0.00  0.00     0.112 A 
ATOM     14  C   UNL d   1     -41.552-121.750 -54.753  0.00  0.00     0.052 A 
ATOM     15  C   UNL d   1     -42.220-121.907 -56.234  0.00  0.00     0.026 A 
ATOM     16  C   UNL d   1     -41.485-121.591 -56.151  0.00  0.00     0.003 A 
ATOM     17  C   UNL d   1     -41.139-121.506 -55.426  0.00  0.00     0.008 A 
ATOM     18  S   UNL d   1     -41.345-121.732 -53.959  0.00  0.00    -0.047 SA
BRANCH  13  19
ATOM     19  O   UNL d   1     -43.383-122.474 -55.630  0.00  0.00    -0.327 OA
ATOM     20  C   UNL d   1     -43.714-122.585 -56.354  0.00  0.00     0.181 C 
ENDBRANCH  13  19
ENDBRANCH   8  10
ENDBRANCH   2   7
BRANCH   1  21
ATOM     21  S   UNL d   1     -41.739-123.246 -49.118  0.00  0.00     0.272 S 
ATOM     22  O   UNL d   1     -41.129-122.689 -49.001  0.00  0.00    -0.200 OA
ATOM     23  O   UNL d   1     -42.346-123.801 -49.235  0.00  0.00    -0.200 OA
BRANCH  21  24
ATOM     24  N   UNL d   1     -41.774-123.380 -48.295  0.00  0.00    -0.225 N 
ATOM     25  C   UNL d   1     -42.478-123.206 -47.871  0.00  0.00     0.118 A 
ATOM     26  C   UNL d   1     -42.503-123.339 -47.067  0.00  0.00     0.142 A 
ATOM     27  O   UNL d   1     -41.840-123.644 -46.676  0.00  0.00    -0.300 OA
ATOM     28  C   UNL d   1     -41.147-123.817 -47.078  0.00  0.00     0.142 A 
ATOM     29  C   UNL d   1     -41.123-123.684 -47.881  0.00  0.00     0.118 A 
ENDBRANCH  21  24
ENDBRANCH   1  21
TORSDOF 5
ENDMDL
MODEL 2
REMARK VINA RESULT:       1.0      1.148      6.443
REMARK  5 active torsions:
REMARK  status: ('A' for Active; 'I' for Inactive)
REMARK    1  A    between atoms: N_7  and  S_1 
REMARK    2  A    between atoms: C_10  and  S_1 
REMARK    3  A    between atoms: C_2  and  N_4 
REMARK       I    between atoms: N_4  and  C_8 
REMARK    4  A    between atoms: C_8  and  C_13 
REMARK    5  A    between atoms: O_23  and  C_14 
ROOT
ATOM      1  C   UNL d   1     -42.089-122.272 -53.205  0.00  0.00     0.104 A 
ATOM      2  C   UNL d   1     -41.970-122.591 -51.605  0.00  0.00     0.058 A 
ATOM      3  C   UNL d   1     -42.751-122.262 -52.753  0.00  0.00     0.013 A 
ATOM      4  C   UNL d   1     -41.335-122.443 -52.874  0.00  0.00     0.013 A 
ATOM      5  C   UNL d   1     -42.704-122.421 -51.945  0.00  0.00     0.005 A 
ATOM      6  C   UNL d   1     -41.285-122.602 -52.068  0.00  0.00     0.005 A 
ENDROOT
BRANCH   2   7
ATOM      7  C   UNL d   1     -41.923-122.751 -50.797  0.00  0.00     0.281 C 
ATOM      8  N   UNL d   1     -42.603-122.689 -50.326  0.00  0.00    -0.183 NA
ATOM      9  O   UNL d   1     -41.201-122.970 -50.458  0.00  0.00    -0.265 OA
BRANCH   8  10
ATOM     10  C   UNL d   1     -42.540-122.854 -49.511  0.00  0.00     0.197 A 
ATOM     11  N   UNL d   1     -42.054-122.476 -48.993  0.00  0.00    -0.219 NA
ATOM     12  C   UNL d   1     -42.157-122.803 -48.236  0.00  0.00     0.112 A 
ATOM     13  C   UNL d   1     -41.818-122.639 -47.528  0.00  0.00     0.112 A 
ATOM     14  C   UNL d   1     -42.713-123.380 -48.323  0.00  0.00     0.052 A 
ATOM     15  C   UNL d   1     -42.047-123.075 -46.864  0.00  0.00     0.026 A 
ATOM     16  C   UNL d   1     -42.602-123.652 -46.946  0.00  0.00     0.003 A 
ATOM     17  C   UNL d   1     -42.942-123.816 -47.659  0.00  0.00     0.008 A 
ATOM     18  S   UNL d   1     -42.959-123.422 -49.106  0.00  0.00    -0.047 SA
BRANCH  13  19
ATOM     19  O   UNL d   1     -41.254-122.048 -47.461  0.00  0.00    -0.327 OA
ATOM     20  C   UNL d   1     -41.123-121.688 -46.754  0.00  0.00     0.181 C 
ENDBRANCH  13  19
ENDBRANCH   8  10
ENDBRANCH   2   7
BRANCH   1  21
ATOM     21  S   UNL d   1     -42.163-122.108 -54.016  0.00  0.00     0.272 S 
ATOM     22  O   UNL d   1     -41.634-121.468 -53.932  0.00  0.00    -0.200 OA
ATOM     23  O   UNL d   1     -42.689-122.745 -54.097  0.00  0.00    -0.200 OA
BRANCH  21  24
ATOM     24  N   UNL d   1     -42.235-121.942 -54.830  0.00  0.00    -0.225 N 
ATOM     25  C   UNL d   1     -41.594-121.593 -55.246  0.00  0.00     0.118 A 
ATOM     26  C   UNL d   1     -41.674-121.435 -56.042  0.00  0.00     0.142 A 
ATOM     27  O   UNL d   1     -42.382-121.616 -56.432  0.00  0.00    -0.300 OA
ATOM     28  C   UNL d   1     -43.014-121.956 -56.038  0.00  0.00     0.142 A 
ATOM     29  C   UNL d   1     -42.934-122.114 -55.243  0.00  0.00     0.118 A 
ENDBRANCH  21  24
ENDBRANCH   1  21
TORSDOF 5
ENDMDL
