MODEL 1
REMARK VINA RESULT:      -3.9      0.000      0.000
REMARK  4 active torsions:
REMARK  status: ('A' for Active; 'I' for Inactive)
REMARK    1  A    between atoms: C_6  and  N_1 
REMARK    2  A    between atoms: C_12  and  C_6 
REMARK    3  A    between atoms: O_18  and  C_7 
REMARK    4  A    between atoms: O_19  and  C_10 
ROOT
ATOM      1  N   UNL d   1      57.607   0.572  31.883  0.00  0.00    -0.251 N 
ATOM      2  C   UNL d   1      58.380   0.647  32.191  0.00  0.00     0.378 A 
ATOM      3  C   UNL d   1      57.079   0.560  32.520  0.00  0.00     0.092 A 
ATOM      4  O   UNL d   1      58.325   0.681  33.018  0.00  0.00    -0.258 OA
ATOM      5  C   UNL d   1      57.522   0.627  33.220  0.00  0.00     0.121 A 
ATOM      6  O   UNL d   1      59.071   0.682  31.746  0.00  0.00    -0.237 OA
ATOM      7  C   UNL d   1      56.260   0.496  32.547  0.00  0.00     0.020 A 
ATOM      8  C   UNL d   1      57.128   0.629  33.949  0.00  0.00     0.026 A 
ATOM      9  C   UNL d   1      55.879   0.500  33.279  0.00  0.00     0.002 A 
ATOM     10  C   UNL d   1      56.311   0.566  33.976  0.00  0.00     0.002 A 
ATOM     11  C   UNL d   1      55.052   0.436  33.301  0.00  0.00     0.000 C 
ENDROOT
BRANCH   1  12
ATOM     12  C   UNL d   1      57.367   0.517  31.095  0.00  0.00     0.085 C 
BRANCH  12  13
ATOM     13  C   UNL d   1      57.720  -0.040  30.597  0.00  0.00     0.020 A 
ATOM     14  C   UNL d   1      58.123   0.210  29.933  0.00  0.00     0.028 A 
ATOM     15  C   UNL d   1      58.476  -0.335  29.433  0.00  0.00     0.116 A 
ATOM     16  C   UNL d   1      58.420  -1.143  29.609  0.00  0.00     0.116 A 
ATOM     17  C   UNL d   1      58.013  -1.393  30.278  0.00  0.00     0.026 A 
ATOM     18  C   UNL d   1      57.661  -0.836  30.775  0.00  0.00     0.004 A 
BRANCH  15  19
ATOM     19  O   UNL d   1      58.880  -0.089  28.767  0.00  0.00    -0.326 OA
ATOM     20  C   UNL d   1      58.618   0.680  28.632  0.00  0.00     0.181 C 
ENDBRANCH  15  19
BRANCH  16  21
ATOM     21  O   UNL d   1      58.772  -1.695  29.110  0.00  0.00    -0.326 OA
ATOM     22  C   UNL d   1      59.020  -2.414  29.411  0.00  0.00     0.181 C 
ENDBRANCH  16  21
ENDBRANCH  12  13
ENDBRANCH   1  12
TORSDOF 4
ENDMDL
MODEL 2
REMARK VINA RESULT:      -3.2      1.411      4.369
REMARK  4 active torsions:
REMARK  status: ('A' for Active; 'I' for Inactive)
REMARK    1  A    between atoms: C_6  and  N_1 
REMARK    2  A    between atoms: C_12  and  C_6 
REMARK    3  A    between atoms: O_18  and  C_7 
REMARK    4  A    between atoms: O_19  and  C_10 
ROOT
ATOM      1  N   UNL d   1      56.892  -0.357  31.515  0.00  0.00    -0.251 N 
ATOM      2  C   UNL d   1      56.619  -1.141  31.607  0.00  0.00     0.378 A 
ATOM      3  C   UNL d   1      57.500  -0.364  30.953  0.00  0.00     0.092 A 
ATOM      4  O   UNL d   1      57.060  -1.628  31.102  0.00  0.00    -0.258 OA
ATOM      5  C   UNL d   1      57.604  -1.148  30.699  0.00  0.00     0.121 A 
ATOM      6  O   UNL d   1      56.016  -1.381  32.114  0.00  0.00    -0.237 OA
ATOM      7  C   UNL d   1      57.965   0.241  30.648  0.00  0.00     0.020 A 
ATOM      8  C   UNL d   1      58.183  -1.315  30.131  0.00  0.00     0.026 A 
ATOM      9  C   UNL d   1      58.539   0.063  30.083  0.00  0.00     0.002 A 
ATOM     10  C   UNL d   1      58.647  -0.712  29.826  0.00  0.00     0.002 A 
ATOM     11  C   UNL d   1      59.005   0.676  29.777  0.00  0.00     0.000 C 
ENDROOT
BRANCH   1  12
ATOM     12  C   UNL d   1      56.631   0.329  31.893  0.00  0.00     0.085 C 
BRANCH  12  13
ATOM     13  C   UNL d   1      56.746   0.417  32.706  0.00  0.00     0.020 A 
ATOM     14  C   UNL d   1      56.100   0.477  33.201  0.00  0.00     0.028 A 
ATOM     15  C   UNL d   1      56.202   0.565  34.009  0.00  0.00     0.116 A 
ATOM     16  C   UNL d   1      56.970   0.592  34.320  0.00  0.00     0.116 A 
ATOM     17  C   UNL d   1      57.620   0.532  33.821  0.00  0.00     0.026 A 
ATOM     18  C   UNL d   1      57.505   0.444  33.008  0.00  0.00     0.004 A 
BRANCH  15  19
ATOM     19  O   UNL d   1      55.558   0.625  34.507  0.00  0.00    -0.326 OA
ATOM     20  C   UNL d   1      54.902   0.505  34.022  0.00  0.00     0.181 C 
ENDBRANCH  15  19
BRANCH  16  21
ATOM     21  O   UNL d   1      57.079   0.680  35.131  0.00  0.00    -0.326 OA
ATOM     22  C   UNL d   1      57.836   0.682  35.441  0.00  0.00     0.181 C 
ENDBRANCH  16  21
ENDBRANCH  12  13
ENDBRANCH   1  12
TORSDOF 4
ENDMDL
MODEL 3
REMARK VINA RESULT:      -3.2      1.255      4.289
REMARK  4 active torsions:
REMARK  status: ('A' for Active; 'I' for Inactive)
REMARK    1  A    between atoms: C_6  and  N_1 
REMARK    2  A    between atoms: C_12  and  C_6 
REMARK    3  A    between atoms: O_18  and  C_7 
REMARK    4  A    between atoms: O_19  and  C_10 
ROOT
ATOM      1  N   UNL d   1      57.119  -0.213  31.299  0.00  0.00    -0.251 N 
ATOM      2  C   UNL d   1      56.846  -0.988  31.452  0.00  0.00     0.378 A 
ATOM      3  C   UNL d   1      57.721  -0.264  30.733  0.00  0.00     0.092 A 
ATOM      4  O   UNL d   1      57.280  -1.512  30.979  0.00  0.00    -0.258 OA
ATOM      5  C   UNL d   1      57.820  -1.065  30.536  0.00  0.00     0.121 A 
ATOM      6  O   UNL d   1      56.248  -1.187  31.981  0.00  0.00    -0.237 OA
ATOM      7  C   UNL d   1      58.184   0.315  30.378  0.00  0.00     0.020 A 
ATOM      8  C   UNL d   1      58.393  -1.276  29.976  0.00  0.00     0.026 A 
ATOM      9  C   UNL d   1      58.751   0.093  29.822  0.00  0.00     0.002 A 
ATOM     10  C   UNL d   1      58.855  -0.698  29.621  0.00  0.00     0.002 A 
ATOM     11  C   UNL d   1      59.216   0.681  29.466  0.00  0.00     0.000 C 
ENDROOT
BRANCH   1  12
ATOM     12  C   UNL d   1      56.865   0.500  31.628  0.00  0.00     0.085 C 
BRANCH  12  13
ATOM     13  C   UNL d   1      56.680   0.537  32.432  0.00  0.00     0.020 A 
ATOM     14  C   UNL d   1      57.280   0.589  32.982  0.00  0.00     0.028 A 
ATOM     15  C   UNL d   1      57.107   0.627  33.783  0.00  0.00     0.116 A 
ATOM     16  C   UNL d   1      56.316   0.610  34.028  0.00  0.00     0.116 A 
ATOM     17  C   UNL d   1      55.713   0.557  33.473  0.00  0.00     0.026 A 
ATOM     18  C   UNL d   1      55.898   0.520  32.669  0.00  0.00     0.004 A 
BRANCH  15  19
ATOM     19  O   UNL d   1      57.706   0.679  34.336  0.00  0.00    -0.326 OA
ATOM     20  C   UNL d   1      58.403   0.682  33.897  0.00  0.00     0.181 C 
ENDBRANCH  15  19
BRANCH  16  21
ATOM     21  O   UNL d   1      56.136   0.647  34.830  0.00  0.00    -0.326 OA
ATOM     22  C   UNL d   1      55.356   0.674  35.071  0.00  0.00     0.181 C 
ENDBRANCH  16  21
ENDBRANCH  12  13
ENDBRANCH   1  12
TORSDOF 4
ENDMDL
MODEL 4
REMARK VINA RESULT:      -2.9      1.520      4.146
REMARK  4 active torsions:
REMARK  status: ('A' for Active; 'I' for Inactive)
REMARK    1  A    between atoms: C_6  and  N_1 
REMARK    2  A    between atoms: C_12  and  C_6 
REMARK    3  A    between atoms: O_18  and  C_7 
REMARK    4  A    between atoms: O_19  and  C_10 
ROOT
ATOM      1  N   UNL d   1      58.285   0.487  30.499  0.00  0.00    -0.251 N 
ATOM      2  C   UNL d   1      57.679   0.483  29.923  0.00  0.00     0.378 A 
ATOM      3  C   UNL d   1      58.988   0.253  30.129  0.00  0.00     0.092 A 
ATOM      4  O   UNL d   1      58.011   0.248  29.202  0.00  0.00    -0.258 OA
ATOM      5  C   UNL d   1      58.819   0.105  29.329  0.00  0.00     0.121 A 
ATOM      6  O   UNL d   1      56.892   0.681  30.057  0.00  0.00    -0.237 OA
ATOM      7  C   UNL d   1      59.750   0.158  30.420  0.00  0.00     0.020 A 
ATOM      8  C   UNL d   1      59.429  -0.139  28.825  0.00  0.00     0.026 A 
ATOM      9  C   UNL d   1      60.350  -0.086  29.910  0.00  0.00     0.002 A 
ATOM     10  C   UNL d   1      60.190  -0.234  29.116  0.00  0.00     0.002 A 
ATOM     11  C   UNL d   1      61.118  -0.181  30.208  0.00  0.00     0.000 C 
ENDROOT
BRANCH   1  12
ATOM     12  C   UNL d   1      58.237   0.681  31.300  0.00  0.00     0.085 C 
BRANCH  12  13
ATOM     13  C   UNL d   1      57.692   0.292  31.783  0.00  0.00     0.020 A 
ATOM     14  C   UNL d   1      57.462   0.634  32.488  0.00  0.00     0.028 A 
ATOM     15  C   UNL d   1      56.922   0.256  32.975  0.00  0.00     0.116 A 
ATOM     16  C   UNL d   1      56.611  -0.477  32.745  0.00  0.00     0.116 A 
ATOM     17  C   UNL d   1      56.843  -0.820  32.035  0.00  0.00     0.026 A 
ATOM     18  C   UNL d   1      57.388  -0.431  31.552  0.00  0.00     0.004 A 
BRANCH  15  19
ATOM     19  O   UNL d   1      56.689   0.595  33.681  0.00  0.00    -0.326 OA
ATOM     20  C   UNL d   1      57.383   0.672  34.118  0.00  0.00     0.181 C 
ENDBRANCH  15  19
BRANCH  16  21
ATOM     21  O   UNL d   1      56.068  -0.861  33.230  0.00  0.00    -0.326 OA
ATOM     22  C   UNL d   1      55.722  -1.558  32.980  0.00  0.00     0.181 C 
ENDBRANCH  16  21
ENDBRANCH  12  13
ENDBRANCH   1  12
TORSDOF 4
ENDMDL
MODEL 5
REMARK VINA RESULT:      -2.9      1.301      2.362
REMARK  4 active torsions:
REMARK  status: ('A' for Active; 'I' for Inactive)
REMARK    1  A    between atoms: C_6  and  N_1 
REMARK    2  A    between atoms: C_12  and  C_6 
REMARK    3  A    between atoms: O_18  and  C_7 
REMARK    4  A    between atoms: O_19  and  C_10 
ROOT
ATOM      1  N   UNL d   1      58.341  -0.230  30.179  0.00  0.00    -0.251 N 
ATOM      2  C   UNL d   1      58.969   0.316  30.246  0.00  0.00     0.378 A 
ATOM      3  C   UNL d   1      57.901  -0.199  30.880  0.00  0.00     0.092 A 
ATOM      4  O   UNL d   1      58.915   0.682  30.987  0.00  0.00    -0.258 OA
ATOM      5  C   UNL d   1      58.256   0.364  31.379  0.00  0.00     0.121 A 
ATOM      6  O   UNL d   1      59.540   0.461  29.670  0.00  0.00    -0.237 OA
ATOM      7  C   UNL d   1      57.231  -0.609  31.121  0.00  0.00     0.020 A 
ATOM      8  C   UNL d   1      57.925   0.508  32.124  0.00  0.00     0.026 A 
ATOM      9  C   UNL d   1      56.911  -0.457  31.866  0.00  0.00     0.002 A 
ATOM     10  C   UNL d   1      57.256   0.099  32.365  0.00  0.00     0.002 A 
ATOM     11  C   UNL d   1      56.235  -0.874  32.104  0.00  0.00     0.000 C 
ENDROOT
BRANCH   1  12
ATOM     12  C   UNL d   1      58.154  -0.730  29.549  0.00  0.00     0.085 C 
BRANCH  12  13
ATOM     13  C   UNL d   1      58.691  -1.312  29.315  0.00  0.00     0.020 A 
ATOM     14  C   UNL d   1      58.493  -2.100  29.399  0.00  0.00     0.028 A 
ATOM     15  C   UNL d   1      59.018  -2.686  29.170  0.00  0.00     0.116 A 
ATOM     16  C   UNL d   1      59.753  -2.471  28.852  0.00  0.00     0.116 A 
ATOM     17  C   UNL d   1      59.950  -1.678  28.769  0.00  0.00     0.026 A 
ATOM     18  C   UNL d   1      59.414  -1.095  29.003  0.00  0.00     0.004 A 
BRANCH  15  19
ATOM     19  O   UNL d   1      58.824  -3.475  29.252  0.00  0.00    -0.326 OA
ATOM     20  C   UNL d   1      58.385  -3.657  28.579  0.00  0.00     0.181 C 
ENDBRANCH  15  19
BRANCH  16  21
ATOM     21  O   UNL d   1      60.284  -3.055  28.621  0.00  0.00    -0.326 OA
ATOM     22  C   UNL d   1      61.088  -2.906  28.646  0.00  0.00     0.181 C 
ENDBRANCH  16  21
ENDBRANCH  12  13
ENDBRANCH   1  12
TORSDOF 4
ENDMDL
MODEL 6
REMARK VINA RESULT:      -2.6      1.428      4.259
REMARK  4 active torsions:
REMARK  status: ('A' for Active; 'I' for Inactive)
REMARK    1  A    between atoms: C_6  and  N_1 
REMARK    2  A    between atoms: C_12  and  C_6 
REMARK    3  A    between atoms: O_18  and  C_7 
REMARK    4  A    between atoms: O_19  and  C_10 
ROOT
ATOM      1  N   UNL d   1      58.969  -0.562  29.531  0.00  0.00    -0.251 N 
ATOM      2  C   UNL d   1      59.681  -0.132  29.612  0.00  0.00     0.378 A 
ATOM      3  C   UNL d   1      59.160  -1.325  29.273  0.00  0.00     0.092 A 
ATOM      4  O   UNL d   1      60.308  -0.632  29.403  0.00  0.00    -0.258 OA
ATOM      5  C   UNL d   1      59.986  -1.368  29.194  0.00  0.00     0.121 A 
ATOM      6  O   UNL d   1      59.741   0.651  29.857  0.00  0.00    -0.237 OA
ATOM      7  C   UNL d   1      58.689  -1.976  29.103  0.00  0.00     0.020 A 
ATOM      8  C   UNL d   1      60.332  -2.077  28.941  0.00  0.00     0.026 A 
ATOM      9  C   UNL d   1      59.044  -2.677  28.852  0.00  0.00     0.002 A 
ATOM     10  C   UNL d   1      59.861  -2.727  28.772  0.00  0.00     0.002 A 
ATOM     11  C   UNL d   1      58.564  -3.331  28.682  0.00  0.00     0.000 C 
ENDROOT
BRANCH   1  12
ATOM     12  C   UNL d   1      58.195  -0.312  29.672  0.00  0.00     0.085 C 
BRANCH  12  13
ATOM     13  C   UNL d   1      57.965  -0.102  30.437  0.00  0.00     0.020 A 
ATOM     14  C   UNL d   1      57.321  -0.468  30.780  0.00  0.00     0.028 A 
ATOM     15  C   UNL d   1      57.085  -0.267  31.538  0.00  0.00     0.116 A 
ATOM     16  C   UNL d   1      57.506   0.313  31.955  0.00  0.00     0.116 A 
ATOM     17  C   UNL d   1      58.153   0.681  31.608  0.00  0.00     0.026 A 
ATOM     18  C   UNL d   1      58.383   0.471  30.843  0.00  0.00     0.004 A 
BRANCH  15  19
ATOM     19  O   UNL d   1      56.441  -0.631  31.885  0.00  0.00    -0.326 OA
ATOM     20  C   UNL d   1      56.607  -1.438  31.847  0.00  0.00     0.181 C 
ENDBRANCH  15  19
BRANCH  16  21
ATOM     21  O   UNL d   1      57.273   0.519  32.716  0.00  0.00    -0.326 OA
ATOM     22  C   UNL d   1      57.838   0.681  33.284  0.00  0.00     0.181 C 
ENDBRANCH  16  21
ENDBRANCH  12  13
ENDBRANCH   1  12
TORSDOF 4
ENDMDL
MODEL 7
REMARK VINA RESULT:      -1.0      1.976      3.169
REMARK  4 active torsions:
REMARK  status: ('A' for Active; 'I' for Inactive)
REMARK    1  A    between atoms: C_6  and  N_1 
REMARK    2  A    between atoms: C_12  and  C_6 
REMARK    3  A    between atoms: O_18  and  C_7 
REMARK    4  A    between atoms: O_19  and  C_10 
ROOT
ATOM      1  N   UNL d   1      56.091   0.681  34.183  0.00  0.00    -0.251 N 
ATOM      2  C   UNL d   1      56.863   0.680  34.504  0.00  0.00     0.378 A 
ATOM      3  C   UNL d   1      55.554   0.681  34.813  0.00  0.00     0.092 A 
ATOM      4  O   UNL d   1      56.798   0.680  35.330  0.00  0.00    -0.258 OA
ATOM      5  C   UNL d   1      55.990   0.680  35.520  0.00  0.00     0.121 A 
ATOM      6  O   UNL d   1      57.561   0.680  34.069  0.00  0.00    -0.237 OA
ATOM      7  C   UNL d   1      54.733   0.681  34.827  0.00  0.00     0.020 A 
ATOM      8  C   UNL d   1      55.587   0.679  36.243  0.00  0.00     0.026 A 
ATOM      9  C   UNL d   1      54.341   0.681  35.553  0.00  0.00     0.002 A 
ATOM     10  C   UNL d   1      54.766   0.680  36.258  0.00  0.00     0.002 A 
ATOM     11  C   UNL d   1      53.512   0.681  35.562  0.00  0.00     0.000 C 
ENDROOT
BRANCH   1  12
ATOM     12  C   UNL d   1      55.861   0.682  33.390  0.00  0.00     0.085 C 
BRANCH  12  13
ATOM     13  C   UNL d   1      56.170   0.118  32.873  0.00  0.00     0.020 A 
ATOM     14  C   UNL d   1      55.890  -0.648  32.896  0.00  0.00     0.028 A 
ATOM     15  C   UNL d   1      56.190  -1.215  32.387  0.00  0.00     0.116 A 
ATOM     16  C   UNL d   1      56.783  -1.004  31.847  0.00  0.00     0.116 A 
ATOM     17  C   UNL d   1      57.064  -0.233  31.825  0.00  0.00     0.026 A 
ATOM     18  C   UNL d   1      56.755   0.331  32.343  0.00  0.00     0.004 A 
BRANCH  15  19
ATOM     19  O   UNL d   1      55.912  -1.983  32.407  0.00  0.00    -0.326 OA
ATOM     20  C   UNL d   1      55.534  -2.053  33.136  0.00  0.00     0.181 C 
ENDBRANCH  15  19
BRANCH  16  21
ATOM     21  O   UNL d   1      57.088  -1.570  31.333  0.00  0.00    -0.326 OA
ATOM     22  C   UNL d   1      57.481  -1.334  30.657  0.00  0.00     0.181 C 
ENDBRANCH  16  21
ENDBRANCH  12  13
ENDBRANCH   1  12
TORSDOF 4
ENDMDL
