MODEL 1
REMARK VINA RESULT:      -3.0      0.000      0.000
REMARK  4 active torsions:
REMARK  status: ('A' for Active; 'I' for Inactive)
REMARK    1  A    between atoms: N_2  and  S_1 
REMARK    2  A    between atoms: C_3  and  S_1 
REMARK    3  A    between atoms: C_14  and  C_4 
REMARK    4  A    between atoms: O_17  and  C_11 
ROOT
ATOM      1  S   UNL d   1     -41.827-122.846 -50.609  0.00  0.00     0.274 S 
ATOM      2  O   UNL d   1     -42.610-122.765 -50.385  0.00  0.00    -0.199 OA
ATOM      3  O   UNL d   1     -41.255-123.062 -50.055  0.00  0.00    -0.199 OA
ENDROOT
BRANCH   1   4
ATOM      4  N   UNL d   1     -41.611-122.711 -51.390  0.00  0.00    -0.213 N 
ATOM      5  C   UNL d   1     -41.348-121.972 -51.622  0.00  0.00     0.157 A 
ATOM      6  N   UNL d   1     -41.124-121.833 -52.431  0.00  0.00    -0.226 NA
ATOM      7  C   UNL d   1     -41.441-123.187 -52.730  0.00  0.00     0.101 A 
ATOM      8  C   UNL d   1     -41.659-123.327 -51.945  0.00  0.00     0.112 A 
ATOM      9  C   UNL d   1     -41.495-123.815 -53.276  0.00  0.00     0.022 C 
BRANCH   5  10
ATOM     10  C   UNL d   1     -41.298-121.356 -51.070  0.00  0.00     0.038 C 
ATOM     11  C   UNL d   1     -41.128-120.601 -51.340  0.00  0.00     0.003 C 
ENDBRANCH   5  10
ENDBRANCH   1   4
BRANCH   1  12
ATOM     12  C   UNL d   1     -42.047-122.980 -49.833  0.00  0.00     0.127 A 
ATOM     13  C   UNL d   1     -41.486-123.176 -49.271  0.00  0.00     0.022 A 
ATOM     14  C   UNL d   1     -41.698-123.311 -48.494  0.00  0.00     0.035 A 
ATOM     15 BR   UNL d   1     -41.123-123.507 -47.941  0.00  0.00    -0.049 Br
ATOM     16  C   UNL d   1     -42.490-123.249 -48.270  0.00  0.00     0.009 A 
ATOM     17  C   UNL d   1     -43.059-123.051 -48.833  0.00  0.00     0.025 A 
ATOM     18  C   UNL d   1     -42.839-122.918 -49.609  0.00  0.00     0.106 A 
BRANCH  18  19
ATOM     19  O   UNL d   1     -43.412-122.720 -50.174  0.00  0.00    -0.327 OA
ATOM     20  C   UNL d   1     -44.208-122.673 -49.962  0.00  0.00     0.181 C 
ENDBRANCH  18  19
ENDBRANCH   1  12
TORSDOF 4
ENDMDL
MODEL 2
REMARK VINA RESULT:      -2.2      1.589      3.437
REMARK  4 active torsions:
REMARK  status: ('A' for Active; 'I' for Inactive)
REMARK    1  A    between atoms: N_2  and  S_1 
REMARK    2  A    between atoms: C_3  and  S_1 
REMARK    3  A    between atoms: C_14  and  C_4 
REMARK    4  A    between atoms: O_17  and  C_11 
ROOT
ATOM      1  S   UNL d   1     -41.817-122.929 -50.451  0.00  0.00     0.274 S 
ATOM      2  O   UNL d   1     -41.583-122.172 -50.658  0.00  0.00    -0.199 OA
ATOM      3  O   UNL d   1     -41.823-123.532 -51.014  0.00  0.00    -0.199 OA
ENDROOT
BRANCH   1   4
ATOM      4  N   UNL d   1     -42.047-123.087 -49.679  0.00  0.00    -0.213 N 
ATOM      5  C   UNL d   1     -42.838-123.060 -49.472  0.00  0.00     0.157 A 
ATOM      6  N   UNL d   1     -43.075-123.224 -48.671  0.00  0.00    -0.226 NA
ATOM      7  C   UNL d   1     -41.710-123.433 -48.331  0.00  0.00     0.101 A 
ATOM      8  C   UNL d   1     -41.475-123.275 -49.107  0.00  0.00     0.112 A 
ATOM      9  C   UNL d   1     -41.124-123.619 -47.767  0.00  0.00     0.022 C 
BRANCH   5  10
ATOM     10  C   UNL d   1     -43.411-122.873 -50.040  0.00  0.00     0.038 C 
ATOM     11  C   UNL d   1     -44.196-123.047 -49.877  0.00  0.00     0.003 C 
ENDBRANCH   5  10
ENDBRANCH   1   4
BRANCH   1  12
ATOM     12  C   UNL d   1     -41.587-122.767 -51.219  0.00  0.00     0.127 A 
ATOM     13  C   UNL d   1     -41.570-123.361 -51.780  0.00  0.00     0.022 A 
ATOM     14  C   UNL d   1     -41.341-123.207 -52.549  0.00  0.00     0.035 A 
ATOM     15 BR   UNL d   1     -41.330-123.815 -53.102  0.00  0.00    -0.049 Br
ATOM     16  C   UNL d   1     -41.123-122.441 -52.766  0.00  0.00     0.009 A 
ATOM     17  C   UNL d   1     -41.139-121.839 -52.203  0.00  0.00     0.025 A 
ATOM     18  C   UNL d   1     -41.369-122.001 -51.434  0.00  0.00     0.106 A 
BRANCH  18  19
ATOM     19  O   UNL d   1     -41.384-121.395 -50.870  0.00  0.00    -0.327 OA
ATOM     20  C   UNL d   1     -41.123-120.637 -51.064  0.00  0.00     0.181 C 
ENDBRANCH  18  19
ENDBRANCH   1  12
TORSDOF 4
ENDMDL
MODEL 3
REMARK VINA RESULT:      -0.6      0.633      1.619
REMARK  4 active torsions:
REMARK  status: ('A' for Active; 'I' for Inactive)
REMARK    1  A    between atoms: N_2  and  S_1 
REMARK    2  A    between atoms: C_3  and  S_1 
REMARK    3  A    between atoms: C_14  and  C_4 
REMARK    4  A    between atoms: O_17  and  C_11 
ROOT
ATOM      1  S   UNL d   1     -41.752-122.120 -50.784  0.00  0.00     0.274 S 
ATOM      2  O   UNL d   1     -42.549-122.225 -50.630  0.00  0.00    -0.199 OA
ATOM      3  O   UNL d   1     -41.184-122.429 -50.271  0.00  0.00    -0.199 OA
ENDROOT
BRANCH   1   4
ATOM      4  N   UNL d   1     -41.518-121.706 -51.453  0.00  0.00    -0.213 N 
ATOM      5  C   UNL d   1     -41.365-122.104 -52.151  0.00  0.00     0.157 A 
ATOM      6  N   UNL d   1     -41.123-121.673 -52.844  0.00  0.00    -0.226 NA
ATOM      7  C   UNL d   1     -41.201-120.466 -52.096  0.00  0.00     0.101 A 
ATOM      8  C   UNL d   1     -41.436-120.880 -51.421  0.00  0.00     0.112 A 
ATOM      9  C   UNL d   1     -41.123-119.637 -52.048  0.00  0.00     0.022 C 
BRANCH   5  10
ATOM     10  C   UNL d   1     -41.445-122.927 -52.186  0.00  0.00     0.038 C 
ATOM     11  C   UNL d   1     -41.304-123.305 -52.901  0.00  0.00     0.003 C 
ENDBRANCH   5  10
ENDBRANCH   1   4
BRANCH   1  12
ATOM     12  C   UNL d   1     -41.989-122.532 -50.119  0.00  0.00     0.127 A 
ATOM     13  C   UNL d   1     -41.450-122.968 -49.687  0.00  0.00     0.022 A 
ATOM     14  C   UNL d   1     -41.680-123.382 -49.021  0.00  0.00     0.035 A 
ATOM     15 BR   UNL d   1     -41.125-123.816 -48.597  0.00  0.00    -0.049 Br
ATOM     16  C   UNL d   1     -42.469-123.362 -48.779  0.00  0.00     0.009 A 
ATOM     17  C   UNL d   1     -43.017-122.924 -49.212  0.00  0.00     0.025 A 
ATOM     18  C   UNL d   1     -42.779-122.511 -49.878  0.00  0.00     0.106 A 
BRANCH  18  19
ATOM     19  O   UNL d   1     -43.330-122.072 -50.311  0.00  0.00    -0.327 OA
ATOM     20  C   UNL d   1     -44.139-122.180 -50.191  0.00  0.00     0.181 C 
ENDBRANCH  18  19
ENDBRANCH   1  12
TORSDOF 4
ENDMDL
