MODEL 1
REMARK VINA RESULT:      -2.7      0.000      0.000
REMARK  6 active torsions:
REMARK  status: ('A' for Active; 'I' for Inactive)
REMARK    1  A    between atoms: C_13  and  S_1 
REMARK    2  A    between atoms: C_2  and  C_6 
REMARK       I    between atoms: N_3  and  C_2 
REMARK    3  A    between atoms: C_4  and  N_3 
REMARK    4  A    between atoms: N_5  and  C_6 
REMARK       I    between atoms: C_7  and  N_5 
REMARK    5  A    between atoms: C_6  and  C_9 
REMARK    6  A    between atoms: C_9  and  C_13 
ROOT
ATOM      1  C   UNL d   1      58.172  -0.290  30.921  0.00  0.00     0.297 C 
ATOM      2  N   UNL d   1      57.436  -0.220  31.283  0.00  0.00    -0.207 NA
ATOM      3  O   UNL d   1      58.861  -0.133  31.355  0.00  0.00    -0.264 OA
ENDROOT
BRANCH   1   4
ATOM      4  C   UNL d   1      58.225  -0.518  30.124  0.00  0.00     0.143 C 
BRANCH   4   5
ATOM      5  N   UNL d   1      57.712  -0.188  29.569  0.00  0.00    -0.203 NA
ATOM      6  C   UNL d   1      57.995   0.352  29.015  0.00  0.00     0.280 C 
ATOM      7  O   UNL d   1      58.790   0.563  29.017  0.00  0.00    -0.265 OA
ATOM      8  C   UNL d   1      57.481   0.681  28.460  0.00  0.00     0.068 C 
ENDBRANCH   4   5
BRANCH   4   9
ATOM      9  C   UNL d   1      58.789  -1.071  29.888  0.00  0.00     0.036 C 
BRANCH   9  10
ATOM     10  C   UNL d   1      58.567  -1.702  29.410  0.00  0.00     0.096 C 
BRANCH  10  11
ATOM     11  S   UNL d   1      59.034  -2.381  29.385  0.00  0.00     0.192 S 
ATOM     12  O   UNL d   1      59.312  -3.166  29.385  0.00  0.00    -0.222 OA
ATOM     13  O   UNL d   1      58.259  -2.664  29.483  0.00  0.00    -0.222 OA
ATOM     14  C   UNL d   1      59.848  -2.314  29.290  0.00  0.00     0.145 C 
ENDBRANCH  10  11
ENDBRANCH   9  10
ENDBRANCH   4   9
ENDBRANCH   1   4
BRANCH   2  15
ATOM     15  C   UNL d   1      57.385   0.007  32.077  0.00  0.00     0.085 A 
ATOM     16  C   UNL d   1      56.732  -0.221  32.535  0.00  0.00     0.018 A 
ATOM     17  C   UNL d   1      56.675   0.001  33.326  0.00  0.00     0.002 A 
ATOM     18  C   UNL d   1      56.137  -0.675  32.187  0.00  0.00     0.002 A 
ATOM     19  C   UNL d   1      56.031  -0.222  33.782  0.00  0.00     0.000 A 
ATOM     20  C   UNL d   1      57.285   0.462  33.669  0.00  0.00     0.000 A 
ATOM     21  C   UNL d   1      55.427  -0.680  33.436  0.00  0.00     0.000 A 
ATOM     22  C   UNL d   1      55.486  -0.901  32.643  0.00  0.00     0.000 A 
ATOM     23  C   UNL d   1      57.927   0.682  33.208  0.00  0.00     0.002 A 
ATOM     24  C   UNL d   1      57.982   0.460  32.422  0.00  0.00     0.019 A 
ENDBRANCH   2  15
TORSDOF 6
ENDMDL
MODEL 2
REMARK VINA RESULT:      -0.7      1.251      1.975
REMARK  6 active torsions:
REMARK  status: ('A' for Active; 'I' for Inactive)
REMARK    1  A    between atoms: C_13  and  S_1 
REMARK    2  A    between atoms: C_2  and  C_6 
REMARK       I    between atoms: N_3  and  C_2 
REMARK    3  A    between atoms: C_4  and  N_3 
REMARK    4  A    between atoms: N_5  and  C_6 
REMARK       I    between atoms: C_7  and  N_5 
REMARK    5  A    between atoms: C_6  and  C_9 
REMARK    6  A    between atoms: C_9  and  C_13 
ROOT
ATOM      1  C   UNL d   1      57.562  -0.375  31.045  0.00  0.00     0.297 C 
ATOM      2  N   UNL d   1      57.370   0.107  31.684  0.00  0.00    -0.207 NA
ATOM      3  O   UNL d   1      57.190  -1.111  30.957  0.00  0.00    -0.264 OA
ENDROOT
BRANCH   1   4
ATOM      4  C   UNL d   1      58.127  -0.125  30.490  0.00  0.00     0.143 C 
BRANCH   4   5
ATOM      5  N   UNL d   1      57.911   0.405  29.896  0.00  0.00    -0.203 NA
ATOM      6  C   UNL d   1      57.822   0.142  29.120  0.00  0.00     0.280 C 
ATOM      7  O   UNL d   1      57.949  -0.651  28.939  0.00  0.00    -0.265 OA
ATOM      8  C   UNL d   1      57.607   0.672  28.526  0.00  0.00     0.068 C 
ENDBRANCH   4   5
BRANCH   4   9
ATOM      9  C   UNL d   1      58.900  -0.406  30.532  0.00  0.00     0.036 C 
BRANCH   9  10
ATOM     10  C   UNL d   1      59.523   0.123  30.630  0.00  0.00     0.096 C 
BRANCH  10  11
ATOM     11  S   UNL d   1      60.300  -0.140  30.557  0.00  0.00     0.192 S 
ATOM     12  O   UNL d   1      61.130  -0.193  30.505  0.00  0.00    -0.222 OA
ATOM     13  O   UNL d   1      60.367   0.682  30.650  0.00  0.00    -0.222 OA
ATOM     14  C   UNL d   1      60.452  -0.943  30.454  0.00  0.00     0.145 C 
ENDBRANCH  10  11
ENDBRANCH   9  10
ENDBRANCH   4   9
ENDBRANCH   1   4
BRANCH   2  15
ATOM     15  C   UNL d   1      56.807  -0.144  32.236  0.00  0.00     0.085 A 
ATOM     16  C   UNL d   1      56.896   0.047  33.039  0.00  0.00     0.018 A 
ATOM     17  C   UNL d   1      56.340  -0.199  33.594  0.00  0.00     0.002 A 
ATOM     18  C   UNL d   1      57.552   0.489  33.276  0.00  0.00     0.002 A 
ATOM     19  C   UNL d   1      56.424  -0.012  34.388  0.00  0.00     0.000 A 
ATOM     20  C   UNL d   1      55.678  -0.647  33.343  0.00  0.00     0.000 A 
ATOM     21  C   UNL d   1      57.083   0.433  34.633  0.00  0.00     0.000 A 
ATOM     22  C   UNL d   1      57.640   0.679  34.075  0.00  0.00     0.000 A 
ATOM     23  C   UNL d   1      55.599  -0.831  32.546  0.00  0.00     0.002 A 
ATOM     24  C   UNL d   1      56.153  -0.585  31.996  0.00  0.00     0.019 A 
ENDBRANCH   2  15
TORSDOF 6
ENDMDL
