MODEL 1
REMARK VINA RESULT:      25.2      0.000      0.000
REMARK  5 active torsions:
REMARK  status: ('A' for Active; 'I' for Inactive)
REMARK    1  A    between atoms: C_9  and  N_1 
REMARK    2  A    between atoms: C_2  and  C_9 
REMARK    3  A    between atoms: S_14  and  C_5 
REMARK    4  A    between atoms: C_12  and  C_16 
REMARK       I    between atoms: N_13  and  C_12 
REMARK    5  A    between atoms: C_16  and  S_14 
ROOT
ATOM      1  C   UNL d   1      46.465 -18.118  43.599  0.00  0.00     0.189 A 
ATOM      2  N   UNL d   1      46.133 -17.900  44.316  0.00  0.00    -0.265 N 
ATOM      3  C   UNL d   1      46.027 -17.083  44.310  0.00  0.00     0.202 A 
ATOM      4  N   UNL d   1      46.565 -17.438  43.149  0.00  0.00    -0.126 NA
ATOM      5  N   UNL d   1      46.295 -16.796  43.587  0.00  0.00    -0.121 NA
ATOM      6  C   UNL d   1      45.934 -18.400  44.943  0.00  0.00     0.103 C 
ENDROOT
BRANCH   1   7
ATOM      7  C   UNL d   1      46.632 -18.903  43.447  0.00  0.00     0.123 C 
BRANCH   7   8
ATOM      8  N   UNL d   1      46.217 -19.314  42.863  0.00  0.00    -0.265 N 
ATOM      9  C   UNL d   1      45.716 -19.964  42.987  0.00  0.00     0.296 A 
ATOM     10  S   UNL d   1      45.423 -20.195  42.253  0.00  0.00    -0.025 SA
ATOM     11  O   UNL d   1      45.547 -20.311  43.714  0.00  0.00    -0.259 OA
ATOM     12  C   UNL d   1      45.746 -19.684  41.678  0.00  0.00     0.050 A 
ATOM     13  C   UNL d   1      46.234 -19.143  42.061  0.00  0.00     0.074 A 
ATOM     14  C   UNL d   1      45.650 -19.650  40.855  0.00  0.00     0.008 A 
ATOM     15  C   UNL d   1      46.633 -18.562  41.620  0.00  0.00     0.018 A 
ATOM     16  C   UNL d   1      46.541 -18.525  40.799  0.00  0.00     0.002 A 
ATOM     17  C   UNL d   1      46.044 -19.076  40.422  0.00  0.00     0.001 A 
ENDBRANCH   7   8
ENDBRANCH   1   7
BRANCH   3  18
ATOM     18  S   UNL d   1      45.709 -16.629  44.922  0.00  0.00    -0.043 SA
BRANCH  18  19
ATOM     19  C   UNL d   1      45.807 -15.809  44.932  0.00  0.00     0.099 C 
BRANCH  19  20
ATOM     20  C   UNL d   1      45.193 -15.311  44.688  0.00  0.00     0.271 C 
ATOM     21  N   UNL d   1      45.340 -14.516  44.538  0.00  0.00    -0.272 N 
ATOM     22  C   UNL d   1      44.659 -14.122  44.304  0.00  0.00     0.083 A 
ATOM     23  C   UNL d   1      46.104 -14.212  44.631  0.00  0.00     0.083 A 
ATOM     24  C   UNL d   1      44.564 -13.328  44.102  0.00  0.00     0.019 A 
ATOM     25  C   UNL d   1      45.127 -12.733  44.087  0.00  0.00     0.002 A 
ATOM     26  C   UNL d   1      45.946 -12.795  44.275  0.00  0.00     0.002 A 
ATOM     27  C   UNL d   1      46.377 -13.436  44.513  0.00  0.00     0.019 A 
ATOM     28  O   UNL d   1      44.437 -15.612  44.595  0.00  0.00    -0.266 OA
ENDBRANCH  19  20
ENDBRANCH  18  19
ENDBRANCH   3  18
TORSDOF 5
ENDMDL
