MODEL 1
REMARK VINA RESULT:      30.7      0.000      0.000
REMARK  4 active torsions:
REMARK  status: ('A' for Active; 'I' for Inactive)
REMARK       I    between atoms: N_2  and  C_1 
REMARK    1  A    between atoms: C_5  and  C_1 
REMARK    2  A    between atoms: C_8  and  N_2 
REMARK    3  A    between atoms: O_9  and  C_5 
REMARK    4  A    between atoms: C_11  and  O_9 
ROOT
ATOM      1  C   UNL d   1      14.648  14.415  -1.599  0.00  0.00     0.290 C 
ATOM      2  N   UNL d   1      14.897  14.109  -0.874  0.00  0.00    -0.270 N 
ATOM      3  O   UNL d   1      14.829  15.198  -1.802  0.00  0.00    -0.264 OA
ATOM      4  C   UNL d   1      15.331  14.595  -0.349  0.00  0.00     0.102 C 
ENDROOT
BRANCH   1   5
ATOM      5  C   UNL d   1      14.223  13.944  -2.119  0.00  0.00     0.184 C 
BRANCH   5   6
ATOM      6  O   UNL d   1      13.885  14.276  -2.799  0.00  0.00    -0.300 OA
BRANCH   6   7
ATOM      7  C   UNL d   1      13.607  13.788  -3.416  0.00  0.00     0.100 A 
ATOM      8  C   UNL d   1      13.341  13.021  -3.258  0.00  0.00     0.025 A 
ATOM      9  C   UNL d   1      13.068  12.545  -3.868  0.00  0.00     0.013 A 
ATOM     10  C   UNL d   1      12.805  11.787  -3.712  0.00  0.00     0.001 C 
ATOM     11  C   UNL d   1      13.060  12.834  -4.639  0.00  0.00     0.058 A 
ATOM     12  C   UNL d   1      13.326  13.598  -4.797  0.00  0.00     0.013 A 
ATOM     13 CL   UNL d   1      12.787  12.358  -5.249  0.00  0.00    -0.082 Cl
ATOM     14  C   UNL d   1      13.600  14.078  -4.183  0.00  0.00     0.026 A 
ENDBRANCH   6   7
ENDBRANCH   5   6
ENDBRANCH   1   5
BRANCH   2  15
ATOM     15  C   UNL d   1      14.719  13.339  -0.675  0.00  0.00     0.067 A 
ATOM     16  C   UNL d   1      15.261  12.736  -0.868  0.00  0.00     0.018 A 
ATOM     17  C   UNL d   1      15.082  11.962  -0.668  0.00  0.00     0.002 A 
ATOM     18  C   UNL d   1      14.369  11.779  -0.277  0.00  0.00     0.000 A 
ATOM     19  C   UNL d   1      13.827  12.372  -0.083  0.00  0.00     0.002 A 
ATOM     20  C   UNL d   1      14.010  13.163  -0.287  0.00  0.00     0.018 A 
ENDBRANCH   2  15
TORSDOF 4
ENDMDL
