MODEL 1
REMARK VINA RESULT:      -1.3      0.000      0.000
REMARK  3 active torsions:
REMARK  status: ('A' for Active; 'I' for Inactive)
REMARK    1  A    between atoms: C_2  and  C_1 
REMARK    2  A    between atoms: C_13  and  N_4 
REMARK    3  A    between atoms: C_12  and  C_15 
ROOT
ATOM      1  C   UNL d   1     -41.917-122.797 -51.654  0.00  0.00     0.106 A 
ATOM      2  C   UNL d   1     -41.489-123.320 -52.810  0.00  0.00     0.206 A 
ATOM      3  N   UNL d   1     -41.919-122.638 -52.986  0.00  0.00    -0.281 N 
ATOM      4  N   UNL d   1     -41.483-123.425 -51.987  0.00  0.00    -0.217 NA
ATOM      5  C   UNL d   1     -42.183-122.315 -52.274  0.00  0.00     0.102 A 
ATOM      6  S   UNL d   1     -41.124-123.816 -53.357  0.00  0.00    -0.038 SA
ENDROOT
BRANCH   1   7
ATOM      7  C   UNL d   1     -42.055-122.678 -50.855  0.00  0.00     0.083 A 
ATOM      8  C   UNL d   1     -41.749-122.005 -50.478  0.00  0.00     0.302 A 
ATOM      9  O   UNL d   1     -41.891-121.887 -49.666  0.00  0.00    -0.273 OA
ATOM     10  O   UNL d   1     -41.305-121.454 -50.902  0.00  0.00    -0.259 OA
ATOM     11  C   UNL d   1     -42.334-122.434 -49.235  0.00  0.00     0.103 A 
ATOM     12  C   UNL d   1     -42.641-123.107 -49.612  0.00  0.00     0.023 A 
ATOM     13  C   UNL d   1     -42.471-122.312 -48.434  0.00  0.00     0.025 A 
ATOM     14  C   UNL d   1     -42.502-123.232 -50.427  0.00  0.00     0.009 A 
ATOM     15  C   UNL d   1     -43.082-123.653 -49.185  0.00  0.00     0.002 A 
ATOM     16  C   UNL d   1     -43.219-123.531 -48.383  0.00  0.00     0.000 A 
ATOM     17  C   UNL d   1     -42.912-122.859 -48.006  0.00  0.00     0.002 A 
ENDBRANCH   1   7
BRANCH   3  18
ATOM     18  C   UNL d   1     -42.056-122.339 -53.734  0.00  0.00     0.066 A 
ATOM     19  C   UNL d   1     -41.472-122.403 -54.323  0.00  0.00     0.018 A 
ATOM     20  C   UNL d   1     -41.607-122.103 -55.077  0.00  0.00     0.008 A 
ATOM     21  C   UNL d   1     -42.331-121.733 -55.252  0.00  0.00     0.065 A 
ATOM     22  C   UNL d   1     -42.907-121.670 -54.670  0.00  0.00     0.008 A 
ATOM     23  C   UNL d   1     -42.772-121.972 -53.912  0.00  0.00     0.018 A 
BRANCH  21  24
ATOM     24  C   UNL d   1     -42.469-121.432 -56.005  0.00  0.00     0.211 C 
ATOM     25  O   UNL d   1     -43.103-121.720 -56.453  0.00  0.00    -0.644 OA
ATOM     26  O   UNL d   1     -41.980-120.847 -56.315  0.00  0.00    -0.644 OA
ENDBRANCH  21  24
ENDBRANCH   3  18
TORSDOF 3
ENDMDL
