MODEL 1
REMARK VINA RESULT:      -2.7      0.000      0.000
REMARK  7 active torsions:
REMARK  status: ('A' for Active; 'I' for Inactive)
REMARK    1  A    between atoms: C_5  and  N_1 
REMARK    2  A    between atoms: C_2  and  N_6 
REMARK    3  A    between atoms: N_16  and  C_2 
REMARK    4  A    between atoms: C_3  and  C_9 
REMARK       I    between atoms: N_4  and  C_3 
REMARK    5  A    between atoms: N_6  and  N_4 
REMARK    6  A    between atoms: C_19  and  N_16 
REMARK    7  A    between atoms: C_17  and  C_19 
ROOT
ATOM      1  C   UNL d   1      32.884  19.088 -23.281  0.00  0.00     0.297 C 
ATOM      2  N   UNL d   1      32.816  19.409 -22.524  0.00  0.00    -0.103 NA
ATOM      3  O   UNL d   1      33.240  19.524 -23.886  0.00  0.00    -0.264 OA
ENDROOT
BRANCH   1   4
ATOM      4  C   UNL d   1      32.584  18.312 -23.426  0.00  0.00     0.059 A 
ATOM      5  C   UNL d   1      33.002  17.645 -23.181  0.00  0.00     0.006 A 
ATOM      6  C   UNL d   1      32.698  16.895 -23.329  0.00  0.00     0.024 A 
ATOM      7  C   UNL d   1      31.980  16.806 -23.719  0.00  0.00     0.127 A 
ATOM      8  C   UNL d   1      31.562  17.473 -23.964  0.00  0.00     0.024 A 
ATOM      9  C   UNL d   1      31.861  18.230 -23.819  0.00  0.00     0.006 A 
BRANCH   7  10
ATOM     10  N   UNL d   1      31.692  16.044 -23.858  0.00  0.00    -0.114 N 
ATOM     11  O   UNL d   1      31.849  15.679 -24.587  0.00  0.00    -0.532 OA
ATOM     12  O   UNL d   1      31.253  15.643 -23.289  0.00  0.00    -0.532 OA
ENDBRANCH   7  10
ENDBRANCH   1   4
BRANCH   2  13
ATOM     13  N   UNL d   1      33.106  20.167 -22.372  0.00  0.00    -0.114 NA
BRANCH  13  14
ATOM     14  C   UNL d   1      32.928  20.535 -21.659  0.00  0.00     0.241 C 
ATOM     15  S   UNL d   1      33.225  20.224 -20.934  0.00  0.00    -0.035 SA
BRANCH  14  16
ATOM     16  N   UNL d   1      32.456  21.212 -21.657  0.00  0.00    -0.215 NA
BRANCH  16  17
ATOM     17  C   UNL d   1      32.631  21.824 -21.142  0.00  0.00     0.102 C 
BRANCH  17  18
ATOM     18  C   UNL d   1      32.395  22.592 -21.329  0.00  0.00     0.021 C 
ATOM     19  C   UNL d   1      31.945  23.025 -20.789  0.00  0.00     0.002 C 
ENDBRANCH  17  18
ENDBRANCH  16  17
ENDBRANCH  14  16
ENDBRANCH  13  14
ENDBRANCH   2  13
TORSDOF 7
ENDMDL
MODEL 2
REMARK VINA RESULT:      -2.6      2.117      5.228
REMARK  7 active torsions:
REMARK  status: ('A' for Active; 'I' for Inactive)
REMARK    1  A    between atoms: C_5  and  N_1 
REMARK    2  A    between atoms: C_2  and  N_6 
REMARK    3  A    between atoms: N_16  and  C_2 
REMARK    4  A    between atoms: C_3  and  C_9 
REMARK       I    between atoms: N_4  and  C_3 
REMARK    5  A    between atoms: N_6  and  N_4 
REMARK    6  A    between atoms: C_19  and  N_16 
REMARK    7  A    between atoms: C_17  and  C_19 
ROOT
ATOM      1  C   UNL d   1      32.994  20.051 -21.821  0.00  0.00     0.297 C 
ATOM      2  N   UNL d   1      32.911  19.783 -22.597  0.00  0.00    -0.103 NA
ATOM      3  O   UNL d   1      33.241  19.531 -21.227  0.00  0.00    -0.264 OA
ENDROOT
BRANCH   1   4
ATOM      4  C   UNL d   1      32.824  20.859 -21.645  0.00  0.00     0.059 A 
ATOM      5  C   UNL d   1      33.176  21.468 -22.075  0.00  0.00     0.006 A 
ATOM      6  C   UNL d   1      33.001  22.251 -21.893  0.00  0.00     0.024 A 
ATOM      7  C   UNL d   1      32.478  22.430 -21.284  0.00  0.00     0.127 A 
ATOM      8  C   UNL d   1      32.126  21.821 -20.854  0.00  0.00     0.024 A 
ATOM      9  C   UNL d   1      32.297  21.032 -21.032  0.00  0.00     0.006 A 
BRANCH   7  10
ATOM     10  N   UNL d   1      32.315  23.223 -21.117  0.00  0.00    -0.114 N 
ATOM     11  O   UNL d   1      32.639  23.566 -20.434  0.00  0.00    -0.532 OA
ATOM     12  O   UNL d   1      31.840  23.676 -21.613  0.00  0.00    -0.532 OA
ENDBRANCH   7  10
ENDBRANCH   1   4
BRANCH   2  13
ATOM     13  N   UNL d   1      33.074  18.995 -22.779  0.00  0.00    -0.114 NA
BRANCH  13  14
ATOM     14  C   UNL d   1      32.865  18.696 -23.515  0.00  0.00     0.241 C 
ATOM     15  S   UNL d   1      33.141  19.069 -24.219  0.00  0.00    -0.035 SA
BRANCH  14  16
ATOM     16  N   UNL d   1      32.383  18.028 -23.563  0.00  0.00    -0.215 NA
BRANCH  16  17
ATOM     17  C   UNL d   1      32.720  17.297 -23.709  0.00  0.00     0.102 C 
BRANCH  17  18
ATOM     18  C   UNL d   1      32.273  16.612 -23.594  0.00  0.00     0.021 C 
ATOM     19  C   UNL d   1      32.286  16.014 -24.163  0.00  0.00     0.002 C 
ENDBRANCH  17  18
ENDBRANCH  16  17
ENDBRANCH  14  16
ENDBRANCH  13  14
ENDBRANCH   2  13
TORSDOF 7
ENDMDL
MODEL 3
REMARK VINA RESULT:      -2.4      1.916      2.893
REMARK  7 active torsions:
REMARK  status: ('A' for Active; 'I' for Inactive)
REMARK    1  A    between atoms: C_5  and  N_1 
REMARK    2  A    between atoms: C_2  and  N_6 
REMARK    3  A    between atoms: N_16  and  C_2 
REMARK    4  A    between atoms: C_3  and  C_9 
REMARK       I    between atoms: N_4  and  C_3 
REMARK    5  A    between atoms: N_6  and  N_4 
REMARK    6  A    between atoms: C_19  and  N_16 
REMARK    7  A    between atoms: C_17  and  C_19 
ROOT
ATOM      1  C   UNL d   1      31.911  16.655 -23.778  0.00  0.00     0.297 C 
ATOM      2  N   UNL d   1      32.101  17.418 -23.529  0.00  0.00    -0.103 NA
ATOM      3  O   UNL d   1      32.512  16.123 -23.979  0.00  0.00    -0.264 OA
ENDROOT
BRANCH   1   4
ATOM      4  C   UNL d   1      31.099  16.428 -23.823  0.00  0.00     0.059 A 
ATOM      5  C   UNL d   1      30.614  16.711 -24.426  0.00  0.00     0.006 A 
ATOM      6  C   UNL d   1      29.825  16.482 -24.458  0.00  0.00     0.024 A 
ATOM      7  C   UNL d   1      29.516  15.972 -23.890  0.00  0.00     0.127 A 
ATOM      8  C   UNL d   1      30.001  15.690 -23.287  0.00  0.00     0.024 A 
ATOM      9  C   UNL d   1      30.795  15.916 -23.249  0.00  0.00     0.006 A 
BRANCH   7  10
ATOM     10  N   UNL d   1      28.721  15.754 -23.940  0.00  0.00    -0.114 N 
ATOM     11  O   UNL d   1      28.236  15.840 -23.271  0.00  0.00    -0.532 OA
ATOM     12  O   UNL d   1      28.402  15.455 -24.637  0.00  0.00    -0.532 OA
ENDBRANCH   7  10
ENDBRANCH   1   4
BRANCH   2  13
ATOM     13  N   UNL d   1      32.892  17.649 -23.481  0.00  0.00    -0.114 NA
BRANCH  13  14
ATOM     14  C   UNL d   1      33.077  18.432 -23.314  0.00  0.00     0.241 C 
ATOM     15  S   UNL d   1      33.193  18.984 -23.941  0.00  0.00    -0.035 SA
BRANCH  14  16
ATOM     16  N   UNL d   1      33.151  18.676 -22.529  0.00  0.00    -0.215 NA
BRANCH  16  17
ATOM     17  C   UNL d   1      33.064  19.468 -22.343  0.00  0.00     0.102 C 
BRANCH  17  18
ATOM     18  C   UNL d   1      33.236  19.728 -21.579  0.00  0.00     0.021 C 
ATOM     19  C   UNL d   1      33.040  20.497 -21.353  0.00  0.00     0.002 C 
ENDBRANCH  17  18
ENDBRANCH  16  17
ENDBRANCH  14  16
ENDBRANCH  13  14
ENDBRANCH   2  13
TORSDOF 7
ENDMDL
MODEL 4
REMARK VINA RESULT:      -1.4      2.199      4.811
REMARK  7 active torsions:
REMARK  status: ('A' for Active; 'I' for Inactive)
REMARK    1  A    between atoms: C_5  and  N_1 
REMARK    2  A    between atoms: C_2  and  N_6 
REMARK    3  A    between atoms: N_16  and  C_2 
REMARK    4  A    between atoms: C_3  and  C_9 
REMARK       I    between atoms: N_4  and  C_3 
REMARK    5  A    between atoms: N_6  and  N_4 
REMARK    6  A    between atoms: C_19  and  N_16 
REMARK    7  A    between atoms: C_17  and  C_19 
ROOT
ATOM      1  C   UNL d   1      32.641  17.707 -23.304  0.00  0.00     0.297 C 
ATOM      2  N   UNL d   1      31.909  17.489 -23.618  0.00  0.00    -0.103 NA
ATOM      3  O   UNL d   1      33.228  17.137 -23.186  0.00  0.00    -0.264 OA
ENDROOT
BRANCH   1   4
ATOM      4  C   UNL d   1      32.778  18.517 -23.108  0.00  0.00     0.059 A 
ATOM      5  C   UNL d   1      33.046  18.731 -22.359  0.00  0.00     0.006 A 
ATOM      6  C   UNL d   1      33.175  19.524 -22.181  0.00  0.00     0.024 A 
ATOM      7  C   UNL d   1      33.037  20.105 -22.747  0.00  0.00     0.127 A 
ATOM      8  C   UNL d   1      32.769  19.891 -23.497  0.00  0.00     0.024 A 
ATOM      9  C   UNL d   1      32.637  19.096 -23.681  0.00  0.00     0.006 A 
BRANCH   7  10
ATOM     10  N   UNL d   1      33.173  20.895 -22.549  0.00  0.00    -0.114 N 
ATOM     11  O   UNL d   1      33.241  21.458 -23.156  0.00  0.00    -0.532 OA
ATOM     12  O   UNL d   1      33.241  21.134 -21.764  0.00  0.00    -0.532 OA
ENDBRANCH   7  10
ENDBRANCH   1   4
BRANCH   2  13
ATOM     13  N   UNL d   1      31.766  16.700 -23.814  0.00  0.00    -0.114 NA
BRANCH  13  14
ATOM     14  C   UNL d   1      31.126  16.510 -24.292  0.00  0.00     0.241 C 
ATOM     15  S   UNL d   1      31.248  16.280 -25.094  0.00  0.00    -0.035 SA
BRANCH  14  16
ATOM     16  N   UNL d   1      30.361  16.544 -23.984  0.00  0.00    -0.215 NA
BRANCH  16  17
ATOM     17  C   UNL d   1      29.917  15.859 -23.929  0.00  0.00     0.102 C 
BRANCH  17  18
ATOM     18  C   UNL d   1      29.385  15.769 -23.304  0.00  0.00     0.021 C 
ATOM     19  C   UNL d   1      28.574  15.745 -23.457  0.00  0.00     0.002 C 
ENDBRANCH  17  18
ENDBRANCH  16  17
ENDBRANCH  14  16
ENDBRANCH  13  14
ENDBRANCH   2  13
TORSDOF 7
ENDMDL
