MODEL 1
REMARK VINA RESULT:      22.5      0.000      0.000
REMARK  4 active torsions:
REMARK  status: ('A' for Active; 'I' for Inactive)
REMARK    1  A    between atoms: C_2  and  S_1 
REMARK    2  A    between atoms: C_5  and  S_1 
REMARK    3  A    between atoms: C_7  and  C_5 
REMARK       I    between atoms: N_9  and  C_7 
REMARK    4  A    between atoms: C_8  and  N_9 
ROOT
ATOM      1  S   UNL d   1      46.229 -18.092  44.328  0.00  0.00     0.217 S 
ATOM      2  O   UNL d   1      46.417 -17.576  43.705  0.00  0.00    -0.217 OA
ATOM      3  O   UNL d   1      46.041 -18.610  44.953  0.00  0.00    -0.217 OA
ENDROOT
BRANCH   1   4
ATOM      4  C   UNL d   1      46.306 -18.739  43.819  0.00  0.00     0.109 A 
ATOM      5  C   UNL d   1      46.289 -19.534  44.039  0.00  0.00     0.110 A 
ATOM      6  N   UNL d   1      46.385 -19.989  43.363  0.00  0.00    -0.243 NA
ATOM      7  C   UNL d   1      46.462 -19.474  42.720  0.00  0.00     0.082 A 
ATOM      8  C   UNL d   1      46.413 -18.706  43.008  0.00  0.00     0.030 A 
ATOM      9  C   UNL d   1      46.571 -19.611  41.913  0.00  0.00     0.019 A 
ATOM     10  C   UNL d   1      46.472 -18.065  42.490  0.00  0.00     0.002 A 
ATOM     11  C   UNL d   1      46.580 -18.201  41.684  0.00  0.00     0.000 A 
ATOM     12  C   UNL d   1      46.629 -18.969  41.400  0.00  0.00     0.002 A 
ENDBRANCH   1   4
BRANCH   1  13
ATOM     13  C   UNL d   1      46.150 -17.440  44.849  0.00  0.00     0.161 C 
BRANCH  13  14
ATOM     14  C   UNL d   1      46.038 -16.682  44.535  0.00  0.00     0.291 C 
ATOM     15  N   UNL d   1      45.579 -16.138  44.954  0.00  0.00    -0.207 NA
ATOM     16  O   UNL d   1      46.375 -16.470  43.820  0.00  0.00    -0.264 OA
BRANCH  15  17
ATOM     17  C   UNL d   1      45.464 -15.380  44.644  0.00  0.00     0.085 A 
ATOM     18  C   UNL d   1      44.704 -15.121  44.461  0.00  0.00     0.018 A 
ATOM     19  C   UNL d   1      44.580 -14.366  44.151  0.00  0.00     0.002 A 
ATOM     20  C   UNL d   1      44.054 -15.628  44.590  0.00  0.00     0.002 C 
ATOM     21  C   UNL d   1      45.221 -13.866  44.024  0.00  0.00     0.000 A 
ATOM     22  C   UNL d   1      45.985 -14.119  44.205  0.00  0.00     0.002 A 
ATOM     23  C   UNL d   1      46.105 -14.876  44.515  0.00  0.00     0.019 A 
ATOM     24  C   UNL d   1      46.645 -13.615  44.078  0.00  0.00     0.000 C 
ENDBRANCH  15  17
ENDBRANCH  13  14
ENDBRANCH   1  13
TORSDOF 4
ENDMDL
