MODEL 1
REMARK VINA RESULT:      84.3      0.000      0.000
REMARK  4 active torsions:
REMARK  status: ('A' for Active; 'I' for Inactive)
REMARK    1  A    between atoms: C_12  and  N_3 
REMARK    2  A    between atoms: C_13  and  N_10 
REMARK    3  A    between atoms: C_21  and  C_12 
REMARK    4  A    between atoms: C_16  and  C_13 
ROOT
ATOM      1  C   UNL d   1     -56.645-102.755 -39.532  0.00  0.00     0.191 A 
ATOM      2  C   UNL d   1     -55.833-102.796 -39.401  0.00  0.00     0.173 A 
ATOM      3  N   UNL d   1     -56.056-102.837 -37.993  0.00  0.00    -0.224 N 
ATOM      4  N   UNL d   1     -56.770-102.719 -40.348  0.00  0.00    -0.042 NA
ATOM      5  C   UNL d   1     -56.026-102.739 -40.718  0.00  0.00     0.722 A 
ATOM      6  N   UNL d   1     -55.450-102.786 -40.132  0.00  0.00    -0.131 N 
ATOM      7  N   UNL d   1     -57.166-102.755 -38.887  0.00  0.00    -0.240 N 
ATOM      8  C   UNL d   1     -56.873-102.796 -38.121  0.00  0.00     0.343 A 
ATOM      9  C   UNL d   1     -55.532-102.837 -38.630  0.00  0.00     0.288 A 
ATOM     10  N   UNL d   1     -55.649-102.729 -41.446  0.00  0.00    -0.135 N 
ATOM     11  C   UNL d   1     -54.719-102.805 -40.500  0.00  0.00     0.118 A 
ATOM     12  O   UNL d   1     -57.394-102.797 -37.475  0.00  0.00    -0.245 OA
ATOM     13  O   UNL d   1     -54.714-102.878 -38.502  0.00  0.00    -0.265 OA
ATOM     14  C   UNL d   1     -54.832-102.770 -41.313  0.00  0.00     0.118 A 
ATOM     15  C   UNL d   1     -57.983-102.714 -39.015  0.00  0.00     0.105 C 
ENDROOT
BRANCH   3  16
ATOM     16  C   UNL d   1     -55.759-102.878 -37.223  0.00  0.00     0.087 C 
BRANCH  16  17
ATOM     17  C   UNL d   1     -55.569-102.178 -36.805  0.00  0.00     0.018 A 
ATOM     18  C   UNL d   1     -55.238-101.546 -37.192  0.00  0.00     0.002 A 
ATOM     19  C   UNL d   1     -55.053-100.861 -36.783  0.00  0.00     0.000 A 
ATOM     20  C   UNL d   1     -54.718-100.218 -37.170  0.00  0.00     0.000 C 
ATOM     21  C   UNL d   1     -55.205-100.816 -35.970  0.00  0.00     0.000 A 
ATOM     22  C   UNL d   1     -55.541-101.451 -35.567  0.00  0.00     0.000 A 
ATOM     23  C   UNL d   1     -55.723-102.132 -35.985  0.00  0.00     0.002 A 
ENDBRANCH  16  17
ENDBRANCH   3  16
BRANCH  10  24
ATOM     24  C   UNL d   1     -56.014-102.686 -42.184  0.00  0.00     0.123 C 
BRANCH  24  25
ATOM     25  C   UNL d   1     -55.788-102.092 -42.721  0.00  0.00     0.118 A 
ATOM     26  O   UNL d   1     -56.288-101.629 -43.175  0.00  0.00    -0.304 OA
ATOM     27  C   UNL d   1     -55.836-101.121 -43.621  0.00  0.00     0.123 A 
ATOM     28  C   UNL d   1     -55.037-101.266 -43.444  0.00  0.00     0.029 A 
ATOM     29  C   UNL d   1     -55.011-101.872 -42.884  0.00  0.00     0.028 A 
ENDBRANCH  24  25
ENDBRANCH  10  24
TORSDOF 4
ENDMDL
