MODEL 1
REMARK VINA RESULT:      -4.9      0.000      0.000
REMARK  5 active torsions:
REMARK  status: ('A' for Active; 'I' for Inactive)
REMARK    1  A    between atoms: N_6  and  S_1 
REMARK    2  A    between atoms: C_16  and  S_1 
REMARK    3  A    between atoms: N_2  and  C_15 
REMARK       I    between atoms: C_9  and  N_8 
REMARK    4  A    between atoms: C_10  and  C_9 
REMARK    5  A    between atoms: C_15  and  C_10 
ROOT
ATOM      1  N   UNL d   1     -45.674  13.052  22.363  0.00  0.00    -0.226 N 
ATOM      2  N   UNL d   1     -44.106  12.832  21.915  0.00  0.00    -0.269 N 
ATOM      3  C   UNL d   1     -43.320  12.730  21.687  0.00  0.00     0.267 C 
ATOM      4  C   UNL d   1     -45.319  12.300  22.460  0.00  0.00     0.111 A 
ATOM      5  C   UNL d   1     -45.244  13.678  22.045  0.00  0.00     0.111 A 
ATOM      6  C   UNL d   1     -44.458  13.568  21.820  0.00  0.00     0.103 A 
ATOM      7  C   UNL d   1     -44.533  12.189  22.236  0.00  0.00     0.103 A 
ATOM      8  O   UNL d   1     -42.960  11.993  21.779  0.00  0.00    -0.267 OA
ENDROOT
BRANCH   3   9
ATOM      9  C   UNL d   1     -42.898  13.361  21.371  0.00  0.00     0.082 C 
BRANCH   9  10
ATOM     10  C   UNL d   1     -42.079  13.301  21.289  0.00  0.00     0.105 C 
BRANCH  10  11
ATOM     11  N   UNL d   1     -41.638  13.973  21.091  0.00  0.00    -0.228 N 
ATOM     12  N   UNL d   1     -41.913  14.643  20.697  0.00  0.00    -0.165 NA
ATOM     13  C   UNL d   1     -41.288  15.177  20.615  0.00  0.00     0.103 A 
ATOM     14  C   UNL d   1     -41.321  15.922  20.252  0.00  0.00     0.022 C 
ATOM     15  C   UNL d   1     -40.621  14.838  20.960  0.00  0.00     0.037 A 
ATOM     16  C   UNL d   1     -40.833  14.093  21.255  0.00  0.00     0.084 A 
ATOM     17  C   UNL d   1     -39.873  15.177  21.004  0.00  0.00     0.003 C 
ATOM     18  C   UNL d   1     -40.328  13.570  21.643  0.00  0.00     0.021 C 
ENDBRANCH  10  11
ENDBRANCH   9  10
ENDBRANCH   3   9
BRANCH   1  19
ATOM     19  S   UNL d   1     -46.464  13.162  22.588  0.00  0.00     0.271 S 
ATOM     20  O   UNL d   1     -46.215  13.377  23.354  0.00  0.00    -0.200 OA
ATOM     21  O   UNL d   1     -46.710  12.950  21.831  0.00  0.00    -0.200 OA
BRANCH  19  22
ATOM     22  C   UNL d   1     -47.258  13.274  22.815  0.00  0.00     0.104 A 
ATOM     23  C   UNL d   1     -47.599  14.026  22.736  0.00  0.00     0.013 A 
ATOM     24  C   UNL d   1     -48.393  14.137  22.963  0.00  0.00     0.001 A 
ATOM     25  C   UNL d   1     -48.830  13.494  23.264  0.00  0.00     0.000 A 
ATOM     26  C   UNL d   1     -48.472  12.748  23.337  0.00  0.00     0.001 A 
ATOM     27  C   UNL d   1     -47.686  12.642  23.111  0.00  0.00     0.013 A 
ENDBRANCH  19  22
ENDBRANCH   1  19
TORSDOF 5
ENDMDL
MODEL 2
REMARK VINA RESULT:      -4.7      3.168      6.141
REMARK  5 active torsions:
REMARK  status: ('A' for Active; 'I' for Inactive)
REMARK    1  A    between atoms: N_6  and  S_1 
REMARK    2  A    between atoms: C_16  and  S_1 
REMARK    3  A    between atoms: N_2  and  C_15 
REMARK       I    between atoms: C_9  and  N_8 
REMARK    4  A    between atoms: C_10  and  C_9 
REMARK    5  A    between atoms: C_15  and  C_10 
ROOT
ATOM      1  N   UNL d   1     -45.608  12.229  22.990  0.00  0.00    -0.226 N 
ATOM      2  N   UNL d   1     -46.559  13.524  22.639  0.00  0.00    -0.269 N 
ATOM      3  C   UNL d   1     -47.043  14.171  22.469  0.00  0.00     0.267 C 
ATOM      4  C   UNL d   1     -45.377  12.758  22.383  0.00  0.00     0.111 A 
ATOM      5  C   UNL d   1     -46.305  12.353  23.410  0.00  0.00     0.111 A 
ATOM      6  C   UNL d   1     -46.783  13.003  23.234  0.00  0.00     0.103 A 
ATOM      7  C   UNL d   1     -45.854  13.407  22.207  0.00  0.00     0.103 A 
ATOM      8  O   UNL d   1     -46.824  14.698  21.873  0.00  0.00    -0.267 OA
ENDROOT
BRANCH   3   9
ATOM      9  C   UNL d   1     -47.738  14.288  22.893  0.00  0.00     0.082 C 
BRANCH   9  10
ATOM     10  C   UNL d   1     -48.262  14.879  22.655  0.00  0.00     0.105 C 
BRANCH  10  11
ATOM     11  N   UNL d   1     -49.078  14.749  22.716  0.00  0.00    -0.228 N 
ATOM     12  N   UNL d   1     -49.506  14.137  22.366  0.00  0.00    -0.165 NA
ATOM     13  C   UNL d   1     -50.301  14.219  22.571  0.00  0.00     0.103 A 
ATOM     14  C   UNL d   1     -50.924  13.723  22.339  0.00  0.00     0.022 C 
ATOM     15  C   UNL d   1     -50.369  14.886  23.051  0.00  0.00     0.037 A 
ATOM     16  C   UNL d   1     -49.615  15.216  23.142  0.00  0.00     0.084 A 
ATOM     17  C   UNL d   1     -51.064  15.175  23.382  0.00  0.00     0.003 C 
ATOM     18  C   UNL d   1     -49.437  15.892  23.582  0.00  0.00     0.021 C 
ENDBRANCH  10  11
ENDBRANCH   9  10
ENDBRANCH   3   9
BRANCH   1  19
ATOM     19  S   UNL d   1     -45.128  11.576  23.167  0.00  0.00     0.271 S 
ATOM     20  O   UNL d   1     -45.802  11.087  23.190  0.00  0.00    -0.200 OA
ATOM     21  O   UNL d   1     -44.461  12.060  23.145  0.00  0.00    -0.200 OA
BRANCH  19  22
ATOM     22  C   UNL d   1     -44.646  10.921  23.345  0.00  0.00     0.104 A 
ATOM     23  C   UNL d   1     -43.821  11.012  23.340  0.00  0.00     0.013 A 
ATOM     24  C   UNL d   1     -43.339  10.357  23.518  0.00  0.00     0.001 A 
ATOM     25  C   UNL d   1     -43.691   9.622  23.697  0.00  0.00     0.000 A 
ATOM     26  C   UNL d   1     -44.519   9.549  23.698  0.00  0.00     0.001 A 
ATOM     27  C   UNL d   1     -44.993  10.200  23.521  0.00  0.00     0.013 A 
ENDBRANCH  19  22
ENDBRANCH   1  19
TORSDOF 5
ENDMDL
MODEL 3
REMARK VINA RESULT:      -4.2      1.734      5.976
REMARK  5 active torsions:
REMARK  status: ('A' for Active; 'I' for Inactive)
REMARK    1  A    between atoms: N_6  and  S_1 
REMARK    2  A    between atoms: C_16  and  S_1 
REMARK    3  A    between atoms: N_2  and  C_15 
REMARK       I    between atoms: C_9  and  N_8 
REMARK    4  A    between atoms: C_10  and  C_9 
REMARK    5  A    between atoms: C_15  and  C_10 
ROOT
ATOM      1  N   UNL d   1     -41.668  14.049  20.819  0.00  0.00    -0.226 N 
ATOM      2  N   UNL d   1     -42.862  13.119  21.465  0.00  0.00    -0.269 N 
ATOM      3  C   UNL d   1     -43.466  12.659  21.787  0.00  0.00     0.267 C 
ATOM      4  C   UNL d   1     -41.494  13.269  21.067  0.00  0.00     0.111 A 
ATOM      5  C   UNL d   1     -42.430  14.352  20.896  0.00  0.00     0.111 A 
ATOM      6  C   UNL d   1     -43.029  13.885  21.220  0.00  0.00     0.103 A 
ATOM      7  C   UNL d   1     -42.092  12.802  21.391  0.00  0.00     0.103 A 
ATOM      8  O   UNL d   1     -43.305  11.889  22.035  0.00  0.00    -0.267 OA
ENDROOT
BRANCH   3   9
ATOM      9  C   UNL d   1     -44.224  12.969  21.861  0.00  0.00     0.082 C 
BRANCH   9  10
ATOM     10  C   UNL d   1     -44.796  12.545  22.278  0.00  0.00     0.105 C 
BRANCH  10  11
ATOM     11  N   UNL d   1     -45.493  12.925  22.515  0.00  0.00    -0.228 N 
ATOM     12  N   UNL d   1     -45.713  13.701  22.344  0.00  0.00    -0.165 NA
ATOM     13  C   UNL d   1     -46.449  13.849  22.688  0.00  0.00     0.103 A 
ATOM     14  C   UNL d   1     -46.875  14.560  22.654  0.00  0.00     0.022 C 
ATOM     15  C   UNL d   1     -46.689  13.162  23.075  0.00  0.00     0.037 A 
ATOM     16  C   UNL d   1     -46.100  12.588  22.970  0.00  0.00     0.084 A 
ATOM     17  C   UNL d   1     -47.389  13.061  23.493  0.00  0.00     0.003 C 
ATOM     18  C   UNL d   1     -46.122  11.819  23.269  0.00  0.00     0.021 C 
ENDBRANCH  10  11
ENDBRANCH   9  10
ENDBRANCH   3   9
BRANCH   1  19
ATOM     19  S   UNL d   1     -41.067  14.518  20.493  0.00  0.00     0.271 S 
ATOM     20  O   UNL d   1     -41.169  15.073  21.106  0.00  0.00    -0.200 OA
ATOM     21  O   UNL d   1     -40.967  13.968  19.888  0.00  0.00    -0.200 OA
BRANCH  19  22
ATOM     22  C   UNL d   1     -40.463  14.989  20.166  0.00  0.00     0.104 A 
ATOM     23  C   UNL d   1     -40.518  15.222  19.372  0.00  0.00     0.013 A 
ATOM     24  C   UNL d   1     -39.914  15.693  19.045  0.00  0.00     0.001 A 
ATOM     25  C   UNL d   1     -39.266  15.922  19.519  0.00  0.00     0.000 A 
ATOM     26  C   UNL d   1     -39.227  15.678  20.312  0.00  0.00     0.001 A 
ATOM     27  C   UNL d   1     -39.828  15.212  20.632  0.00  0.00     0.013 A 
ENDBRANCH  19  22
ENDBRANCH   1  19
TORSDOF 5
ENDMDL
MODEL 4
REMARK VINA RESULT:      -2.6      2.074      6.480
REMARK  5 active torsions:
REMARK  status: ('A' for Active; 'I' for Inactive)
REMARK    1  A    between atoms: N_6  and  S_1 
REMARK    2  A    between atoms: C_16  and  S_1 
REMARK    3  A    between atoms: N_2  and  C_15 
REMARK       I    between atoms: C_9  and  N_8 
REMARK    4  A    between atoms: C_10  and  C_9 
REMARK    5  A    between atoms: C_15  and  C_10 
ROOT
ATOM      1  N   UNL d   1     -45.488  13.446  22.376  0.00  0.00    -0.226 N 
ATOM      2  N   UNL d   1     -46.950  14.082  22.781  0.00  0.00    -0.269 N 
ATOM      3  C   UNL d   1     -47.686  14.393  22.986  0.00  0.00     0.267 C 
ATOM      4  C   UNL d   1     -45.599  14.276  22.345  0.00  0.00     0.111 A 
ATOM      5  C   UNL d   1     -46.104  12.950  22.607  0.00  0.00     0.111 A 
ATOM      6  C   UNL d   1     -46.837  13.269  22.810  0.00  0.00     0.103 A 
ATOM      7  C   UNL d   1     -46.333  14.595  22.549  0.00  0.00     0.103 A 
ATOM      8  O   UNL d   1     -47.807  15.209  22.959  0.00  0.00    -0.267 OA
ENDROOT
BRANCH   3   9
ATOM      9  C   UNL d   1     -48.296  13.891  23.215  0.00  0.00     0.082 C 
BRANCH   9  10
ATOM     10  C   UNL d   1     -49.071  14.065  22.991  0.00  0.00     0.105 C 
BRANCH  10  11
ATOM     11  N   UNL d   1     -49.629  13.455  22.944  0.00  0.00    -0.228 N 
ATOM     12  N   UNL d   1     -49.865  12.956  23.556  0.00  0.00    -0.165 NA
ATOM     13  C   UNL d   1     -50.431  12.430  23.265  0.00  0.00     0.103 A 
ATOM     14  C   UNL d   1     -50.816  11.833  23.694  0.00  0.00     0.022 C 
ATOM     15  C   UNL d   1     -50.547  12.601  22.467  0.00  0.00     0.037 A 
ATOM     16  C   UNL d   1     -50.053  13.235  22.265  0.00  0.00     0.084 A 
ATOM     17  C   UNL d   1     -51.063  12.213  21.958  0.00  0.00     0.003 C 
ATOM     18  C   UNL d   1     -49.998  13.580  21.518  0.00  0.00     0.021 C 
ENDBRANCH  10  11
ENDBRANCH   9  10
ENDBRANCH   3   9
BRANCH   1  19
ATOM     19  S   UNL d   1     -44.752  13.126  22.172  0.00  0.00     0.271 S 
ATOM     20  O   UNL d   1     -44.989  12.387  22.474  0.00  0.00    -0.200 OA
ATOM     21  O   UNL d   1     -44.517  13.856  21.872  0.00  0.00    -0.200 OA
BRANCH  19  22
ATOM     22  C   UNL d   1     -44.011  12.803  21.966  0.00  0.00     0.104 A 
ATOM     23  C   UNL d   1     -43.733  12.138  22.376  0.00  0.00     0.013 A 
ATOM     24  C   UNL d   1     -42.993  11.815  22.171  0.00  0.00     0.001 A 
ATOM     25  C   UNL d   1     -42.545  12.165  21.560  0.00  0.00     0.000 A 
ATOM     26  C   UNL d   1     -42.840  12.831  21.160  0.00  0.00     0.001 A 
ATOM     27  C   UNL d   1     -43.573  13.148  21.367  0.00  0.00     0.013 A 
ENDBRANCH  19  22
ENDBRANCH   1  19
TORSDOF 5
ENDMDL
MODEL 5
REMARK VINA RESULT:      -2.0      3.093      4.679
REMARK  5 active torsions:
REMARK  status: ('A' for Active; 'I' for Inactive)
REMARK    1  A    between atoms: N_6  and  S_1 
REMARK    2  A    between atoms: C_16  and  S_1 
REMARK    3  A    between atoms: N_2  and  C_15 
REMARK       I    between atoms: C_9  and  N_8 
REMARK    4  A    between atoms: C_10  and  C_9 
REMARK    5  A    between atoms: C_15  and  C_10 
ROOT
ATOM      1  N   UNL d   1     -41.881  13.752  20.669  0.00  0.00    -0.226 N 
ATOM      2  N   UNL d   1     -40.638  14.507  19.901  0.00  0.00    -0.269 N 
ATOM      3  C   UNL d   1     -40.015  14.881  19.509  0.00  0.00     0.267 C 
ATOM      4  C   UNL d   1     -41.503  14.401  21.038  0.00  0.00     0.111 A 
ATOM      5  C   UNL d   1     -41.635  13.491  19.927  0.00  0.00     0.111 A 
ATOM      6  C   UNL d   1     -41.011  13.870  19.542  0.00  0.00     0.103 A 
ATOM      7  C   UNL d   1     -40.879  14.780  20.653  0.00  0.00     0.103 A 
ATOM      8  O   UNL d   1     -39.635  15.522  19.864  0.00  0.00    -0.267 OA
ENDROOT
BRANCH   3   9
ATOM      9  C   UNL d   1     -39.775  14.614  18.769  0.00  0.00     0.082 C 
BRANCH   9  10
ATOM     10  C   UNL d   1     -39.288  15.091  18.305  0.00  0.00     0.105 C 
BRANCH  10  11
ATOM     11  N   UNL d   1     -38.940  14.776  17.622  0.00  0.00    -0.228 N 
ATOM     12  N   UNL d   1     -38.600  14.029  17.543  0.00  0.00    -0.165 NA
ATOM     13  C   UNL d   1     -38.321  13.947  16.771  0.00  0.00     0.103 A 
ATOM     14  C   UNL d   1     -37.940  13.281  16.453  0.00  0.00     0.022 C 
ATOM     15  C   UNL d   1     -38.487  14.645  16.366  0.00  0.00     0.037 A 
ATOM     16  C   UNL d   1     -38.870  15.161  16.890  0.00  0.00     0.084 A 
ATOM     17  C   UNL d   1     -38.305  14.806  15.581  0.00  0.00     0.003 C 
ATOM     18  C   UNL d   1     -39.132  15.922  16.707  0.00  0.00     0.021 C 
ENDBRANCH  10  11
ENDBRANCH   9  10
ENDBRANCH   3   9
BRANCH   1  19
ATOM     19  S   UNL d   1     -42.508  13.371  21.055  0.00  0.00     0.271 S 
ATOM     20  O   UNL d   1     -42.347  13.808  21.746  0.00  0.00    -0.200 OA
ATOM     21  O   UNL d   1     -42.667  12.939  20.372  0.00  0.00    -0.200 OA
BRANCH  19  22
ATOM     22  C   UNL d   1     -43.137  12.989  21.444  0.00  0.00     0.104 A 
ATOM     23  C   UNL d   1     -43.894  13.328  21.418  0.00  0.00     0.013 A 
ATOM     24  C   UNL d   1     -44.524  12.946  21.807  0.00  0.00     0.001 A 
ATOM     25  C   UNL d   1     -44.384  12.231  22.214  0.00  0.00     0.000 A 
ATOM     26  C   UNL d   1     -43.620  11.905  22.229  0.00  0.00     0.001 A 
ATOM     27  C   UNL d   1     -42.999  12.287  21.843  0.00  0.00     0.013 A 
ENDBRANCH  19  22
ENDBRANCH   1  19
TORSDOF 5
ENDMDL
