MODEL 1
REMARK VINA RESULT:       2.3      0.000      0.000
REMARK  3 active torsions:
REMARK  status: ('A' for Active; 'I' for Inactive)
REMARK    1  A    between atoms: C_4  and  C_1 
REMARK    2  A    between atoms: C_11  and  C_10 
REMARK    3  A    between atoms: O_20  and  C_11 
ROOT
ATOM      1  C   UNL d   1      31.836  17.902 -23.987  0.00  0.00     0.004 A 
ATOM      2  C   UNL d   1      31.681  16.638 -23.340  0.00  0.00     0.102 A 
ATOM      3  C   UNL d   1      32.148  17.291 -23.531  0.00  0.00     0.023 A 
ATOM      4  O   UNL d   1      30.902  16.596 -23.605  0.00  0.00    -0.307 OA
ATOM      5  C   UNL d   1      30.592  17.208 -24.061  0.00  0.00     0.102 A 
ATOM      6  C   UNL d   1      31.059  17.860 -24.252  0.00  0.00     0.023 A 
ATOM      7  C   UNL d   1      31.991  16.027 -22.885  0.00  0.00     0.046 A 
ATOM      8  C   UNL d   1      32.926  17.332 -23.266  0.00  0.00     0.004 A 
ATOM      9  C   UNL d   1      29.813  17.166 -24.326  0.00  0.00     0.046 A 
ATOM     10  C   UNL d   1      32.773  16.067 -22.617  0.00  0.00     0.105 A 
ATOM     11  C   UNL d   1      33.241  16.720 -22.808  0.00  0.00     0.021 A 
ATOM     12  C   UNL d   1      30.747  18.471 -24.708  0.00  0.00     0.004 A 
ATOM     13  N   UNL d   1      33.091  15.453 -22.157  0.00  0.00    -0.148 N 
ATOM     14  C   UNL d   1      29.496  17.780 -24.786  0.00  0.00     0.105 A 
ATOM     15  C   UNL d   1      29.963  18.433 -24.977  0.00  0.00     0.021 A 
ATOM     16  N   UNL d   1      28.714  17.740 -25.053  0.00  0.00    -0.148 N 
ENDROOT
BRANCH   1  17
ATOM     17  C   UNL d   1      32.304  18.554 -24.177  0.00  0.00     0.005 A 
ATOM     18  C   UNL d   1      32.380  19.177 -23.645  0.00  0.00     0.063 A 
ATOM     19  C   UNL d   1      32.850  19.833 -23.836  0.00  0.00     0.005 A 
ATOM     20  C   UNL d   1      33.241  19.864 -24.560  0.00  0.00     0.000 A 
ATOM     21  C   UNL d   1      33.165  19.239 -25.097  0.00  0.00     0.000 A 
ATOM     22  C   UNL d   1      32.696  18.583 -24.905  0.00  0.00     0.000 A 
BRANCH  18  23
ATOM     23  C   UNL d   1      32.171  19.500 -22.886  0.00  0.00     0.296 C 
ATOM     24  O   UNL d   1      32.852  20.018 -22.541  0.00  0.00    -0.259 OA
BRANCH  23  25
ATOM     25  O   UNL d   1      31.729  19.678 -22.189  0.00  0.00    -0.296 OA
ATOM     26  C   UNL d   1      31.991  20.183 -21.414  0.00  0.00     0.185 C 
ENDBRANCH  23  25
ENDBRANCH  18  23
ENDBRANCH   1  17
TORSDOF 3
ENDMDL
MODEL 2
REMARK VINA RESULT:       2.9      1.693      2.853
REMARK  3 active torsions:
REMARK  status: ('A' for Active; 'I' for Inactive)
REMARK    1  A    between atoms: C_4  and  C_1 
REMARK    2  A    between atoms: C_11  and  C_10 
REMARK    3  A    between atoms: O_20  and  C_11 
ROOT
ATOM      1  C   UNL d   1      31.779  17.454 -24.478  0.00  0.00     0.004 A 
ATOM      2  C   UNL d   1      31.616  18.861 -24.659  0.00  0.00     0.102 A 
ATOM      3  C   UNL d   1      32.103  18.195 -24.632  0.00  0.00     0.023 A 
ATOM      4  O   UNL d   1      30.806  18.785 -24.532  0.00  0.00    -0.307 OA
ATOM      5  C   UNL d   1      30.483  18.044 -24.378  0.00  0.00     0.102 A 
ATOM      6  C   UNL d   1      30.969  17.378 -24.351  0.00  0.00     0.023 A 
ATOM      7  C   UNL d   1      31.939  19.602 -24.813  0.00  0.00     0.046 A 
ATOM      8  C   UNL d   1      32.912  18.271 -24.760  0.00  0.00     0.004 A 
ATOM      9  C   UNL d   1      29.672  17.969 -24.251  0.00  0.00     0.046 A 
ATOM     10  C   UNL d   1      32.753  19.680 -24.941  0.00  0.00     0.105 A 
ATOM     11  C   UNL d   1      33.239  19.014 -24.914  0.00  0.00     0.021 A 
ATOM     12  C   UNL d   1      30.645  16.637 -24.197  0.00  0.00     0.004 A 
ATOM     13  N   UNL d   1      33.083  20.426 -25.097  0.00  0.00    -0.148 N 
ATOM     14  C   UNL d   1      29.343  17.223 -24.095  0.00  0.00     0.105 A 
ATOM     15  C   UNL d   1      29.830  16.557 -24.069  0.00  0.00     0.021 A 
ATOM     16  N   UNL d   1      28.529  17.145 -23.967  0.00  0.00    -0.148 N 
ENDROOT
BRANCH   1  17
ATOM     17  C   UNL d   1      32.265  16.788 -24.452  0.00  0.00     0.005 A 
ATOM     18  C   UNL d   1      32.722  16.637 -23.784  0.00  0.00     0.063 A 
ATOM     19  C   UNL d   1      33.211  15.968 -23.757  0.00  0.00     0.005 A 
ATOM     20  C   UNL d   1      33.241  15.453 -24.398  0.00  0.00     0.000 A 
ATOM     21  C   UNL d   1      32.782  15.602 -25.070  0.00  0.00     0.000 A 
ATOM     22  C   UNL d   1      32.293  16.271 -25.097  0.00  0.00     0.000 A 
BRANCH  18  23
ATOM     23  C   UNL d   1      32.955  16.886 -23.005  0.00  0.00     0.296 C 
ATOM     24  O   UNL d   1      32.989  16.174 -22.420  0.00  0.00    -0.259 OA
BRANCH  23  25
ATOM     25  O   UNL d   1      33.193  17.380 -22.363  0.00  0.00    -0.296 OA
ATOM     26  C   UNL d   1      33.236  17.180 -21.424  0.00  0.00     0.185 C 
ENDBRANCH  23  25
ENDBRANCH  18  23
ENDBRANCH   1  17
TORSDOF 3
ENDMDL
