MODEL 1
REMARK VINA RESULT:      -7.1      0.000      0.000
REMARK  3 active torsions:
REMARK  status: ('A' for Active; 'I' for Inactive)
REMARK       I    between atoms: C_6  and  N_9 
REMARK    1  A    between atoms: C_7  and  C_6 
REMARK    2  A    between atoms: N_9  and  C_17 
REMARK    3  A    between atoms: C_17  and  C_16 
ROOT
ATOM      1  N   UNL d   1     -45.409  11.901  23.024  0.00  0.00    -0.304 N 
ATOM      2  C   UNL d   1     -45.822  11.349  23.471  0.00  0.00     0.064 A 
ATOM      3  C   UNL d   1     -45.883  12.566  22.933  0.00  0.00     0.064 A 
ATOM      4  C   UNL d   1     -46.593  12.419  23.326  0.00  0.00     0.018 A 
ATOM      5  C   UNL d   1     -46.554  11.673  23.655  0.00  0.00     0.019 A 
ATOM      6  C   UNL d   1     -45.760  13.280  22.544  0.00  0.00     0.018 A 
ATOM      7  C   UNL d   1     -47.190  13.000  23.330  0.00  0.00     0.003 A 
ATOM      8  C   UNL d   1     -47.068  13.717  22.940  0.00  0.00     0.019 A 
ATOM      9  C   UNL d   1     -46.349  13.858  22.546  0.00  0.00     0.003 A 
ATOM     10  C   UNL d   1     -44.649  11.808  22.719  0.00  0.00     0.099 C 
ATOM     11  C   UNL d   1     -45.553  10.603  23.694  0.00  0.00     0.019 C 
ENDROOT
BRANCH   8  12
ATOM     12  C   UNL d   1     -47.656  14.292  22.943  0.00  0.00     0.102 C 
BRANCH  12  13
ATOM     13  N   UNL d   1     -48.414  14.112  22.699  0.00  0.00    -0.206 NA
ATOM     14  C   UNL d   1     -48.967  14.701  22.572  0.00  0.00     0.285 C 
ATOM     15  O   UNL d   1     -48.758  15.488  22.693  0.00  0.00    -0.265 OA
BRANCH  14  16
ATOM     16  C   UNL d   1     -49.734  14.519  22.326  0.00  0.00     0.087 A 
ATOM     17  S   UNL d   1     -50.436  14.749  22.693  0.00  0.00    -0.082 SA
ATOM     18  C   UNL d   1     -51.060  14.444  22.255  0.00  0.00     0.036 A 
ATOM     19  C   UNL d   1     -50.755  14.020  21.611  0.00  0.00     0.008 A 
ATOM     20  C   UNL d   1     -49.932  14.069  21.659  0.00  0.00     0.012 A 
ENDBRANCH  14  16
ENDBRANCH  12  13
ENDBRANCH   8  12
TORSDOF 3
ENDMDL
MODEL 2
REMARK VINA RESULT:      -6.7      1.719      4.674
REMARK  3 active torsions:
REMARK  status: ('A' for Active; 'I' for Inactive)
REMARK       I    between atoms: C_6  and  N_9 
REMARK    1  A    between atoms: C_7  and  C_6 
REMARK    2  A    between atoms: N_9  and  C_17 
REMARK    3  A    between atoms: C_17  and  C_16 
ROOT
ATOM      1  N   UNL d   1     -50.399  14.969  22.586  0.00  0.00    -0.304 N 
ATOM      2  C   UNL d   1     -50.364  15.432  23.264  0.00  0.00     0.064 A 
ATOM      3  C   UNL d   1     -49.665  14.615  22.478  0.00  0.00     0.064 A 
ATOM      4  C   UNL d   1     -49.177  14.863  23.094  0.00  0.00     0.018 A 
ATOM      5  C   UNL d   1     -49.607  15.364  23.575  0.00  0.00     0.019 A 
ATOM      6  C   UNL d   1     -49.382  14.102  21.900  0.00  0.00     0.018 A 
ATOM      7  C   UNL d   1     -48.390  14.591  23.133  0.00  0.00     0.003 A 
ATOM      8  C   UNL d   1     -48.105  14.077  22.554  0.00  0.00     0.019 A 
ATOM      9  C   UNL d   1     -48.603  13.831  21.935  0.00  0.00     0.003 A 
ATOM     10  C   UNL d   1     -51.054  14.874  22.096  0.00  0.00     0.099 C 
ATOM     11  C   UNL d   1     -50.977  15.885  23.577  0.00  0.00     0.019 C 
ENDROOT
BRANCH   8  12
ATOM     12  C   UNL d   1     -47.329  13.807  22.590  0.00  0.00     0.102 C 
BRANCH  12  13
ATOM     13  N   UNL d   1     -47.161  13.061  22.875  0.00  0.00    -0.206 NA
ATOM     14  C   UNL d   1     -46.395  12.775  22.881  0.00  0.00     0.285 C 
ATOM     15  O   UNL d   1     -45.782  13.245  22.595  0.00  0.00    -0.265 OA
BRANCH  14  16
ATOM     16  C   UNL d   1     -46.224  12.020  23.169  0.00  0.00     0.087 A 
ATOM     17  S   UNL d   1     -46.766  11.471  23.461  0.00  0.00    -0.082 SA
ATOM     18  C   UNL d   1     -46.349  10.800  23.684  0.00  0.00     0.036 A 
ATOM     19  C   UNL d   1     -45.543  10.922  23.534  0.00  0.00     0.008 A 
ATOM     20  C   UNL d   1     -45.470  11.680  23.214  0.00  0.00     0.012 A 
ENDBRANCH  14  16
ENDBRANCH  12  13
ENDBRANCH   8  12
TORSDOF 3
ENDMDL
MODEL 3
REMARK VINA RESULT:      -6.7      0.822      1.437
REMARK  3 active torsions:
REMARK  status: ('A' for Active; 'I' for Inactive)
REMARK       I    between atoms: C_6  and  N_9 
REMARK    1  A    between atoms: C_7  and  C_6 
REMARK    2  A    between atoms: N_9  and  C_17 
REMARK    3  A    between atoms: C_17  and  C_16 
ROOT
ATOM      1  N   UNL d   1     -45.245  12.324  22.706  0.00  0.00    -0.304 N 
ATOM      2  C   UNL d   1     -44.970  12.900  22.189  0.00  0.00     0.064 A 
ATOM      3  C   UNL d   1     -46.003  12.533  22.947  0.00  0.00     0.064 A 
ATOM      4  C   UNL d   1     -46.193  13.243  22.574  0.00  0.00     0.018 A 
ATOM      5  C   UNL d   1     -45.559  13.467  22.110  0.00  0.00     0.019 A 
ATOM      6  C   UNL d   1     -46.539  12.169  23.454  0.00  0.00     0.018 A 
ATOM      7  C   UNL d   1     -46.935  13.596  22.712  0.00  0.00     0.003 A 
ATOM      8  C   UNL d   1     -47.474  13.233  23.221  0.00  0.00     0.019 A 
ATOM      9  C   UNL d   1     -47.275  12.516  23.593  0.00  0.00     0.003 A 
ATOM     10  C   UNL d   1     -44.835  11.649  22.945  0.00  0.00     0.099 C 
ATOM     11  C   UNL d   1     -44.236  12.910  21.816  0.00  0.00     0.019 C 
ENDROOT
BRANCH   8  12
ATOM     12  C   UNL d   1     -48.207  13.579  23.359  0.00  0.00     0.102 C 
BRANCH  12  13
ATOM     13  N   UNL d   1     -48.803  13.525  22.804  0.00  0.00    -0.206 NA
ATOM     14  C   UNL d   1     -49.532  13.870  22.935  0.00  0.00     0.285 C 
ATOM     15  O   UNL d   1     -49.670  14.279  23.637  0.00  0.00    -0.265 OA
BRANCH  14  16
ATOM     16  C   UNL d   1     -50.136  13.816  22.374  0.00  0.00     0.087 A 
ATOM     17  S   UNL d   1     -50.496  14.444  21.977  0.00  0.00    -0.082 SA
ATOM     18  C   UNL d   1     -51.064  14.130  21.474  0.00  0.00     0.036 A 
ATOM     19  C   UNL d   1     -51.064  13.304  21.550  0.00  0.00     0.008 A 
ATOM     20  C   UNL d   1     -50.487  13.115  22.109  0.00  0.00     0.012 A 
ENDBRANCH  14  16
ENDBRANCH  12  13
ENDBRANCH   8  12
TORSDOF 3
ENDMDL
MODEL 4
REMARK VINA RESULT:      -6.5      8.233      8.882
REMARK  3 active torsions:
REMARK  status: ('A' for Active; 'I' for Inactive)
REMARK       I    between atoms: C_6  and  N_9 
REMARK    1  A    between atoms: C_7  and  C_6 
REMARK    2  A    between atoms: N_9  and  C_17 
REMARK    3  A    between atoms: C_17  and  C_16 
ROOT
ATOM      1  N   UNL d   1     -39.071  15.233  22.686  0.00  0.00    -0.304 N 
ATOM      2  C   UNL d   1     -38.731  14.507  22.867  0.00  0.00     0.064 A 
ATOM      3  C   UNL d   1     -39.480  15.157  21.977  0.00  0.00     0.064 A 
ATOM      4  C   UNL d   1     -39.390  14.378  21.722  0.00  0.00     0.018 A 
ATOM      5  C   UNL d   1     -38.931  13.981  22.269  0.00  0.00     0.019 A 
ATOM      6  C   UNL d   1     -39.919  15.694  21.535  0.00  0.00     0.018 A 
ATOM      7  C   UNL d   1     -39.747  14.133  21.010  0.00  0.00     0.003 A 
ATOM      8  C   UNL d   1     -40.188  14.670  20.566  0.00  0.00     0.019 A 
ATOM      9  C   UNL d   1     -40.275  15.455  20.830  0.00  0.00     0.003 A 
ATOM     10  C   UNL d   1     -39.014  15.922  23.135  0.00  0.00     0.099 C 
ATOM     11  C   UNL d   1     -38.273  14.335  23.529  0.00  0.00     0.019 C 
ENDROOT
BRANCH   8  12
ATOM     12  C   UNL d   1     -40.542  14.431  19.863  0.00  0.00     0.102 C 
BRANCH  12  13
ATOM     13  N   UNL d   1     -40.243  14.674  19.144  0.00  0.00    -0.206 NA
ATOM     14  C   UNL d   1     -40.543  14.382  18.442  0.00  0.00     0.285 C 
ATOM     15  O   UNL d   1     -41.158  13.833  18.459  0.00  0.00    -0.265 OA
BRANCH  14  16
ATOM     16  C   UNL d   1     -40.242  14.628  17.714  0.00  0.00     0.087 A 
ATOM     17  S   UNL d   1     -40.562  15.203  17.218  0.00  0.00    -0.082 SA
ATOM     18  C   UNL d   1     -40.078  15.264  16.557  0.00  0.00     0.036 A 
ATOM     19  C   UNL d   1     -39.451  14.727  16.633  0.00  0.00     0.008 A 
ATOM     20  C   UNL d   1     -39.557  14.334  17.352  0.00  0.00     0.012 A 
ENDBRANCH  14  16
ENDBRANCH  12  13
ENDBRANCH   8  12
TORSDOF 3
ENDMDL
MODEL 5
REMARK VINA RESULT:      -5.8      8.249      9.819
REMARK  3 active torsions:
REMARK  status: ('A' for Active; 'I' for Inactive)
REMARK       I    between atoms: C_6  and  N_9 
REMARK    1  A    between atoms: C_7  and  C_6 
REMARK    2  A    between atoms: N_9  and  C_17 
REMARK    3  A    between atoms: C_17  and  C_16 
ROOT
ATOM      1  N   UNL d   1     -38.761  14.674  16.341  0.00  0.00    -0.304 N 
ATOM      2  C   UNL d   1     -38.472  13.909  16.272  0.00  0.00     0.064 A 
ATOM      3  C   UNL d   1     -39.161  14.736  17.057  0.00  0.00     0.064 A 
ATOM      4  C   UNL d   1     -39.116  14.002  17.429  0.00  0.00     0.018 A 
ATOM      5  C   UNL d   1     -38.693  13.496  16.947  0.00  0.00     0.019 A 
ATOM      6  C   UNL d   1     -39.557  15.363  17.414  0.00  0.00     0.018 A 
ATOM      7  C   UNL d   1     -39.475  13.894  18.174  0.00  0.00     0.003 A 
ATOM      8  C   UNL d   1     -39.872  14.522  18.533  0.00  0.00     0.019 A 
ATOM      9  C   UNL d   1     -39.913  15.260  18.151  0.00  0.00     0.003 A 
ATOM     10  C   UNL d   1     -38.669  15.280  15.790  0.00  0.00     0.099 C 
ATOM     11  C   UNL d   1     -38.038  13.606  15.641  0.00  0.00     0.019 C 
ENDROOT
BRANCH   8  12
ATOM     12  C   UNL d   1     -40.227  14.417  19.268  0.00  0.00     0.102 C 
BRANCH  12  13
ATOM     13  N   UNL d   1     -39.792  14.496  19.953  0.00  0.00    -0.206 NA
ATOM     14  C   UNL d   1     -40.147  14.431  20.687  0.00  0.00     0.285 C 
ATOM     15  O   UNL d   1     -40.956  14.283  20.737  0.00  0.00    -0.265 OA
BRANCH  14  16
ATOM     16  C   UNL d   1     -39.707  14.510  21.382  0.00  0.00     0.087 A 
ATOM     17  S   UNL d   1     -39.535  15.214  21.777  0.00  0.00    -0.082 SA
ATOM     18  C   UNL d   1     -39.085  15.027  22.438  0.00  0.00     0.036 A 
ATOM     19  C   UNL d   1     -38.973  14.206  22.464  0.00  0.00     0.008 A 
ATOM     20  C   UNL d   1     -39.360  13.890  21.806  0.00  0.00     0.012 A 
ENDBRANCH  14  16
ENDBRANCH  12  13
ENDBRANCH   8  12
TORSDOF 3
ENDMDL
MODEL 6
REMARK VINA RESULT:      -5.8      2.343      4.876
REMARK  3 active torsions:
REMARK  status: ('A' for Active; 'I' for Inactive)
REMARK       I    between atoms: C_6  and  N_9 
REMARK    1  A    between atoms: C_7  and  C_6 
REMARK    2  A    between atoms: N_9  and  C_17 
REMARK    3  A    between atoms: C_17  and  C_16 
ROOT
ATOM      1  N   UNL d   1     -49.984  12.521  22.810  0.00  0.00    -0.304 N 
ATOM      2  C   UNL d   1     -50.045  12.932  22.102  0.00  0.00     0.064 A 
ATOM      3  C   UNL d   1     -49.187  12.457  23.003  0.00  0.00     0.064 A 
ATOM      4  C   UNL d   1     -48.758  12.831  22.409  0.00  0.00     0.018 A 
ATOM      5  C   UNL d   1     -49.284  13.123  21.856  0.00  0.00     0.019 A 
ATOM      6  C   UNL d   1     -48.803  12.107  23.641  0.00  0.00     0.018 A 
ATOM      7  C   UNL d   1     -47.926  12.856  22.453  0.00  0.00     0.003 A 
ATOM      8  C   UNL d   1     -47.539  12.506  23.092  0.00  0.00     0.019 A 
ATOM      9  C   UNL d   1     -47.980  12.129  23.689  0.00  0.00     0.003 A 
ATOM     10  C   UNL d   1     -50.611  12.223  23.254  0.00  0.00     0.099 C 
ATOM     11  C   UNL d   1     -50.742  13.122  21.706  0.00  0.00     0.019 C 
ENDROOT
BRANCH   8  12
ATOM     12  C   UNL d   1     -46.718  12.529  23.139  0.00  0.00     0.102 C 
BRANCH  12  13
ATOM     13  N   UNL d   1     -46.293  11.856  23.321  0.00  0.00    -0.206 NA
ATOM     14  C   UNL d   1     -45.494  11.804  23.156  0.00  0.00     0.285 C 
ATOM     15  O   UNL d   1     -45.110  12.440  22.800  0.00  0.00    -0.265 OA
BRANCH  14  16
ATOM     16  C   UNL d   1     -45.064  11.124  23.340  0.00  0.00     0.087 A 
ATOM     17  S   UNL d   1     -44.243  11.046  23.336  0.00  0.00    -0.082 SA
ATOM     18  C   UNL d   1     -44.063  10.275  23.555  0.00  0.00     0.036 A 
ATOM     19  C   UNL d   1     -44.769   9.864  23.698  0.00  0.00     0.008 A 
ATOM     20  C   UNL d   1     -45.387  10.395  23.563  0.00  0.00     0.012 A 
ENDBRANCH  14  16
ENDBRANCH  12  13
ENDBRANCH   8  12
TORSDOF 3
ENDMDL
MODEL 7
REMARK VINA RESULT:      -5.5      8.516      9.702
REMARK  3 active torsions:
REMARK  status: ('A' for Active; 'I' for Inactive)
REMARK       I    between atoms: C_6  and  N_9 
REMARK    1  A    between atoms: C_7  and  C_6 
REMARK    2  A    between atoms: N_9  and  C_17 
REMARK    3  A    between atoms: C_17  and  C_16 
ROOT
ATOM      1  N   UNL d   1     -40.040  15.903  17.228  0.00  0.00    -0.304 N 
ATOM      2  C   UNL d   1     -40.861  15.885  17.236  0.00  0.00     0.064 A 
ATOM      3  C   UNL d   1     -39.774  15.907  18.006  0.00  0.00     0.064 A 
ATOM      4  C   UNL d   1     -40.438  15.891  18.494  0.00  0.00     0.018 A 
ATOM      5  C   UNL d   1     -41.104  15.878  18.021  0.00  0.00     0.019 A 
ATOM      6  C   UNL d   1     -39.017  15.922  18.328  0.00  0.00     0.018 A 
ATOM      7  C   UNL d   1     -40.342  15.891  19.322  0.00  0.00     0.003 A 
ATOM      8  C   UNL d   1     -39.583  15.906  19.647  0.00  0.00     0.019 A 
ATOM      9  C   UNL d   1     -38.918  15.922  19.147  0.00  0.00     0.003 A 
ATOM     10  C   UNL d   1     -39.561  15.915  16.557  0.00  0.00     0.099 C 
ATOM     11  C   UNL d   1     -41.356  15.877  16.577  0.00  0.00     0.019 C 
ENDROOT
BRANCH   8  12
ATOM     12  C   UNL d   1     -39.485  15.906  20.463  0.00  0.00     0.102 C 
BRANCH  12  13
ATOM     13  N   UNL d   1     -39.241  15.232  20.852  0.00  0.00    -0.206 NA
ATOM     14  C   UNL d   1     -39.190  15.210  21.668  0.00  0.00     0.285 C 
ATOM     15  O   UNL d   1     -39.388  15.880  22.106  0.00  0.00    -0.265 OA
BRANCH  14  16
ATOM     16  C   UNL d   1     -38.943  14.528  22.062  0.00  0.00     0.087 A 
ATOM     17  S   UNL d   1     -38.192  14.384  22.372  0.00  0.00    -0.082 SA
ATOM     18  C   UNL d   1     -38.200  13.637  22.713  0.00  0.00     0.036 A 
ATOM     19  C   UNL d   1     -38.955  13.307  22.620  0.00  0.00     0.008 A 
ATOM     20  C   UNL d   1     -39.412  13.864  22.216  0.00  0.00     0.012 A 
ENDBRANCH  14  16
ENDBRANCH  12  13
ENDBRANCH   8  12
TORSDOF 3
ENDMDL
MODEL 8
REMARK VINA RESULT:      -4.5      8.602     10.416
REMARK  3 active torsions:
REMARK  status: ('A' for Active; 'I' for Inactive)
REMARK       I    between atoms: C_6  and  N_9 
REMARK    1  A    between atoms: C_7  and  C_6 
REMARK    2  A    between atoms: N_9  and  C_17 
REMARK    3  A    between atoms: C_17  and  C_16 
ROOT
ATOM      1  N   UNL d   1     -40.011  14.865  20.867  0.00  0.00    -0.304 N 
ATOM      2  C   UNL d   1     -40.786  14.852  20.596  0.00  0.00     0.064 A 
ATOM      3  C   UNL d   1     -39.517  15.025  20.229  0.00  0.00     0.064 A 
ATOM      4  C   UNL d   1     -39.994  15.111  19.563  0.00  0.00     0.018 A 
ATOM      5  C   UNL d   1     -40.772  15.005  19.789  0.00  0.00     0.019 A 
ATOM      6  C   UNL d   1     -38.700  15.103  20.172  0.00  0.00     0.018 A 
ATOM      7  C   UNL d   1     -39.646  15.278  18.824  0.00  0.00     0.003 A 
ATOM      8  C   UNL d   1     -38.827  15.357  18.765  0.00  0.00     0.019 A 
ATOM      9  C   UNL d   1     -38.351  15.269  19.443  0.00  0.00     0.003 A 
ATOM     10  C   UNL d   1     -39.765  14.740  21.644  0.00  0.00     0.099 C 
ATOM     11  C   UNL d   1     -41.459  14.712  21.050  0.00  0.00     0.019 C 
ENDROOT
BRANCH   8  12
ATOM     12  C   UNL d   1     -38.480  15.521  18.038  0.00  0.00     0.102 C 
BRANCH  12  13
ATOM     13  N   UNL d   1     -38.398  14.937  17.475  0.00  0.00    -0.206 NA
ATOM     14  C   UNL d   1     -38.152  15.114  16.715  0.00  0.00     0.285 C 
ATOM     15  O   UNL d   1     -37.983  15.895  16.514  0.00  0.00    -0.265 OA
BRANCH  14  16
ATOM     16  C   UNL d   1     -38.069  14.522  16.145  0.00  0.00     0.087 A 
ATOM     17  S   UNL d   1     -38.020  14.630  15.329  0.00  0.00    -0.082 SA
ATOM     18  C   UNL d   1     -37.941  13.889  14.982  0.00  0.00     0.036 A 
ATOM     19  C   UNL d   1     -37.940  13.313  15.578  0.00  0.00     0.008 A 
ATOM     20  C   UNL d   1     -38.019  13.710  16.297  0.00  0.00     0.012 A 
ENDBRANCH  14  16
ENDBRANCH  12  13
ENDBRANCH   8  12
TORSDOF 3
ENDMDL
