MODEL 1
REMARK VINA RESULT:      -3.3      0.000      0.000
REMARK  4 active torsions:
REMARK  status: ('A' for Active; 'I' for Inactive)
REMARK    1  A    between atoms: C_2  and  N_1 
REMARK    2  A    between atoms: N_7  and  C_3 
REMARK    3  A    between atoms: C_12  and  N_7 
REMARK    4  A    between atoms: C_14  and  C_12 
ROOT
ATOM      1  C   UNL d   1      32.671  22.206 -21.121  0.00  0.00     0.200 A 
ATOM      2  C   UNL d   1      32.780  22.859 -20.614  0.00  0.00     0.189 A 
ATOM      3  C   UNL d   1      32.741  22.314 -21.925  0.00  0.00     0.210 A 
ATOM      4  N   UNL d   1      32.956  23.602 -20.925  0.00  0.00    -0.203 NA
ATOM      5  N   UNL d   1      32.913  23.039 -22.246  0.00  0.00    -0.202 NA
ATOM      6  C   UNL d   1      33.022  23.692 -21.738  0.00  0.00     0.202 A 
ATOM      7  N   UNL d   1      32.632  21.661 -22.432  0.00  0.00    -0.125 N 
ENDROOT
BRANCH   2   8
ATOM      8  N   UNL d   1      32.714  22.773 -19.804  0.00  0.00    -0.224 NA
BRANCH   8   9
ATOM      9  C   UNL d   1      32.758  23.423 -19.312  0.00  0.00     0.101 C 
BRANCH   9  10
ATOM     10  C   UNL d   1      32.702  23.327 -18.491  0.00  0.00     0.019 A 
ATOM     11  C   UNL d   1      33.241  22.872 -18.097  0.00  0.00     0.004 A 
ATOM     12  C   UNL d   1      33.183  22.777 -17.272  0.00  0.00     0.030 A 
ATOM     13  C   UNL d   1      32.573  23.150 -16.861  0.00  0.00     0.140 A 
ATOM     14  C   UNL d   1      32.033  23.605 -17.254  0.00  0.00     0.030 A 
ATOM     15  F   UNL d   1      32.521  23.053 -16.046  0.00  0.00    -0.204 F 
ATOM     16  C   UNL d   1      32.088  23.701 -18.071  0.00  0.00     0.004 A 
ENDBRANCH   9  10
ENDBRANCH   8   9
ENDBRANCH   2   8
BRANCH   1  17
ATOM     17  N   UNL d   1      32.496  21.467 -20.818  0.00  0.00    -0.107 N 
ATOM     18  O   UNL d   1      33.103  20.992 -20.561  0.00  0.00    -0.531 OA
ATOM     19  O   UNL d   1      31.718  21.213 -20.776  0.00  0.00    -0.531 OA
ENDBRANCH   1  17
TORSDOF 4
ENDMDL
MODEL 2
REMARK VINA RESULT:      -2.5      4.886      6.365
REMARK  4 active torsions:
REMARK  status: ('A' for Active; 'I' for Inactive)
REMARK    1  A    between atoms: C_2  and  N_1 
REMARK    2  A    between atoms: N_7  and  C_3 
REMARK    3  A    between atoms: C_12  and  N_7 
REMARK    4  A    between atoms: C_14  and  C_12 
ROOT
ATOM      1  C   UNL d   1      31.813  16.818 -23.845  0.00  0.00     0.200 A 
ATOM      2  C   UNL d   1      32.482  17.150 -23.475  0.00  0.00     0.189 A 
ATOM      3  C   UNL d   1      31.775  16.010 -23.941  0.00  0.00     0.210 A 
ATOM      4  N   UNL d   1      33.095  16.666 -23.211  0.00  0.00    -0.203 NA
ATOM      5  N   UNL d   1      32.370  15.521 -23.687  0.00  0.00    -0.202 NA
ATOM      6  C   UNL d   1      33.039  15.854 -23.317  0.00  0.00     0.202 A 
ATOM      7  N   UNL d   1      31.106  15.677 -24.311  0.00  0.00    -0.125 N 
ENDROOT
BRANCH   2   8
ATOM      8  N   UNL d   1      32.540  17.958 -23.368  0.00  0.00    -0.224 NA
BRANCH   8   9
ATOM      9  C   UNL d   1      33.191  18.283 -22.996  0.00  0.00     0.101 C 
BRANCH   9  10
ATOM     10  C   UNL d   1      33.203  19.090 -22.809  0.00  0.00     0.019 A 
ATOM     11  C   UNL d   1      33.228  19.642 -23.398  0.00  0.00     0.004 A 
ATOM     12  C   UNL d   1      33.241  20.453 -23.209  0.00  0.00     0.030 A 
ATOM     13  C   UNL d   1      33.228  20.687 -22.418  0.00  0.00     0.140 A 
ATOM     14  C   UNL d   1      33.203  20.135 -21.829  0.00  0.00     0.030 A 
ATOM     15  F   UNL d   1      33.241  21.489 -22.237  0.00  0.00    -0.204 F 
ATOM     16  C   UNL d   1      33.191  19.331 -22.013  0.00  0.00     0.004 A 
ENDBRANCH   9  10
ENDBRANCH   8   9
ENDBRANCH   2   8
BRANCH   1  17
ATOM     17  N   UNL d   1      31.202  17.293 -24.108  0.00  0.00    -0.107 N 
ATOM     18  O   UNL d   1      30.594  17.473 -23.601  0.00  0.00    -0.531 OA
ATOM     19  O   UNL d   1      31.208  17.583 -24.875  0.00  0.00    -0.531 OA
ENDBRANCH   1  17
TORSDOF 4
ENDMDL
MODEL 3
REMARK VINA RESULT:      -2.5      7.639      8.560
REMARK  4 active torsions:
REMARK  status: ('A' for Active; 'I' for Inactive)
REMARK    1  A    between atoms: C_2  and  N_1 
REMARK    2  A    between atoms: N_7  and  C_3 
REMARK    3  A    between atoms: C_12  and  N_7 
REMARK    4  A    between atoms: C_14  and  C_12 
ROOT
ATOM      1  C   UNL d   1      32.069  17.116 -24.583  0.00  0.00     0.200 A 
ATOM      2  C   UNL d   1      31.672  16.383 -24.551  0.00  0.00     0.189 A 
ATOM      3  C   UNL d   1      32.844  17.135 -24.830  0.00  0.00     0.210 A 
ATOM      4  N   UNL d   1      32.062  15.689 -24.767  0.00  0.00    -0.203 NA
ATOM      5  N   UNL d   1      33.241  16.462 -25.045  0.00  0.00    -0.202 NA
ATOM      6  C   UNL d   1      32.844  15.729 -25.013  0.00  0.00     0.202 A 
ATOM      7  N   UNL d   1      33.241  17.868 -24.861  0.00  0.00    -0.125 N 
ENDROOT
BRANCH   2   8
ATOM      8  N   UNL d   1      30.893  16.342 -24.307  0.00  0.00    -0.224 NA
BRANCH   8   9
ATOM      9  C   UNL d   1      30.538  15.619 -24.172  0.00  0.00     0.101 C 
BRANCH   9  10
ATOM     10  C   UNL d   1      29.734  15.581 -23.975  0.00  0.00     0.019 A 
ATOM     11  C   UNL d   1      29.506  15.586 -23.200  0.00  0.00     0.004 A 
ATOM     12  C   UNL d   1      28.698  15.548 -23.003  0.00  0.00     0.030 A 
ATOM     13  C   UNL d   1      28.133  15.505 -23.604  0.00  0.00     0.140 A 
ATOM     14  C   UNL d   1      28.362  15.499 -24.379  0.00  0.00     0.030 A 
ATOM     15  F   UNL d   1      27.337  15.467 -23.403  0.00  0.00    -0.204 F 
ATOM     16  C   UNL d   1      29.161  15.537 -24.577  0.00  0.00     0.004 A 
ENDBRANCH   9  10
ENDBRANCH   8   9
ENDBRANCH   2   8
BRANCH   1  17
ATOM     17  N   UNL d   1      31.686  17.807 -24.370  0.00  0.00    -0.107 N 
ATOM     18  O   UNL d   1      31.260  18.211 -24.931  0.00  0.00    -0.531 OA
ATOM     19  O   UNL d   1      31.735  18.084 -23.600  0.00  0.00    -0.531 OA
ENDBRANCH   1  17
TORSDOF 4
ENDMDL
MODEL 4
REMARK VINA RESULT:      -2.2      6.576      7.825
REMARK  4 active torsions:
REMARK  status: ('A' for Active; 'I' for Inactive)
REMARK    1  A    between atoms: C_2  and  N_1 
REMARK    2  A    between atoms: N_7  and  C_3 
REMARK    3  A    between atoms: C_12  and  N_7 
REMARK    4  A    between atoms: C_14  and  C_12 
ROOT
ATOM      1  C   UNL d   1      29.140  16.804 -23.845  0.00  0.00     0.200 A 
ATOM      2  C   UNL d   1      29.960  16.732 -23.711  0.00  0.00     0.189 A 
ATOM      3  C   UNL d   1      28.637  16.251 -23.521  0.00  0.00     0.210 A 
ATOM      4  N   UNL d   1      30.254  16.110 -23.256  0.00  0.00    -0.203 NA
ATOM      5  N   UNL d   1      28.911  15.635 -23.072  0.00  0.00    -0.202 NA
ATOM      6  C   UNL d   1      29.731  15.563 -22.938  0.00  0.00     0.202 A 
ATOM      7  N   UNL d   1      27.817  16.323 -23.656  0.00  0.00    -0.125 N 
ENDROOT
BRANCH   2   8
ATOM      8  N   UNL d   1      30.482  17.275 -24.027  0.00  0.00    -0.224 NA
BRANCH   8   9
ATOM      9  C   UNL d   1      31.259  17.299 -23.776  0.00  0.00     0.101 C 
BRANCH   9  10
ATOM     10  C   UNL d   1      31.758  17.911 -24.027  0.00  0.00     0.019 A 
ATOM     11  C   UNL d   1      32.158  18.357 -23.484  0.00  0.00     0.004 A 
ATOM     12  C   UNL d   1      32.659  18.971 -23.737  0.00  0.00     0.030 A 
ATOM     13  C   UNL d   1      32.745  19.122 -24.544  0.00  0.00     0.140 A 
ATOM     14  C   UNL d   1      32.345  18.676 -25.087  0.00  0.00     0.030 A 
ATOM     15  F   UNL d   1      33.241  19.729 -24.788  0.00  0.00    -0.204 F 
ATOM     16  C   UNL d   1      31.848  18.066 -24.840  0.00  0.00     0.004 A 
ENDBRANCH   9  10
ENDBRANCH   8   9
ENDBRANCH   2   8
BRANCH   1  17
ATOM     17  N   UNL d   1      28.843  17.418 -24.295  0.00  0.00    -0.107 N 
ATOM     18  O   UNL d   1      28.717  17.302 -25.089  0.00  0.00    -0.531 OA
ATOM     19  O   UNL d   1      28.676  18.141 -23.946  0.00  0.00    -0.531 OA
ENDBRANCH   1  17
TORSDOF 4
ENDMDL
MODEL 5
REMARK VINA RESULT:      -1.3      2.861      4.606
REMARK  4 active torsions:
REMARK  status: ('A' for Active; 'I' for Inactive)
REMARK    1  A    between atoms: C_2  and  N_1 
REMARK    2  A    between atoms: N_7  and  C_3 
REMARK    3  A    between atoms: C_12  and  N_7 
REMARK    4  A    between atoms: C_14  and  C_12 
ROOT
ATOM      1  C   UNL d   1      32.418  22.373 -20.523  0.00  0.00     0.200 A 
ATOM      2  C   UNL d   1      32.824  21.648 -20.592  0.00  0.00     0.189 A 
ATOM      3  C   UNL d   1      32.432  22.767 -19.810  0.00  0.00     0.210 A 
ATOM      4  N   UNL d   1      33.233  21.337 -19.947  0.00  0.00    -0.203 NA
ATOM      5  N   UNL d   1      32.829  22.473 -19.167  0.00  0.00    -0.202 NA
ATOM      6  C   UNL d   1      33.235  21.748 -19.237  0.00  0.00     0.202 A 
ATOM      7  N   UNL d   1      32.025  23.492 -19.740  0.00  0.00    -0.125 N 
ENDROOT
BRANCH   2   8
ATOM      8  N   UNL d   1      32.824  21.237 -21.298  0.00  0.00    -0.224 NA
BRANCH   8   9
ATOM      9  C   UNL d   1      33.137  20.484 -21.341  0.00  0.00     0.101 C 
BRANCH   9  10
ATOM     10  C   UNL d   1      33.147  20.078 -22.063  0.00  0.00     0.019 A 
ATOM     11  C   UNL d   1      33.078  19.273 -22.078  0.00  0.00     0.004 A 
ATOM     12  C   UNL d   1      33.088  18.867 -22.804  0.00  0.00     0.030 A 
ATOM     13  C   UNL d   1      33.169  19.291 -23.507  0.00  0.00     0.140 A 
ATOM     14  C   UNL d   1      33.239  20.096 -23.493  0.00  0.00     0.030 A 
ATOM     15  F   UNL d   1      33.179  18.884 -24.221  0.00  0.00    -0.204 F 
ATOM     16  C   UNL d   1      33.229  20.501 -22.775  0.00  0.00     0.004 A 
ENDBRANCH   9  10
ENDBRANCH   8   9
ENDBRANCH   2   8
BRANCH   1  17
ATOM     17  N   UNL d   1      32.012  22.686 -21.159  0.00  0.00    -0.107 N 
ATOM     18  O   UNL d   1      31.245  22.453 -21.292  0.00  0.00    -0.531 OA
ATOM     19  O   UNL d   1      32.376  23.229 -21.654  0.00  0.00    -0.531 OA
ENDBRANCH   1  17
TORSDOF 4
ENDMDL
MODEL 6
REMARK VINA RESULT:      -0.7      5.548      7.072
REMARK  4 active torsions:
REMARK  status: ('A' for Active; 'I' for Inactive)
REMARK    1  A    between atoms: C_2  and  N_1 
REMARK    2  A    between atoms: N_7  and  C_3 
REMARK    3  A    between atoms: C_12  and  N_7 
REMARK    4  A    between atoms: C_14  and  C_12 
ROOT
ATOM      1  C   UNL d   1      32.685  18.993 -23.430  0.00  0.00     0.200 A 
ATOM      2  C   UNL d   1      32.488  18.404 -23.987  0.00  0.00     0.189 A 
ATOM      3  C   UNL d   1      33.035  19.681 -23.690  0.00  0.00     0.210 A 
ATOM      4  N   UNL d   1      32.646  18.519 -24.788  0.00  0.00    -0.203 NA
ATOM      5  N   UNL d   1      33.196  19.809 -24.475  0.00  0.00    -0.202 NA
ATOM      6  C   UNL d   1      32.999  19.220 -25.031  0.00  0.00     0.202 A 
ATOM      7  N   UNL d   1      33.232  20.270 -23.134  0.00  0.00    -0.125 N 
ENDROOT
BRANCH   2   8
ATOM      8  N   UNL d   1      32.137  17.707 -23.748  0.00  0.00    -0.224 NA
BRANCH   8   9
ATOM      9  C   UNL d   1      31.777  17.214 -24.291  0.00  0.00     0.101 C 
BRANCH   9  10
ATOM     10  C   UNL d   1      31.112  16.771 -24.074  0.00  0.00     0.019 A 
ATOM     11  C   UNL d   1      31.180  16.174 -23.535  0.00  0.00     0.004 A 
ATOM     12  C   UNL d   1      30.510  15.729 -23.318  0.00  0.00     0.030 A 
ATOM     13  C   UNL d   1      29.778  15.903 -23.657  0.00  0.00     0.140 A 
ATOM     14  C   UNL d   1      29.710  16.500 -24.197  0.00  0.00     0.030 A 
ATOM     15  F   UNL d   1      29.121  15.460 -23.439  0.00  0.00    -0.204 F 
ATOM     16  C   UNL d   1      30.371  16.942 -24.414  0.00  0.00     0.004 A 
ENDBRANCH   9  10
ENDBRANCH   8   9
ENDBRANCH   2   8
BRANCH   1  17
ATOM     17  N   UNL d   1      32.531  18.884 -22.635  0.00  0.00    -0.107 N 
ATOM     18  O   UNL d   1      33.073  18.488 -22.178  0.00  0.00    -0.531 OA
ATOM     19  O   UNL d   1      31.836  19.172 -22.307  0.00  0.00    -0.531 OA
ENDBRANCH   1  17
TORSDOF 4
ENDMDL
