MODEL 1
REMARK VINA RESULT:      -8.3      0.000      0.000
REMARK  6 active torsions:
REMARK  status: ('A' for Active; 'I' for Inactive)
REMARK    1  A    between atoms: C_10  and  C_4 
REMARK    2  A    between atoms: N_12  and  C_5 
REMARK    3  A    between atoms: N_11  and  C_15 
REMARK    4  A    between atoms: C_20  and  N_12 
REMARK    5  A    between atoms: C_15  and  C_16 
REMARK    6  A    between atoms: C_16  and  C_20 
ROOT
ATOM      1  N   UNL d   1      51.938  34.365  53.390  0.00  0.00    -0.195 N 
ATOM      2  C   UNL d   1      52.481  33.810  53.666  0.00  0.00     0.167 A 
ATOM      3  N   UNL d   1      52.204  35.113  53.599  0.00  0.00    -0.163 NA
ATOM      4  C   UNL d   1      53.084  34.212  54.047  0.00  0.00     0.055 A 
ATOM      5  C   UNL d   1      51.262  34.124  52.978  0.00  0.00     0.167 A 
ATOM      6  C   UNL d   1      52.919  35.014  54.009  0.00  0.00     0.104 A 
ATOM      7  N   UNL d   1      52.353  33.008  53.533  0.00  0.00    -0.227 NA
ATOM      8  C   UNL d   1      51.136  33.311  52.845  0.00  0.00     0.058 A 
ATOM      9  C   UNL d   1      51.679  32.755  53.121  0.00  0.00     0.086 A 
ATOM     10  C   UNL d   1      53.380  35.621  54.323  0.00  0.00     0.023 C 
ATOM     11  C   UNL d   1      51.552  31.948  52.988  0.00  0.00     0.021 C 
ENDROOT
BRANCH   5  12
ATOM     12  N   UNL d   1      50.725  34.674  52.705  0.00  0.00    -0.225 NA
BRANCH  12  13
ATOM     13  C   UNL d   1      49.921  34.495  52.691  0.00  0.00     0.102 C 
BRANCH  13  14
ATOM     14  C   UNL d   1      49.359  35.105  52.627  0.00  0.00     0.040 C 
BRANCH  14  15
ATOM     15  C   UNL d   1      48.581  34.930  52.423  0.00  0.00     0.082 C 
BRANCH  15  16
ATOM     16  N   UNL d   1      48.008  35.521  52.431  0.00  0.00    -0.299 N 
ATOM     17  C   UNL d   1      47.513  35.627  51.773  0.00  0.00     0.107 A 
ATOM     18  C   UNL d   1      46.937  36.221  51.782  0.00  0.00     0.142 A 
ATOM     19  O   UNL d   1      46.857  36.709  52.448  0.00  0.00    -0.300 OA
ATOM     20  C   UNL d   1      47.350  36.602  53.099  0.00  0.00     0.142 A 
ATOM     21  C   UNL d   1      47.926  36.007  53.090  0.00  0.00     0.107 A 
ENDBRANCH  15  16
ENDBRANCH  14  15
ENDBRANCH  13  14
ENDBRANCH  12  13
ENDBRANCH   5  12
BRANCH   4  22
ATOM     22  C   UNL d   1      53.767  33.955  54.427  0.00  0.00     0.004 A 
ATOM     23  C   UNL d   1      53.762  33.808  55.238  0.00  0.00     0.000 A 
ATOM     24  C   UNL d   1      54.453  33.549  55.617  0.00  0.00     0.000 A 
ATOM     25  C   UNL d   1      55.145  33.440  55.181  0.00  0.00     0.000 A 
ATOM     26  C   UNL d   1      55.150  33.587  54.370  0.00  0.00     0.000 A 
ATOM     27  C   UNL d   1      54.467  33.844  53.990  0.00  0.00     0.000 A 
ENDBRANCH   4  22
TORSDOF 6
ENDMDL
MODEL 2
REMARK VINA RESULT:      -6.9      2.187      3.511
REMARK  6 active torsions:
REMARK  status: ('A' for Active; 'I' for Inactive)
REMARK    1  A    between atoms: C_10  and  C_4 
REMARK    2  A    between atoms: N_12  and  C_5 
REMARK    3  A    between atoms: N_11  and  C_15 
REMARK    4  A    between atoms: C_20  and  N_12 
REMARK    5  A    between atoms: C_15  and  C_16 
REMARK    6  A    between atoms: C_16  and  C_20 
ROOT
ATOM      1  N   UNL d   1      52.923  31.911  53.274  0.00  0.00    -0.195 N 
ATOM      2  C   UNL d   1      53.310  31.443  53.830  0.00  0.00     0.167 A 
ATOM      3  N   UNL d   1      52.522  31.418  52.754  0.00  0.00    -0.163 NA
ATOM      4  C   UNL d   1      53.151  30.658  53.657  0.00  0.00     0.055 A 
ATOM      5  C   UNL d   1      52.980  32.736  53.305  0.00  0.00     0.167 A 
ATOM      6  C   UNL d   1      52.667  30.637  52.996  0.00  0.00     0.104 A 
ATOM      7  N   UNL d   1      53.758  31.794  54.424  0.00  0.00    -0.227 NA
ATOM      8  C   UNL d   1      53.435  33.088  53.909  0.00  0.00     0.058 A 
ATOM      9  C   UNL d   1      53.822  32.620  54.465  0.00  0.00     0.086 A 
ATOM     10  C   UNL d   1      52.372  29.959  52.630  0.00  0.00     0.023 C 
ATOM     11  C   UNL d   1      54.274  32.972  55.063  0.00  0.00     0.021 C 
ENDROOT
BRANCH   5  12
ATOM     12  N   UNL d   1      52.596  33.200  52.754  0.00  0.00    -0.225 NA
BRANCH  12  13
ATOM     13  C   UNL d   1      52.109  33.816  53.001  0.00  0.00     0.102 C 
BRANCH  13  14
ATOM     14  C   UNL d   1      51.456  34.042  52.538  0.00  0.00     0.040 C 
BRANCH  14  15
ATOM     15  C   UNL d   1      50.822  34.438  52.883  0.00  0.00     0.082 C 
BRANCH  15  16
ATOM     16  N   UNL d   1      50.128  34.559  52.456  0.00  0.00    -0.299 N 
ATOM     17  C   UNL d   1      49.486  34.946  52.812  0.00  0.00     0.107 A 
ATOM     18  C   UNL d   1      48.789  35.068  52.382  0.00  0.00     0.142 A 
ATOM     19  O   UNL d   1      48.735  34.802  51.598  0.00  0.00    -0.300 OA
ATOM     20  C   UNL d   1      49.374  34.418  51.248  0.00  0.00     0.142 A 
ATOM     21  C   UNL d   1      50.071  34.297  51.678  0.00  0.00     0.107 A 
ENDBRANCH  15  16
ENDBRANCH  14  15
ENDBRANCH  13  14
ENDBRANCH  12  13
ENDBRANCH   5  12
BRANCH   4  22
ATOM     22  C   UNL d   1      53.382  29.954  54.013  0.00  0.00     0.004 A 
ATOM     23  C   UNL d   1      54.042  29.544  53.736  0.00  0.00     0.000 A 
ATOM     24  C   UNL d   1      54.272  28.834  54.098  0.00  0.00     0.000 A 
ATOM     25  C   UNL d   1      53.840  28.540  54.736  0.00  0.00     0.000 A 
ATOM     26  C   UNL d   1      53.180  28.949  55.013  0.00  0.00     0.000 A 
ATOM     27  C   UNL d   1      52.949  29.654  54.657  0.00  0.00     0.000 A 
ENDBRANCH   4  22
TORSDOF 6
ENDMDL
MODEL 3
REMARK VINA RESULT:      -6.5      1.922      6.029
REMARK  6 active torsions:
REMARK  status: ('A' for Active; 'I' for Inactive)
REMARK    1  A    between atoms: C_10  and  C_4 
REMARK    2  A    between atoms: N_12  and  C_5 
REMARK    3  A    between atoms: N_11  and  C_15 
REMARK    4  A    between atoms: C_20  and  N_12 
REMARK    5  A    between atoms: C_15  and  C_16 
REMARK    6  A    between atoms: C_16  and  C_20 
ROOT
ATOM      1  N   UNL d   1      49.144  35.220  52.883  0.00  0.00    -0.195 N 
ATOM      2  C   UNL d   1      48.478  35.236  52.398  0.00  0.00     0.167 A 
ATOM      3  N   UNL d   1      48.972  35.631  53.572  0.00  0.00    -0.163 NA
ATOM      4  C   UNL d   1      47.892  35.657  52.785  0.00  0.00     0.055 A 
ATOM      5  C   UNL d   1      49.832  34.831  52.639  0.00  0.00     0.167 A 
ATOM      6  C   UNL d   1      48.191  35.902  53.508  0.00  0.00     0.104 A 
ATOM      7  N   UNL d   1      48.493  34.864  51.664  0.00  0.00    -0.227 NA
ATOM      8  C   UNL d   1      49.844  34.455  51.895  0.00  0.00     0.058 A 
ATOM      9  C   UNL d   1      49.178  34.471  51.410  0.00  0.00     0.086 A 
ATOM     10  C   UNL d   1      47.787  36.342  54.077  0.00  0.00     0.023 C 
ATOM     11  C   UNL d   1      49.192  34.097  50.672  0.00  0.00     0.021 C 
ENDROOT
BRANCH   5  12
ATOM     12  N   UNL d   1      50.492  34.815  53.119  0.00  0.00    -0.225 NA
BRANCH  12  13
ATOM     13  C   UNL d   1      51.180  34.442  52.864  0.00  0.00     0.102 C 
BRANCH  13  14
ATOM     14  C   UNL d   1      51.722  34.140  53.419  0.00  0.00     0.040 C 
BRANCH  14  15
ATOM     15  C   UNL d   1      52.531  34.212  53.286  0.00  0.00     0.082 C 
BRANCH  15  16
ATOM     16  N   UNL d   1      53.065  33.780  53.742  0.00  0.00    -0.299 N 
ATOM     17  C   UNL d   1      53.301  33.024  53.496  0.00  0.00     0.107 A 
ATOM     18  C   UNL d   1      53.837  32.590  53.954  0.00  0.00     0.142 A 
ATOM     19  O   UNL d   1      54.135  32.913  54.657  0.00  0.00    -0.300 OA
ATOM     20  C   UNL d   1      53.899  33.664  54.899  0.00  0.00     0.142 A 
ATOM     21  C   UNL d   1      53.363  34.098  54.440  0.00  0.00     0.107 A 
ENDBRANCH  15  16
ENDBRANCH  14  15
ENDBRANCH  13  14
ENDBRANCH  12  13
ENDBRANCH   5  12
BRANCH   4  22
ATOM     22  C   UNL d   1      47.120  35.852  52.577  0.00  0.00     0.004 A 
ATOM     23  C   UNL d   1      46.488  35.396  52.846  0.00  0.00     0.000 A 
ATOM     24  C   UNL d   1      45.712  35.596  52.634  0.00  0.00     0.000 A 
ATOM     25  C   UNL d   1      45.573  36.252  52.154  0.00  0.00     0.000 A 
ATOM     26  C   UNL d   1      46.205  36.709  51.885  0.00  0.00     0.000 A 
ATOM     27  C   UNL d   1      46.977  36.514  52.093  0.00  0.00     0.000 A 
ENDBRANCH   4  22
TORSDOF 6
ENDMDL
MODEL 4
REMARK VINA RESULT:      -6.2      0.970      1.726
REMARK  6 active torsions:
REMARK  status: ('A' for Active; 'I' for Inactive)
REMARK    1  A    between atoms: C_10  and  C_4 
REMARK    2  A    between atoms: N_12  and  C_5 
REMARK    3  A    between atoms: N_11  and  C_15 
REMARK    4  A    between atoms: C_20  and  N_12 
REMARK    5  A    between atoms: C_15  and  C_16 
REMARK    6  A    between atoms: C_16  and  C_20 
ROOT
ATOM      1  N   UNL d   1      51.519  33.577  53.115  0.00  0.00    -0.195 N 
ATOM      2  C   UNL d   1      52.238  33.705  53.497  0.00  0.00     0.167 A 
ATOM      3  N   UNL d   1      51.514  32.810  52.822  0.00  0.00    -0.163 NA
ATOM      4  C   UNL d   1      52.681  33.018  53.441  0.00  0.00     0.055 A 
ATOM      5  C   UNL d   1      50.949  34.176  53.079  0.00  0.00     0.167 A 
ATOM      6  C   UNL d   1      52.240  32.465  53.027  0.00  0.00     0.104 A 
ATOM      7  N   UNL d   1      52.395  34.433  53.846  0.00  0.00    -0.227 NA
ATOM      8  C   UNL d   1      51.112  34.912  53.434  0.00  0.00     0.058 A 
ATOM      9  C   UNL d   1      51.831  35.040  53.816  0.00  0.00     0.086 A 
ATOM     10  C   UNL d   1      52.475  31.695  52.843  0.00  0.00     0.023 C 
ATOM     11  C   UNL d   1      51.991  35.773  54.167  0.00  0.00     0.021 C 
ENDROOT
BRANCH   5  12
ATOM     12  N   UNL d   1      50.237  34.049  52.702  0.00  0.00    -0.225 NA
BRANCH  12  13
ATOM     13  C   UNL d   1      49.869  34.664  52.297  0.00  0.00     0.102 C 
BRANCH  13  14
ATOM     14  C   UNL d   1      49.040  34.683  52.232  0.00  0.00     0.040 C 
BRANCH  14  15
ATOM     15  C   UNL d   1      48.683  35.113  51.628  0.00  0.00     0.082 C 
BRANCH  15  16
ATOM     16  N   UNL d   1      47.924  35.419  51.730  0.00  0.00    -0.299 N 
ATOM     17  C   UNL d   1      47.310  35.177  51.226  0.00  0.00     0.107 A 
ATOM     18  C   UNL d   1      46.548  35.484  51.329  0.00  0.00     0.142 A 
ATOM     19  O   UNL d   1      46.402  36.032  51.935  0.00  0.00    -0.300 OA
ATOM     20  C   UNL d   1      47.013  36.269  52.433  0.00  0.00     0.142 A 
ATOM     21  C   UNL d   1      47.775  35.962  52.330  0.00  0.00     0.107 A 
ENDBRANCH  15  16
ENDBRANCH  14  15
ENDBRANCH  13  14
ENDBRANCH  12  13
ENDBRANCH   5  12
BRANCH   4  22
ATOM     22  C   UNL d   1      53.432  32.819  53.713  0.00  0.00     0.004 A 
ATOM     23  C   UNL d   1      53.536  32.547  54.484  0.00  0.00     0.000 A 
ATOM     24  C   UNL d   1      54.295  32.348  54.754  0.00  0.00     0.000 A 
ATOM     25  C   UNL d   1      54.943  32.422  54.250  0.00  0.00     0.000 A 
ATOM     26  C   UNL d   1      54.839  32.694  53.478  0.00  0.00     0.000 A 
ATOM     27  C   UNL d   1      54.088  32.893  53.207  0.00  0.00     0.000 A 
ENDBRANCH   4  22
TORSDOF 6
ENDMDL
MODEL 5
REMARK VINA RESULT:      -5.7      1.878      6.635
REMARK  6 active torsions:
REMARK  status: ('A' for Active; 'I' for Inactive)
REMARK    1  A    between atoms: C_10  and  C_4 
REMARK    2  A    between atoms: N_12  and  C_5 
REMARK    3  A    between atoms: N_11  and  C_15 
REMARK    4  A    between atoms: C_20  and  N_12 
REMARK    5  A    between atoms: C_15  and  C_16 
REMARK    6  A    between atoms: C_16  and  C_20 
ROOT
ATOM      1  N   UNL d   1      48.014  35.468  52.333  0.00  0.00    -0.195 N 
ATOM      2  C   UNL d   1      47.294  35.805  52.551  0.00  0.00     0.167 A 
ATOM      3  N   UNL d   1      47.919  35.104  51.604  0.00  0.00    -0.163 NA
ATOM      4  C   UNL d   1      46.752  35.651  51.957  0.00  0.00     0.055 A 
ATOM      5  C   UNL d   1      48.675  35.531  52.826  0.00  0.00     0.167 A 
ATOM      6  C   UNL d   1      47.131  35.220  51.372  0.00  0.00     0.104 A 
ATOM      7  N   UNL d   1      47.228  36.209  53.264  0.00  0.00    -0.227 NA
ATOM      8  C   UNL d   1      48.604  35.942  53.549  0.00  0.00     0.058 A 
ATOM      9  C   UNL d   1      47.884  36.279  53.766  0.00  0.00     0.086 A 
ATOM     10  C   UNL d   1      46.791  34.946  50.672  0.00  0.00     0.023 C 
ATOM     11  C   UNL d   1      47.816  36.687  54.484  0.00  0.00     0.021 C 
ENDROOT
BRANCH   5  12
ATOM     12  N   UNL d   1      49.388  35.198  52.611  0.00  0.00    -0.225 NA
BRANCH  12  13
ATOM     13  C   UNL d   1      49.809  34.739  53.149  0.00  0.00     0.102 C 
BRANCH  13  14
ATOM     14  C   UNL d   1      50.536  34.399  52.929  0.00  0.00     0.040 C 
BRANCH  14  15
ATOM     15  C   UNL d   1      50.859  33.790  53.378  0.00  0.00     0.082 C 
BRANCH  15  16
ATOM     16  N   UNL d   1      51.664  33.622  53.329  0.00  0.00    -0.299 N 
ATOM     17  C   UNL d   1      52.211  34.095  53.737  0.00  0.00     0.107 A 
ATOM     18  C   UNL d   1      53.020  33.926  53.687  0.00  0.00     0.142 A 
ATOM     19  O   UNL d   1      53.280  33.285  53.228  0.00  0.00    -0.300 OA
ATOM     20  C   UNL d   1      52.736  32.818  52.825  0.00  0.00     0.142 A 
ATOM     21  C   UNL d   1      51.926  32.987  52.875  0.00  0.00     0.107 A 
ENDBRANCH  15  16
ENDBRANCH  14  15
ENDBRANCH  13  14
ENDBRANCH  12  13
ENDBRANCH   5  12
BRANCH   4  22
ATOM     22  C   UNL d   1      45.957  35.845  51.868  0.00  0.00     0.004 A 
ATOM     23  C   UNL d   1      45.738  36.510  51.433  0.00  0.00     0.000 A 
ATOM     24  C   UNL d   1      44.936  36.703  51.346  0.00  0.00     0.000 A 
ATOM     25  C   UNL d   1      44.359  36.229  51.696  0.00  0.00     0.000 A 
ATOM     26  C   UNL d   1      44.578  35.564  52.131  0.00  0.00     0.000 A 
ATOM     27  C   UNL d   1      45.372  35.369  52.220  0.00  0.00     0.000 A 
ENDBRANCH   4  22
TORSDOF 6
ENDMDL
MODEL 6
REMARK VINA RESULT:      -5.5      9.825     11.301
REMARK  6 active torsions:
REMARK  status: ('A' for Active; 'I' for Inactive)
REMARK    1  A    between atoms: C_10  and  C_4 
REMARK    2  A    between atoms: N_12  and  C_5 
REMARK    3  A    between atoms: N_11  and  C_15 
REMARK    4  A    between atoms: C_20  and  N_12 
REMARK    5  A    between atoms: C_15  and  C_16 
REMARK    6  A    between atoms: C_16  and  C_20 
ROOT
ATOM      1  N   UNL d   1      44.929  27.829  57.167  0.00  0.00    -0.195 N 
ATOM      2  C   UNL d   1      44.877  28.308  57.835  0.00  0.00     0.167 A 
ATOM      3  N   UNL d   1      45.001  28.311  56.507  0.00  0.00    -0.163 NA
ATOM      4  C   UNL d   1      44.918  29.089  57.591  0.00  0.00     0.055 A 
ATOM      5  C   UNL d   1      44.903  27.005  57.236  0.00  0.00     0.167 A 
ATOM      6  C   UNL d   1      44.994  29.097  56.775  0.00  0.00     0.104 A 
ATOM      7  N   UNL d   1      44.800  27.969  58.580  0.00  0.00    -0.227 NA
ATOM      8  C   UNL d   1      44.825  26.664  57.994  0.00  0.00     0.058 A 
ATOM      9  C   UNL d   1      44.773  27.144  58.662  0.00  0.00     0.086 A 
ATOM     10  C   UNL d   1      45.054  29.768  56.298  0.00  0.00     0.023 C 
ATOM     11  C   UNL d   1      44.696  26.803  59.413  0.00  0.00     0.021 C 
ENDROOT
BRANCH   5  12
ATOM     12  N   UNL d   1      44.954  26.530  56.575  0.00  0.00    -0.225 NA
BRANCH  12  13
ATOM     13  C   UNL d   1      44.734  25.738  56.616  0.00  0.00     0.102 C 
BRANCH  13  14
ATOM     14  C   UNL d   1      44.937  25.216  56.001  0.00  0.00     0.040 C 
BRANCH  14  15
ATOM     15  C   UNL d   1      44.452  24.573  55.829  0.00  0.00     0.082 C 
BRANCH  15  16
ATOM     16  N   UNL d   1      44.740  23.948  55.376  0.00  0.00    -0.299 N 
ATOM     17  C   UNL d   1      44.659  23.966  54.550  0.00  0.00     0.107 A 
ATOM     18  C   UNL d   1      44.948  23.337  54.095  0.00  0.00     0.142 A 
ATOM     19  O   UNL d   1      45.317  22.693  54.466  0.00  0.00    -0.300 OA
ATOM     20  C   UNL d   1      45.395  22.679  55.285  0.00  0.00     0.142 A 
ATOM     21  C   UNL d   1      45.106  23.307  55.741  0.00  0.00     0.107 A 
ENDBRANCH  15  16
ENDBRANCH  14  15
ENDBRANCH  13  14
ENDBRANCH  12  13
ENDBRANCH   5  12
BRANCH   4  22
ATOM     22  C   UNL d   1      44.895  29.800  58.004  0.00  0.00     0.004 A 
ATOM     23  C   UNL d   1      44.333  30.373  57.816  0.00  0.00     0.000 A 
ATOM     24  C   UNL d   1      44.314  31.089  58.235  0.00  0.00     0.000 A 
ATOM     25  C   UNL d   1      44.858  31.226  58.839  0.00  0.00     0.000 A 
ATOM     26  C   UNL d   1      45.421  30.653  59.028  0.00  0.00     0.000 A 
ATOM     27  C   UNL d   1      45.443  29.942  58.614  0.00  0.00     0.000 A 
ENDBRANCH   4  22
TORSDOF 6
ENDMDL
MODEL 7
REMARK VINA RESULT:      -5.5     10.566     12.077
REMARK  6 active torsions:
REMARK  status: ('A' for Active; 'I' for Inactive)
REMARK    1  A    between atoms: C_10  and  C_4 
REMARK    2  A    between atoms: N_12  and  C_5 
REMARK    3  A    between atoms: N_11  and  C_15 
REMARK    4  A    between atoms: C_20  and  N_12 
REMARK    5  A    between atoms: C_15  and  C_16 
REMARK    6  A    between atoms: C_16  and  C_20 
ROOT
ATOM      1  N   UNL d   1      44.856  27.579  58.058  0.00  0.00    -0.195 N 
ATOM      2  C   UNL d   1      44.776  28.306  58.438  0.00  0.00     0.167 A 
ATOM      3  N   UNL d   1      45.028  27.718  57.267  0.00  0.00    -0.163 NA
ATOM      4  C   UNL d   1      44.897  28.897  57.884  0.00  0.00     0.055 A 
ATOM      5  C   UNL d   1      44.764  26.872  58.477  0.00  0.00     0.167 A 
ATOM      6  C   UNL d   1      45.053  28.541  57.162  0.00  0.00     0.104 A 
ATOM      7  N   UNL d   1      44.602  28.333  59.242  0.00  0.00    -0.227 NA
ATOM      8  C   UNL d   1      44.588  26.903  59.291  0.00  0.00     0.058 A 
ATOM      9  C   UNL d   1      44.507  27.630  59.672  0.00  0.00     0.086 A 
ATOM     10  C   UNL d   1      45.207  28.931  56.452  0.00  0.00     0.023 C 
ATOM     11  C   UNL d   1      44.332  27.659  60.480  0.00  0.00     0.021 C 
ENDROOT
BRANCH   5  12
ATOM     12  N   UNL d   1      44.844  26.152  58.100  0.00  0.00    -0.225 NA
BRANCH  12  13
ATOM     13  C   UNL d   1      44.544  25.469  58.447  0.00  0.00     0.102 C 
BRANCH  13  14
ATOM     14  C   UNL d   1      44.727  24.723  58.126  0.00  0.00     0.040 C 
BRANCH  14  15
ATOM     15  C   UNL d   1      44.415  24.041  58.465  0.00  0.00     0.082 C 
BRANCH  15  16
ATOM     16  N   UNL d   1      44.727  23.303  58.270  0.00  0.00    -0.299 N 
ATOM     17  C   UNL d   1      45.068  22.830  58.861  0.00  0.00     0.107 A 
ATOM     18  C   UNL d   1      45.381  22.089  58.666  0.00  0.00     0.142 A 
ATOM     19  O   UNL d   1      45.353  21.823  57.880  0.00  0.00    -0.300 OA
ATOM     20  C   UNL d   1      45.014  22.295  57.297  0.00  0.00     0.142 A 
ATOM     21  C   UNL d   1      44.701  23.036  57.492  0.00  0.00     0.107 A 
ENDBRANCH  15  16
ENDBRANCH  14  15
ENDBRANCH  13  14
ENDBRANCH  12  13
ENDBRANCH   5  12
BRANCH   4  22
ATOM     22  C   UNL d   1      44.887  29.718  57.939  0.00  0.00     0.004 A 
ATOM     23  C   UNL d   1      44.339  30.157  57.508  0.00  0.00     0.000 A 
ATOM     24  C   UNL d   1      44.332  30.985  57.566  0.00  0.00     0.000 A 
ATOM     25  C   UNL d   1      44.875  31.367  58.056  0.00  0.00     0.000 A 
ATOM     26  C   UNL d   1      45.424  30.927  58.487  0.00  0.00     0.000 A 
ATOM     27  C   UNL d   1      45.434  30.106  58.432  0.00  0.00     0.000 A 
ENDBRANCH   4  22
TORSDOF 6
ENDMDL
