MODEL 1
REMARK VINA RESULT:      -3.2      0.000      0.000
REMARK  1 active torsions:
REMARK  status: ('A' for Active; 'I' for Inactive)
REMARK    1  A    between atoms: C_12  and  C_1 
ROOT
ATOM      1  C   UNL d   1      29.615  16.419 -23.979  0.00  0.00     0.019 A 
ATOM      2  C   UNL d   1      30.655  17.335 -24.342  0.00  0.00     0.103 A 
ATOM      3  C   UNL d   1      30.409  16.638 -23.976  0.00  0.00     0.024 A 
ATOM      4  O   UNL d   1      30.105  17.821 -24.716  0.00  0.00    -0.273 OA
ATOM      5  C   UNL d   1      29.307  17.602 -24.720  0.00  0.00     0.300 A 
ATOM      6  C   UNL d   1      29.061  16.904 -24.354  0.00  0.00     0.070 A 
ATOM      7  C   UNL d   1      30.964  16.155 -23.603  0.00  0.00     0.002 A 
ATOM      8  C   UNL d   1      31.456  17.549 -24.335  0.00  0.00     0.025 A 
ATOM      9  C   UNL d   1      31.758  16.364 -23.593  0.00  0.00     0.000 A 
ATOM     10  O   UNL d   1      28.749  18.089 -25.097  0.00  0.00    -0.259 OA
ATOM     11  C   UNL d   1      32.005  17.064 -23.961  0.00  0.00     0.002 A 
ATOM     12  C   UNL d   1      30.726  15.456 -23.234  0.00  0.00     0.000 C 
ATOM     13  C   UNL d   1      32.809  17.274 -23.951  0.00  0.00     0.000 C 
ENDROOT
BRANCH   1  14
ATOM     14  C   UNL d   1      29.377  15.720 -23.611  0.00  0.00     0.069 C 
ATOM     15 CL   UNL d   1      28.573  15.565 -23.515  0.00  0.00    -0.082 Cl
ENDBRANCH   1  14
TORSDOF 1
ENDMDL
MODEL 2
REMARK VINA RESULT:      -3.2      1.689      3.072
REMARK  1 active torsions:
REMARK  status: ('A' for Active; 'I' for Inactive)
REMARK    1  A    between atoms: C_12  and  C_1 
ROOT
ATOM      1  C   UNL d   1      30.919  17.068 -24.348  0.00  0.00     0.019 A 
ATOM      2  C   UNL d   1      30.218  16.064 -23.604  0.00  0.00     0.103 A 
ATOM      3  C   UNL d   1      30.215  16.704 -24.123  0.00  0.00     0.024 A 
ATOM      4  O   UNL d   1      30.930  15.780 -23.303  0.00  0.00    -0.273 OA
ATOM      5  C   UNL d   1      31.639  16.144 -23.528  0.00  0.00     0.300 A 
ATOM      6  C   UNL d   1      31.635  16.785 -24.047  0.00  0.00     0.070 A 
ATOM      7  C   UNL d   1      29.498  16.985 -24.422  0.00  0.00     0.002 A 
ATOM      8  C   UNL d   1      29.505  15.704 -23.382  0.00  0.00     0.025 A 
ATOM      9  C   UNL d   1      28.790  16.631 -24.205  0.00  0.00     0.000 A 
ATOM     10  O   UNL d   1      32.359  15.860 -23.226  0.00  0.00    -0.259 OA
ATOM     11  C   UNL d   1      28.793  15.987 -23.683  0.00  0.00     0.002 A 
ATOM     12  C   UNL d   1      29.487  17.625 -24.942  0.00  0.00     0.000 C 
ATOM     13  C   UNL d   1      28.076  15.630 -23.464  0.00  0.00     0.000 C 
ENDROOT
BRANCH   1  14
ATOM     14  C   UNL d   1      30.908  17.708 -24.868  0.00  0.00     0.069 C 
ATOM     15 CL   UNL d   1      31.616  18.074 -25.077  0.00  0.00    -0.082 Cl
ENDBRANCH   1  14
TORSDOF 1
ENDMDL
MODEL 3
REMARK VINA RESULT:      -2.9      1.392      2.531
REMARK  1 active torsions:
REMARK  status: ('A' for Active; 'I' for Inactive)
REMARK    1  A    between atoms: C_12  and  C_1 
ROOT
ATOM      1  C   UNL d   1      31.798  16.724 -23.948  0.00  0.00     0.019 A 
ATOM      2  C   UNL d   1      30.518  17.217 -24.361  0.00  0.00     0.103 A 
ATOM      3  C   UNL d   1      30.977  16.656 -23.969  0.00  0.00     0.024 A 
ATOM      4  O   UNL d   1      30.878  17.855 -24.738  0.00  0.00    -0.273 OA
ATOM      5  C   UNL d   1      31.702  17.925 -24.718  0.00  0.00     0.300 A 
ATOM      6  C   UNL d   1      32.162  17.363 -24.326  0.00  0.00     0.070 A 
ATOM      7  C   UNL d   1      30.611  16.019 -23.593  0.00  0.00     0.002 A 
ATOM      8  C   UNL d   1      29.692  17.142 -24.377  0.00  0.00     0.025 A 
ATOM      9  C   UNL d   1      29.794  15.941 -23.607  0.00  0.00     0.000 A 
ATOM     10  O   UNL d   1      32.069  18.567 -25.097  0.00  0.00    -0.259 OA
ATOM     11  C   UNL d   1      29.332  16.505 -24.001  0.00  0.00     0.002 A 
ATOM     12  C   UNL d   1      31.065  15.453 -23.198  0.00  0.00     0.000 C 
ATOM     13  C   UNL d   1      28.506  16.424 -24.014  0.00  0.00     0.000 C 
ENDROOT
BRANCH   1  14
ATOM     14  C   UNL d   1      32.251  16.158 -23.554  0.00  0.00     0.069 C 
ATOM     15 CL   UNL d   1      33.073  16.210 -23.575  0.00  0.00    -0.082 Cl
ENDBRANCH   1  14
TORSDOF 1
ENDMDL
MODEL 4
REMARK VINA RESULT:      -2.7      5.940      6.844
REMARK  1 active torsions:
REMARK  status: ('A' for Active; 'I' for Inactive)
REMARK    1  A    between atoms: C_12  and  C_1 
ROOT
ATOM      1  C   UNL d   1      32.712  22.097 -20.852  0.00  0.00     0.019 A 
ATOM      2  C   UNL d   1      33.108  21.808 -22.197  0.00  0.00     0.103 A 
ATOM      3  C   UNL d   1      32.845  22.341 -21.627  0.00  0.00     0.024 A 
ATOM      4  O   UNL d   1      33.241  21.020 -21.996  0.00  0.00    -0.273 OA
ATOM      5  C   UNL d   1      33.107  20.772 -21.218  0.00  0.00     0.300 A 
ATOM      6  C   UNL d   1      32.844  21.306 -20.647  0.00  0.00     0.070 A 
ATOM      7  C   UNL d   1      32.714  23.130 -21.833  0.00  0.00     0.002 A 
ATOM      8  C   UNL d   1      33.241  22.062 -22.976  0.00  0.00     0.025 A 
ATOM      9  C   UNL d   1      32.844  23.385 -22.603  0.00  0.00     0.000 A 
ATOM     10  O   UNL d   1      33.240  19.979 -21.012  0.00  0.00    -0.259 OA
ATOM     11  C   UNL d   1      33.109  22.849 -23.177  0.00  0.00     0.002 A 
ATOM     12  C   UNL d   1      32.451  23.669 -21.268  0.00  0.00     0.000 C 
ATOM     13  C   UNL d   1      33.240  23.109 -23.954  0.00  0.00     0.000 C 
ENDROOT
BRANCH   1  14
ATOM     14  C   UNL d   1      32.448  22.636 -20.286  0.00  0.00     0.069 C 
ATOM     15 CL   UNL d   1      32.593  22.491 -19.488  0.00  0.00    -0.082 Cl
ENDBRANCH   1  14
TORSDOF 1
ENDMDL
MODEL 5
REMARK VINA RESULT:      -2.6      6.222      7.138
REMARK  1 active torsions:
REMARK  status: ('A' for Active; 'I' for Inactive)
REMARK    1  A    between atoms: C_12  and  C_1 
ROOT
ATOM      1  C   UNL d   1      33.081  22.053 -22.076  0.00  0.00     0.019 A 
ATOM      2  C   UNL d   1      32.767  22.046 -20.679  0.00  0.00     0.103 A 
ATOM      3  C   UNL d   1      32.928  22.457 -21.375  0.00  0.00     0.024 A 
ATOM      4  O   UNL d   1      32.758  21.222 -20.678  0.00  0.00    -0.273 OA
ATOM      5  C   UNL d   1      32.911  20.815 -21.381  0.00  0.00     0.300 A 
ATOM      6  C   UNL d   1      33.072  21.226 -22.078  0.00  0.00     0.070 A 
ATOM      7  C   UNL d   1      32.936  23.282 -21.370  0.00  0.00     0.002 A 
ATOM      8  C   UNL d   1      32.614  22.460 -19.976  0.00  0.00     0.025 A 
ATOM      9  C   UNL d   1      32.785  23.696 -20.677  0.00  0.00     0.000 A 
ATOM     10  O   UNL d   1      32.902  19.984 -21.384  0.00  0.00    -0.259 OA
ATOM     11  C   UNL d   1      32.624  23.283 -19.977  0.00  0.00     0.002 A 
ATOM     12  C   UNL d   1      33.096  23.700 -22.063  0.00  0.00     0.000 C 
ATOM     13  C   UNL d   1      32.471  23.702 -19.277  0.00  0.00     0.000 C 
ENDROOT
BRANCH   1  14
ATOM     14  C   UNL d   1      33.241  22.470 -22.769  0.00  0.00     0.069 C 
ATOM     15 CL   UNL d   1      33.228  22.077 -23.493  0.00  0.00    -0.082 Cl
ENDBRANCH   1  14
TORSDOF 1
ENDMDL
MODEL 6
REMARK VINA RESULT:      -2.6      5.542      6.488
REMARK  1 active torsions:
REMARK  status: ('A' for Active; 'I' for Inactive)
REMARK    1  A    between atoms: C_12  and  C_1 
ROOT
ATOM      1  C   UNL d   1      32.904  22.533 -21.718  0.00  0.00     0.019 A 
ATOM      2  C   UNL d   1      32.903  21.200 -21.195  0.00  0.00     0.103 A 
ATOM      3  C   UNL d   1      32.987  21.721 -21.828  0.00  0.00     0.024 A 
ATOM      4  O   UNL d   1      32.735  21.489 -20.442  0.00  0.00    -0.273 OA
ATOM      5  C   UNL d   1      32.651  22.304 -20.330  0.00  0.00     0.300 A 
ATOM      6  C   UNL d   1      32.736  22.826 -20.964  0.00  0.00     0.070 A 
ATOM      7  C   UNL d   1      33.155  21.426 -22.580  0.00  0.00     0.002 A 
ATOM      8  C   UNL d   1      32.987  20.383 -21.312  0.00  0.00     0.025 A 
ATOM      9  C   UNL d   1      33.240  20.618 -22.701  0.00  0.00     0.000 A 
ATOM     10  O   UNL d   1      32.482  22.599 -19.572  0.00  0.00    -0.259 OA
ATOM     11  C   UNL d   1      33.155  20.094 -22.064  0.00  0.00     0.002 A 
ATOM     12  C   UNL d   1      33.241  21.941 -23.219  0.00  0.00     0.000 C 
ATOM     13  C   UNL d   1      33.241  19.278 -22.188  0.00  0.00     0.000 C 
ENDROOT
BRANCH   1  14
ATOM     14  C   UNL d   1      32.990  23.048 -22.357  0.00  0.00     0.069 C 
ATOM     15 CL   UNL d   1      32.491  23.700 -22.422  0.00  0.00    -0.082 Cl
ENDBRANCH   1  14
TORSDOF 1
ENDMDL
MODEL 7
REMARK VINA RESULT:      -2.6      5.860      6.654
REMARK  1 active torsions:
REMARK  status: ('A' for Active; 'I' for Inactive)
REMARK    1  A    between atoms: C_12  and  C_1 
ROOT
ATOM      1  C   UNL d   1      33.075  21.503 -22.217  0.00  0.00     0.019 A 
ATOM      2  C   UNL d   1      32.867  22.858 -21.802  0.00  0.00     0.103 A 
ATOM      3  C   UNL d   1      32.918  22.055 -21.626  0.00  0.00     0.024 A 
ATOM      4  O   UNL d   1      32.974  23.119 -22.577  0.00  0.00    -0.273 OA
ATOM      5  C   UNL d   1      33.132  22.566 -23.172  0.00  0.00     0.300 A 
ATOM      6  C   UNL d   1      33.183  21.762 -22.995  0.00  0.00     0.070 A 
ATOM      7  C   UNL d   1      32.810  21.799 -20.848  0.00  0.00     0.002 A 
ATOM      8  C   UNL d   1      32.709  23.408 -21.202  0.00  0.00     0.025 A 
ATOM      9  C   UNL d   1      32.652  22.340 -20.251  0.00  0.00     0.000 A 
ATOM     10  O   UNL d   1      33.241  22.825 -23.954  0.00  0.00    -0.259 OA
ATOM     11  C   UNL d   1      32.602  23.148 -20.428  0.00  0.00     0.002 A 
ATOM     12  C   UNL d   1      32.859  20.997 -20.664  0.00  0.00     0.000 C 
ATOM     13  C   UNL d   1      32.443  23.694 -19.823  0.00  0.00     0.000 C 
ENDROOT
BRANCH   1  14
ATOM     14  C   UNL d   1      33.124  20.701 -22.032  0.00  0.00     0.069 C 
ATOM     15 CL   UNL d   1      33.231  20.151 -22.637  0.00  0.00    -0.082 Cl
ENDBRANCH   1  14
TORSDOF 1
ENDMDL
MODEL 8
REMARK VINA RESULT:      -2.4      6.111      6.895
REMARK  1 active torsions:
REMARK  status: ('A' for Active; 'I' for Inactive)
REMARK    1  A    between atoms: C_12  and  C_1 
ROOT
ATOM      1  C   UNL d   1      32.787  21.917 -20.946  0.00  0.00     0.019 A 
ATOM      2  C   UNL d   1      32.781  23.079 -21.784  0.00  0.00     0.103 A 
ATOM      3  C   UNL d   1      32.896  22.269 -21.682  0.00  0.00     0.024 A 
ATOM      4  O   UNL d   1      32.554  23.547 -21.145  0.00  0.00    -0.273 OA
ATOM      5  C   UNL d   1      32.444  23.195 -20.404  0.00  0.00     0.300 A 
ATOM      6  C   UNL d   1      32.559  22.385 -20.303  0.00  0.00     0.070 A 
ATOM      7  C   UNL d   1      33.124  21.805 -22.326  0.00  0.00     0.002 A 
ATOM      8  C   UNL d   1      32.893  23.426 -22.528  0.00  0.00     0.025 A 
ATOM      9  C   UNL d   1      33.236  22.145 -23.065  0.00  0.00     0.000 A 
ATOM     10  O   UNL d   1      32.215  23.664 -19.757  0.00  0.00    -0.259 OA
ATOM     11  C   UNL d   1      33.120  22.959 -23.167  0.00  0.00     0.002 A 
ATOM     12  C   UNL d   1      33.241  20.994 -22.232  0.00  0.00     0.000 C 
ATOM     13  C   UNL d   1      33.234  23.301 -23.915  0.00  0.00     0.000 C 
ENDROOT
BRANCH   1  14
ATOM     14  C   UNL d   1      32.904  21.106 -20.852  0.00  0.00     0.069 C 
ATOM     15 CL   UNL d   1      33.217  20.820 -20.145  0.00  0.00    -0.082 Cl
ENDBRANCH   1  14
TORSDOF 1
ENDMDL
MODEL 9
REMARK VINA RESULT:      -2.3      3.687      4.767
REMARK  1 active torsions:
REMARK  status: ('A' for Active; 'I' for Inactive)
REMARK    1  A    between atoms: C_12  and  C_1 
ROOT
ATOM      1  C   UNL d   1      33.231  19.133 -23.533  0.00  0.00     0.019 A 
ATOM      2  C   UNL d   1      33.233  19.125 -22.101  0.00  0.00     0.103 A 
ATOM      3  C   UNL d   1      33.233  19.537 -22.815  0.00  0.00     0.024 A 
ATOM      4  O   UNL d   1      33.231  18.301 -22.099  0.00  0.00    -0.273 OA
ATOM      5  C   UNL d   1      33.229  17.895 -22.820  0.00  0.00     0.300 A 
ATOM      6  C   UNL d   1      33.229  18.307 -23.534  0.00  0.00     0.070 A 
ATOM      7  C   UNL d   1      33.235  20.362 -22.811  0.00  0.00     0.002 A 
ATOM      8  C   UNL d   1      33.236  19.538 -21.382  0.00  0.00     0.025 A 
ATOM      9  C   UNL d   1      33.237  20.775 -22.101  0.00  0.00     0.000 A 
ATOM     10  O   UNL d   1      33.227  17.064 -22.822  0.00  0.00    -0.259 OA
ATOM     11  C   UNL d   1      33.237  20.361 -21.383  0.00  0.00     0.002 A 
ATOM     12  C   UNL d   1      33.234  20.781 -23.522  0.00  0.00     0.000 C 
ATOM     13  C   UNL d   1      33.240  20.780 -20.666  0.00  0.00     0.000 C 
ENDROOT
BRANCH   1  14
ATOM     14  C   UNL d   1      33.230  19.552 -24.244  0.00  0.00     0.069 C 
ATOM     15 CL   UNL d   1      33.082  19.154 -24.950  0.00  0.00    -0.082 Cl
ENDBRANCH   1  14
TORSDOF 1
ENDMDL
