MODEL 1
REMARK VINA RESULT:      73.5      0.000      0.000
REMARK  7 active torsions:
REMARK  status: ('A' for Active; 'I' for Inactive)
REMARK    1  A    between atoms: C_11  and  N_3 
REMARK    2  A    between atoms: C_10  and  C_4 
REMARK    3  A    between atoms: C_16  and  C_11 
REMARK    4  A    between atoms: N_13  and  C_17 
REMARK    5  A    between atoms: C_18  and  N_14 
REMARK    6  A    between atoms: C_17  and  C_16 
REMARK    7  A    between atoms: C_27  and  C_18 
ROOT
ATOM      1  C   UNL d   1     -50.884  25.357  33.312  0.00  0.00     0.137 A 
ATOM      2  N   UNL d   1     -51.696  25.166  33.309  0.00  0.00    -0.259 N 
ATOM      3  N   UNL d   1     -50.828  26.180  33.313  0.00  0.00    -0.287 N 
ATOM      4  C   UNL d   1     -50.322  24.760  33.313  0.00  0.00     0.054 A 
ATOM      5  C   UNL d   1     -51.931  24.372  33.308  0.00  0.00     0.266 A 
ATOM      6  C   UNL d   1     -52.130  25.868  33.309  0.00  0.00     0.084 A 
ATOM      7  C   UNL d   1     -51.586  26.503  33.311  0.00  0.00     0.082 A 
ATOM      8  C   UNL d   1     -50.553  23.968  33.311  0.00  0.00     0.009 A 
ATOM      9  C   UNL d   1     -51.359  23.767  33.309  0.00  0.00     0.061 A 
ATOM     10  O   UNL d   1     -52.736  24.176  33.306  0.00  0.00    -0.267 OA
ATOM     11  C   UNL d   1     -52.936  26.026  33.307  0.00  0.00     0.019 A 
ATOM     12  C   UNL d   1     -49.985  23.366  33.312  0.00  0.00     0.000 C 
ATOM     13  C   UNL d   1     -51.871  27.270  33.311  0.00  0.00     0.019 A 
ATOM     14  C   UNL d   1     -53.204  26.799  33.307  0.00  0.00     0.002 A 
ATOM     15  C   UNL d   1     -52.665  27.427  33.309  0.00  0.00     0.002 A 
ENDROOT
BRANCH   3  16
ATOM     16  C   UNL d   1     -50.300  26.811  33.315  0.00  0.00     0.125 C 
BRANCH  16  17
ATOM     17  C   UNL d   1     -49.948  27.049  34.022  0.00  0.00     0.231 C 
ATOM     18  O   UNL d   1     -49.647  26.490  34.546  0.00  0.00    -0.283 OA
BRANCH  17  19
ATOM     19  C   UNL d   1     -49.896  27.849  34.205  0.00  0.00     0.124 C 
BRANCH  19  20
ATOM     20  N   UNL d   1     -49.186  28.157  34.491  0.00  0.00    -0.297 N 
ATOM     21  C   UNL d   1     -49.440  28.794  34.954  0.00  0.00     0.100 A 
ATOM     22  C   UNL d   1     -48.880  29.261  35.348  0.00  0.00     0.100 A 
ATOM     23  N   UNL d   1     -48.067  29.100  35.289  0.00  0.00    -0.300 N 
ATOM     24  C   UNL d   1     -47.814  28.453  34.819  0.00  0.00     0.100 A 
ATOM     25  C   UNL d   1     -48.374  27.986  34.424  0.00  0.00     0.100 A 
BRANCH  23  26
ATOM     26  C   UNL d   1     -47.518  29.572  35.687  0.00  0.00     0.080 C 
BRANCH  26  27
ATOM     27  C   UNL d   1     -47.422  30.366  35.470  0.00  0.00     0.018 A 
ATOM     28  C   UNL d   1     -47.786  30.643  34.783  0.00  0.00     0.002 A 
ATOM     29  C   UNL d   1     -47.691  31.444  34.561  0.00  0.00     0.000 A 
ATOM     30  C   UNL d   1     -47.237  31.949  35.026  0.00  0.00     0.000 A 
ATOM     31  C   UNL d   1     -46.872  31.661  35.718  0.00  0.00     0.000 A 
ATOM     32  C   UNL d   1     -46.968  30.867  35.936  0.00  0.00     0.002 A 
ENDBRANCH  26  27
ENDBRANCH  23  26
ENDBRANCH  19  20
ENDBRANCH  17  19
ENDBRANCH  16  17
ENDBRANCH   3  16
BRANCH   4  33
ATOM     33  C   UNL d   1     -49.523  24.947  33.315  0.00  0.00     0.125 C 
ATOM     34  N   UNL d   1     -48.948  24.361  33.356  0.00  0.00    -0.146 N 
ENDBRANCH   4  33
TORSDOF 7
ENDMDL
MODEL 2
REMARK VINA RESULT:      74.7      0.717      2.225
REMARK  7 active torsions:
REMARK  status: ('A' for Active; 'I' for Inactive)
REMARK    1  A    between atoms: C_11  and  N_3 
REMARK    2  A    between atoms: C_10  and  C_4 
REMARK    3  A    between atoms: C_16  and  C_11 
REMARK    4  A    between atoms: N_13  and  C_17 
REMARK    5  A    between atoms: C_18  and  N_14 
REMARK    6  A    between atoms: C_17  and  C_16 
REMARK    7  A    between atoms: C_27  and  C_18 
ROOT
ATOM      1  C   UNL d   1     -51.175  25.817  33.307  0.00  0.00     0.137 A 
ATOM      2  N   UNL d   1     -51.103  24.986  33.306  0.00  0.00    -0.259 N 
ATOM      3  N   UNL d   1     -50.411  26.127  33.307  0.00  0.00    -0.287 N 
ATOM      4  C   UNL d   1     -51.918  26.165  33.307  0.00  0.00     0.054 A 
ATOM      5  C   UNL d   1     -51.784  24.515  33.306  0.00  0.00     0.266 A 
ATOM      6  C   UNL d   1     -50.300  24.793  33.306  0.00  0.00     0.084 A 
ATOM      7  C   UNL d   1     -49.867  25.508  33.306  0.00  0.00     0.082 A 
ATOM      8  C   UNL d   1     -52.598  25.697  33.307  0.00  0.00     0.009 A 
ATOM      9  C   UNL d   1     -52.537  24.869  33.306  0.00  0.00     0.061 A 
ATOM     10  O   UNL d   1     -51.719  23.689  33.306  0.00  0.00    -0.267 OA
ATOM     11  C   UNL d   1     -49.899  24.076  33.306  0.00  0.00     0.019 A 
ATOM     12  C   UNL d   1     -53.347  26.049  33.307  0.00  0.00     0.000 C 
ATOM     13  C   UNL d   1     -49.050  25.477  33.306  0.00  0.00     0.019 A 
ATOM     14  C   UNL d   1     -49.081  24.063  33.305  0.00  0.00     0.002 A 
ATOM     15  C   UNL d   1     -48.652  24.771  33.306  0.00  0.00     0.002 A 
ENDROOT
BRANCH   3  16
ATOM     16  C   UNL d   1     -49.977  26.826  33.307  0.00  0.00     0.125 C 
BRANCH  16  17
ATOM     17  C   UNL d   1     -49.803  27.201  34.021  0.00  0.00     0.231 C 
ATOM     18  O   UNL d   1     -50.399  27.569  34.454  0.00  0.00    -0.283 OA
BRANCH  17  19
ATOM     19  C   UNL d   1     -49.030  27.208  34.304  0.00  0.00     0.124 C 
BRANCH  19  20
ATOM     20  N   UNL d   1     -48.781  27.825  34.792  0.00  0.00    -0.297 N 
ATOM     21  C   UNL d   1     -48.087  28.078  34.419  0.00  0.00     0.100 A 
ATOM     22  C   UNL d   1     -47.656  28.707  34.744  0.00  0.00     0.100 A 
ATOM     23  N   UNL d   1     -47.907  29.089  35.438  0.00  0.00    -0.300 N 
ATOM     24  C   UNL d   1     -48.611  28.828  35.812  0.00  0.00     0.100 A 
ATOM     25  C   UNL d   1     -49.042  28.199  35.487  0.00  0.00     0.100 A 
BRANCH  23  26
ATOM     26  C   UNL d   1     -47.469  29.714  35.753  0.00  0.00     0.080 C 
BRANCH  26  27
ATOM     27  C   UNL d   1     -47.513  30.465  35.405  0.00  0.00     0.018 A 
ATOM     28  C   UNL d   1     -46.859  30.967  35.445  0.00  0.00     0.002 A 
ATOM     29  C   UNL d   1     -46.900  31.726  35.095  0.00  0.00     0.000 A 
ATOM     30  C   UNL d   1     -47.589  31.966  34.714  0.00  0.00     0.000 A 
ATOM     31  C   UNL d   1     -48.245  31.453  34.678  0.00  0.00     0.000 A 
ATOM     32  C   UNL d   1     -48.201  30.702  35.026  0.00  0.00     0.002 A 
ENDBRANCH  26  27
ENDBRANCH  23  26
ENDBRANCH  19  20
ENDBRANCH  17  19
ENDBRANCH  16  17
ENDBRANCH   3  16
BRANCH   4  33
ATOM     33  C   UNL d   1     -51.990  26.981  33.307  0.00  0.00     0.125 C 
ATOM     34  N   UNL d   1     -52.726  27.345  33.339  0.00  0.00    -0.146 N 
ENDBRANCH   4  33
TORSDOF 7
ENDMDL
