MODEL 1
REMARK VINA RESULT:      21.4      0.000      0.000
REMARK  2 active torsions:
REMARK  status: ('A' for Active; 'I' for Inactive)
REMARK    1  A    between atoms: S_2  and  C_1 
REMARK    2  A    between atoms: N_3  and  S_2 
ROOT
ATOM      1  C   UNL d   1     -58.237 -98.764 -43.718  0.00  0.00     0.125 A 
ATOM      2  C   UNL d   1     -58.754 -98.762 -43.171  0.00  0.00    -0.009 A 
ATOM      3  C   UNL d   1     -58.490 -98.761 -42.872  0.00  0.00    -0.009 A 
ATOM      4  C   UNL d   1     -58.522 -98.767 -44.425  0.00  0.00     0.031 A 
ATOM      5  C   UNL d   1     -59.217 -98.761 -42.834  0.00  0.00    -0.007 A 
ATOM      6  C   UNL d   1     -59.683 -98.763 -43.136  0.00  0.00    -0.007 A 
ATOM      7  C   UNL d   1     -59.382 -98.767 -44.399  0.00  0.00     0.045 A 
ATOM      8  C   UNL d   1     -59.956 -98.760 -42.282  0.00  0.00    -0.001 A 
ATOM      9  C   UNL d   1     -59.960 -98.766 -43.822  0.00  0.00    -0.022 A 
ATOM     10  C   UNL d   1     -59.609 -98.765 -43.746  0.00  0.00    -0.022 A 
ENDROOT
BRANCH   1  11
ATOM     11  S   UNL d   1     -57.412 -98.766 -44.412  0.00  0.00     0.141 S 
ATOM     12  O   UNL d   1     -57.789 -98.756 -45.185  0.00  0.00    -0.233 OA
BRANCH  11  13
ATOM     13  N   UNL d   1     -56.546 -98.774 -44.350  0.00  0.00    -0.254 N 
ATOM     14  C   UNL d   1     -56.146 -98.793 -45.067  0.00  0.00     0.089 A 
ATOM     15  C   UNL d   1     -55.329 -98.805 -45.197  0.00  0.00     0.020 A 
ATOM     16  C   UNL d   1     -54.727 -98.801 -44.647  0.00  0.00     0.002 A 
ATOM     17  C   UNL d   1     -54.776 -98.783 -43.825  0.00  0.00     0.002 A 
ATOM     18  C   UNL d   1     -55.450 -98.766 -43.341  0.00  0.00     0.020 A 
ATOM     19  C   UNL d   1     -56.236 -98.762 -43.580  0.00  0.00     0.089 A 
ENDBRANCH  11  13
ENDBRANCH   1  11
TORSDOF 2
ENDMDL
