MODEL 1
REMARK VINA RESULT:      42.7      0.000      0.000
REMARK  5 active torsions:
REMARK  status: ('A' for Active; 'I' for Inactive)
REMARK    1  A    between atoms: C_6  and  C_1 
REMARK    2  A    between atoms: C_7  and  C_5 
REMARK       I    between atoms: N_13  and  C_6 
REMARK    3  A    between atoms: C_8  and  C_12 
REMARK    4  A    between atoms: N_9  and  N_13 
REMARK    5  A    between atoms: C_12  and  N_9 
ROOT
ATOM      1  C   UNL d   1     -55.172-101.975 -40.603  0.00  0.00     0.164 A 
ATOM      2  C   UNL d   1     -55.366-101.171 -40.642  0.00  0.00     0.047 A 
ATOM      3  N   UNL d   1     -54.718-101.926 -41.951  0.00  0.00    -0.148 NA
ATOM      4  N   UNL d   1     -54.848-102.355 -41.255  0.00  0.00    -0.143 NA
ATOM      5  C   UNL d   1     -54.912-101.122 -41.990  0.00  0.00     0.105 A 
ENDROOT
BRANCH   1   6
ATOM      6  C   UNL d   1     -55.306-102.394 -39.903  0.00  0.00     0.316 C 
ATOM      7  N   UNL d   1     -54.711-102.380 -39.129  0.00  0.00    -0.104 NA
ATOM      8  O   UNL d   1     -55.986-102.862 -39.836  0.00  0.00    -0.262 OA
BRANCH   7   9
ATOM      9  N   UNL d   1     -54.762-102.840 -38.230  0.00  0.00    -0.143 NA
BRANCH   9  10
ATOM     10  C   UNL d   1     -55.395-102.647 -37.672  0.00  0.00     0.129 C 
BRANCH  10  11
ATOM     11  C   UNL d   1     -55.207-102.244 -36.923  0.00  0.00     0.050 A 
ATOM     12  S   UNL d   1     -55.105-102.649 -36.290  0.00  0.00    -0.085 SA
ATOM     13  C   UNL d   1     -54.941-102.297 -35.636  0.00  0.00     0.035 A 
ATOM     14  C   UNL d   1     -54.879-101.540 -35.614  0.00  0.00     0.007 A 
ATOM     15  C   UNL d   1     -55.145-101.487 -36.901  0.00  0.00     0.009 A 
ENDBRANCH  10  11
ENDBRANCH   9  10
ENDBRANCH   7   9
ENDBRANCH   1   6
BRANCH   5  16
ATOM     16  C   UNL d   1     -54.864-100.536 -42.568  0.00  0.00     0.019 A 
ATOM     17  C   UNL d   1     -54.884-100.747 -43.364  0.00  0.00     0.002 A 
ATOM     18  C   UNL d   1     -54.836-100.161 -43.947  0.00  0.00     0.000 A 
ATOM     19  C   UNL d   1     -54.855-100.368 -44.744  0.00  0.00     0.000 A 
ATOM     20  C   UNL d   1     -54.767 -99.362 -43.725  0.00  0.00     0.000 A 
ATOM     21  C   UNL d   1     -54.807 -99.787 -45.322  0.00  0.00     0.000 A 
ATOM     22  C   UNL d   1     -54.738 -98.988 -45.108  0.00  0.00     0.000 A 
ATOM     23  C   UNL d   1     -54.718 -98.776 -44.312  0.00  0.00     0.000 A 
ATOM     24  C   UNL d   1     -54.748 -99.165 -42.933  0.00  0.00     0.000 A 
ATOM     25  C   UNL d   1     -54.796 -99.752 -42.355  0.00  0.00     0.002 A 
ENDBRANCH   5  16
TORSDOF 5
ENDMDL
