MODEL 1
REMARK VINA RESULT:     179.1      0.000      0.000
REMARK  3 active torsions:
REMARK  status: ('A' for Active; 'I' for Inactive)
REMARK    1  A    between atoms: C_8  and  N_1 
REMARK    2  A    between atoms: C_9  and  C_14 
REMARK       I    between atoms: N_10  and  C_9 
REMARK    3  A    between atoms: C_16  and  N_12 
ROOT
ATOM      1  C   UNL d   1     -55.391-100.333 -42.951  0.00  0.00     0.066 A 
ATOM      2  C   UNL d   1     -55.064-101.147 -41.822  0.00  0.00     0.058 A 
ATOM      3  C   UNL d   1     -55.280-101.074 -42.616  0.00  0.00     0.022 A 
ATOM      4  C   UNL d   1     -55.286 -99.649 -42.494  0.00  0.00     0.017 A 
ATOM      5  C   UNL d   1     -54.959-100.462 -41.364  0.00  0.00     0.005 A 
ATOM      6  C   UNL d   1     -55.071 -99.719 -41.703  0.00  0.00     0.002 A 
ENDROOT
BRANCH   1   7
ATOM      7  N   UNL d   1     -55.606-100.264 -43.742  0.00  0.00    -0.261 N 
ATOM      8  C   UNL d   1     -55.242-100.828 -44.220  0.00  0.00     0.174 A 
ATOM      9  O   UNL d   1     -55.260-101.005 -45.032  0.00  0.00    -0.316 OA
ATOM     10  C   UNL d   1     -56.047 -99.910 -44.504  0.00  0.00     0.079 A 
ATOM     11  C   UNL d   1     -54.721-101.402 -43.949  0.00  0.00     0.055 C 
ATOM     12  C   UNL d   1     -55.645-100.695 -45.691  0.00  0.00     0.094 A 
ATOM     13  C   UNL d   1     -55.398-101.157 -46.337  0.00  0.00     0.024 A 
ATOM     14  C   UNL d   1     -56.176-100.074 -45.818  0.00  0.00     0.022 A 
ATOM     15  C   UNL d   1     -55.681-100.996 -47.095  0.00  0.00     0.002 A 
ATOM     16  C   UNL d   1     -56.212-100.373 -47.214  0.00  0.00    -0.000 A 
ATOM     17  C   UNL d   1     -56.460 -99.913 -46.576  0.00  0.00    -0.001 A 
ATOM     18  C   UNL d   1     -56.540 -99.510 -45.341  0.00  0.00     0.137 A 
ATOM     19  N   UNL d   1     -56.527 -99.326 -44.526  0.00  0.00    -0.216 NA
ATOM     20  C   UNL d   1     -56.142 -99.636 -43.867  0.00  0.00     0.348 A 
ATOM     21  O   UNL d   1     -56.332 -99.232 -43.176  0.00  0.00    -0.245 OA
ENDBRANCH   1   7
BRANCH   2  22
ATOM     22  C   UNL d   1     -54.954-101.895 -41.491  0.00  0.00     0.265 C 
ATOM     23  N   UNL d   1     -55.058-102.005 -40.682  0.00  0.00    -0.269 N 
ATOM     24  C   UNL d   1     -55.272-101.374 -40.194  0.00  0.00     0.102 A 
ATOM     25  C   UNL d   1     -54.947-102.758 -40.351  0.00  0.00     0.102 A 
ATOM     26  C   UNL d   1     -55.374-101.493 -39.387  0.00  0.00     0.100 A 
ATOM     27  N   UNL d   1     -55.263-102.245 -39.056  0.00  0.00    -0.299 N 
ATOM     28  C   UNL d   1     -55.049-102.876 -39.544  0.00  0.00     0.100 A 
ATOM     29  O   UNL d   1     -54.739-102.531 -41.976  0.00  0.00    -0.267 OA
BRANCH  27  30
ATOM     30  C   UNL d   1     -55.366-102.360 -38.248  0.00  0.00     0.092 A 
ATOM     31  C   UNL d   1     -56.119-102.515 -37.950  0.00  0.00     0.156 A 
ATOM     32  F   UNL d   1     -56.763-102.555 -38.465  0.00  0.00    -0.203 F 
ATOM     33  C   UNL d   1     -56.228-102.631 -37.136  0.00  0.00     0.031 A 
ATOM     34  C   UNL d   1     -55.573-102.589 -36.628  0.00  0.00     0.002 A 
ATOM     35  C   UNL d   1     -54.817-102.432 -36.933  0.00  0.00     0.002 A 
ATOM     36  C   UNL d   1     -54.718-102.318 -37.742  0.00  0.00     0.020 A 
ENDBRANCH  27  30
ENDBRANCH   2  22
TORSDOF 3
ENDMDL
