MODEL 1
REMARK VINA RESULT:      40.0      0.000      0.000
REMARK  5 active torsions:
REMARK  status: ('A' for Active; 'I' for Inactive)
REMARK    1  A    between atoms: S_10  and  C_5 
REMARK    2  A    between atoms: C_14  and  N_9 
REMARK    3  A    between atoms: C_17  and  S_10 
REMARK    4  A    between atoms: C_15  and  C_14 
REMARK    5  A    between atoms: C_19  and  C_17 
ROOT
ATOM      1  C   UNL d   1      14.727  15.108  -2.044  0.00  0.00     0.174 A 
ATOM      2  N   UNL d   1      14.402  14.596  -2.588  0.00  0.00    -0.203 NA
ATOM      3  C   UNL d   1      14.895  14.678  -1.360  0.00  0.00     0.159 A 
ATOM      4  N   UNL d   1      14.898  15.907  -2.065  0.00  0.00    -0.239 N 
ATOM      5  C   UNL d   1      14.372  13.851  -2.234  0.00  0.00     0.181 A 
ATOM      6  C   UNL d   1      15.239  16.309  -1.414  0.00  0.00     0.358 A 
ATOM      7  N   UNL d   1      15.407  15.879  -0.730  0.00  0.00    -0.152 NA
ATOM      8  C   UNL d   1      15.233  15.047  -0.698  0.00  0.00     0.302 A 
ATOM      9  N   UNL d   1      14.664  13.819  -1.461  0.00  0.00    -0.279 N 
ATOM     10  O   UNL d   1      15.414  17.119  -1.430  0.00  0.00    -0.244 OA
ATOM     11  O   UNL d   1      15.401  14.617  -0.014  0.00  0.00    -0.263 OA
ATOM     12  C   UNL d   1      14.730  16.337  -2.749  0.00  0.00     0.105 C 
ENDROOT
BRANCH   5  13
ATOM     13  S   UNL d   1      14.051  13.309  -2.752  0.00  0.00    -0.049 SA
BRANCH  13  14
ATOM     14  C   UNL d   1      13.293  13.150  -3.035  0.00  0.00     0.038 C 
BRANCH  14  15
ATOM     15  C   UNL d   1      13.190  12.867  -3.804  0.00  0.00     0.007 A 
ATOM     16  C   UNL d   1      13.020  13.390  -4.416  0.00  0.00     0.003 A 
ATOM     17  C   UNL d   1      12.917  13.113  -5.182  0.00  0.00     0.030 A 
ATOM     18  C   UNL d   1      12.984  12.301  -5.340  0.00  0.00     0.140 A 
ATOM     19  C   UNL d   1      13.155  11.779  -4.727  0.00  0.00     0.030 A 
ATOM     20  F   UNL d   1      12.882  12.018  -6.108  0.00  0.00    -0.204 F 
ATOM     21  C   UNL d   1      13.258  12.062  -3.959  0.00  0.00     0.003 A 
ENDBRANCH  14  15
ENDBRANCH  13  14
ENDBRANCH   5  13
BRANCH   9  22
ATOM     22  C   UNL d   1      14.728  13.197  -0.933  0.00  0.00     0.082 C 
BRANCH  22  23
ATOM     23  C   UNL d   1      15.140  12.518  -1.159  0.00  0.00     0.019 C 
ATOM     24  C   UNL d   1      15.025  11.813  -0.752  0.00  0.00     0.002 C 
ENDBRANCH  22  23
ENDBRANCH   9  22
TORSDOF 5
ENDMDL
