MODEL 1
REMARK VINA RESULT:      -7.7      0.000      0.000
REMARK  3 active torsions:
REMARK  status: ('A' for Active; 'I' for Inactive)
REMARK    1  A    between atoms: C_6  and  C_1 
REMARK    2  A    between atoms: C_8  and  C_4 
REMARK    3  A    between atoms: O_17  and  C_14 
ROOT
ATOM      1  C   UNL d   1     -49.732  15.044  22.820  0.00  0.00     0.122 A 
ATOM      2  C   UNL d   1     -49.572  14.327  23.213  0.00  0.00     0.285 A 
ATOM      3  N   UNL d   1     -48.825  13.985  23.161  0.00  0.00    -0.208 NA
ATOM      4  C   UNL d   1     -48.236  14.353  22.720  0.00  0.00     0.085 A 
ATOM      5  C   UNL d   1     -49.142  15.413  22.378  0.00  0.00     0.013 A 
ATOM      6  C   UNL d   1     -48.394  15.063  22.330  0.00  0.00     0.020 A 
ATOM      7  O   UNL d   1     -50.170  13.959  23.658  0.00  0.00    -0.265 OA
ENDROOT
BRANCH   4   8
ATOM      8  C   UNL d   1     -47.485  14.011  22.666  0.00  0.00     0.018 A 
ATOM      9  C   UNL d   1     -47.392  13.291  22.268  0.00  0.00     0.004 A 
ATOM     10  C   UNL d   1     -46.645  12.951  22.215  0.00  0.00     0.024 A 
ATOM     11  C   UNL d   1     -45.995  13.328  22.557  0.00  0.00     0.094 A 
ATOM     12  C   UNL d   1     -46.096  14.047  22.953  0.00  0.00     0.024 A 
ATOM     13  C   UNL d   1     -46.845  14.386  23.005  0.00  0.00     0.004 A 
BRANCH  11  14
ATOM     14  O   UNL d   1     -45.242  12.982  22.502  0.00  0.00    -0.328 OA
ATOM     15  C   UNL d   1     -44.824  13.003  21.798  0.00  0.00     0.181 C 
ENDBRANCH  11  14
ENDBRANCH   4   8
BRANCH   1  16
ATOM     16  C   UNL d   1     -50.478  15.387  22.872  0.00  0.00     0.216 C 
ATOM     17  O   UNL d   1     -50.648  15.920  23.479  0.00  0.00    -0.644 OA
ATOM     18  O   UNL d   1     -51.064  15.200  22.318  0.00  0.00    -0.644 OA
ENDBRANCH   1  16
TORSDOF 3
ENDMDL
MODEL 2
REMARK VINA RESULT:      -7.6      0.778      4.186
REMARK  3 active torsions:
REMARK  status: ('A' for Active; 'I' for Inactive)
REMARK    1  A    between atoms: C_6  and  C_1 
REMARK    2  A    between atoms: C_8  and  C_4 
REMARK    3  A    between atoms: O_17  and  C_14 
ROOT
ATOM      1  C   UNL d   1     -46.282  13.192  22.627  0.00  0.00     0.122 A 
ATOM      2  C   UNL d   1     -46.440  13.774  23.202  0.00  0.00     0.285 A 
ATOM      3  N   UNL d   1     -47.200  14.083  23.278  0.00  0.00    -0.208 NA
ATOM      4  C   UNL d   1     -47.802  13.815  22.785  0.00  0.00     0.085 A 
ATOM      5  C   UNL d   1     -46.885  12.924  22.133  0.00  0.00     0.013 A 
ATOM      6  C   UNL d   1     -47.645  13.239  22.216  0.00  0.00     0.020 A 
ATOM      7  O   UNL d   1     -45.829  14.042  23.697  0.00  0.00    -0.265 OA
ENDROOT
BRANCH   4   8
ATOM      8  C   UNL d   1     -48.566  14.124  22.860  0.00  0.00     0.018 A 
ATOM      9  C   UNL d   1     -49.177  13.638  23.135  0.00  0.00     0.004 A 
ATOM     10  C   UNL d   1     -49.936  13.947  23.210  0.00  0.00     0.024 A 
ATOM     11  C   UNL d   1     -50.083  14.734  23.010  0.00  0.00     0.094 A 
ATOM     12  C   UNL d   1     -49.467  15.213  22.736  0.00  0.00     0.024 A 
ATOM     13  C   UNL d   1     -48.708  14.903  22.662  0.00  0.00     0.004 A 
BRANCH  11  14
ATOM     14  O   UNL d   1     -50.851  15.043  23.087  0.00  0.00    -0.328 OA
ATOM     15  C   UNL d   1     -50.979  15.748  23.482  0.00  0.00     0.181 C 
ENDBRANCH  11  14
ENDBRANCH   4   8
BRANCH   1  16
ATOM     16  C   UNL d   1     -45.523  12.883  22.550  0.00  0.00     0.216 C 
ATOM     17  O   UNL d   1     -44.970  13.259  22.067  0.00  0.00    -0.644 OA
ATOM     18  O   UNL d   1     -45.308  12.194  22.957  0.00  0.00    -0.644 OA
ENDBRANCH   1  16
TORSDOF 3
ENDMDL
MODEL 3
REMARK VINA RESULT:      -7.4      0.994      1.077
REMARK  3 active torsions:
REMARK  status: ('A' for Active; 'I' for Inactive)
REMARK    1  A    between atoms: C_6  and  C_1 
REMARK    2  A    between atoms: C_8  and  C_4 
REMARK    3  A    between atoms: O_17  and  C_14 
ROOT
ATOM      1  C   UNL d   1     -49.550  14.828  22.786  0.00  0.00     0.122 A 
ATOM      2  C   UNL d   1     -49.652  14.024  22.979  0.00  0.00     0.285 A 
ATOM      3  N   UNL d   1     -48.996  13.535  23.074  0.00  0.00    -0.208 NA
ATOM      4  C   UNL d   1     -48.239  13.844  22.977  0.00  0.00     0.085 A 
ATOM      5  C   UNL d   1     -48.792  15.136  22.689  0.00  0.00     0.013 A 
ATOM      6  C   UNL d   1     -48.137  14.640  22.786  0.00  0.00     0.020 A 
ATOM      7  O   UNL d   1     -50.418  13.716  23.075  0.00  0.00    -0.265 OA
ENDROOT
BRANCH   4   8
ATOM      8  C   UNL d   1     -47.578  13.354  23.072  0.00  0.00     0.018 A 
ATOM      9  C   UNL d   1     -47.620  12.707  23.587  0.00  0.00     0.004 A 
ATOM     10  C   UNL d   1     -46.963  12.222  23.680  0.00  0.00     0.024 A 
ATOM     11  C   UNL d   1     -46.269  12.381  23.263  0.00  0.00     0.094 A 
ATOM     12  C   UNL d   1     -46.235  13.030  22.750  0.00  0.00     0.024 A 
ATOM     13  C   UNL d   1     -46.894  13.515  22.658  0.00  0.00     0.004 A 
BRANCH  11  14
ATOM     14  O   UNL d   1     -45.607  11.889  23.359  0.00  0.00    -0.328 OA
ATOM     15  C   UNL d   1     -45.701  11.093  23.527  0.00  0.00     0.181 C 
ENDBRANCH  11  14
ENDBRANCH   4   8
BRANCH   1  16
ATOM     16  C   UNL d   1     -50.206  15.316  22.691  0.00  0.00     0.216 C 
ATOM     17  O   UNL d   1     -50.352  15.922  23.232  0.00  0.00    -0.644 OA
ATOM     18  O   UNL d   1     -50.723  15.204  22.054  0.00  0.00    -0.644 OA
ENDBRANCH   1  16
TORSDOF 3
ENDMDL
MODEL 4
REMARK VINA RESULT:      -6.1      8.365      9.053
REMARK  3 active torsions:
REMARK  status: ('A' for Active; 'I' for Inactive)
REMARK    1  A    between atoms: C_6  and  C_1 
REMARK    2  A    between atoms: C_8  and  C_4 
REMARK    3  A    between atoms: O_17  and  C_14 
ROOT
ATOM      1  C   UNL d   1     -40.653  15.165  17.812  0.00  0.00     0.122 A 
ATOM      2  C   UNL d   1     -40.514  14.365  17.995  0.00  0.00     0.285 A 
ATOM      3  N   UNL d   1     -40.287  14.149  18.758  0.00  0.00    -0.208 NA
ATOM      4  C   UNL d   1     -40.200  14.727  19.337  0.00  0.00     0.085 A 
ATOM      5  C   UNL d   1     -40.565  15.743  18.392  0.00  0.00     0.013 A 
ATOM      6  C   UNL d   1     -40.338  15.520  19.155  0.00  0.00     0.020 A 
ATOM      7  O   UNL d   1     -40.604  13.784  17.407  0.00  0.00    -0.265 OA
ENDROOT
BRANCH   4   8
ATOM      8  C   UNL d   1     -39.972  14.513  20.103  0.00  0.00     0.018 A 
ATOM      9  C   UNL d   1     -40.550  14.425  20.690  0.00  0.00     0.004 A 
ATOM     10  C   UNL d   1     -40.322  14.212  21.451  0.00  0.00     0.024 A 
ATOM     11  C   UNL d   1     -39.525  14.087  21.625  0.00  0.00     0.094 A 
ATOM     12  C   UNL d   1     -38.955  14.177  21.032  0.00  0.00     0.024 A 
ATOM     13  C   UNL d   1     -39.183  14.390  20.271  0.00  0.00     0.004 A 
BRANCH  11  14
ATOM     14  O   UNL d   1     -39.299  13.872  22.395  0.00  0.00    -0.328 OA
ATOM     15  C   UNL d   1     -38.672  13.359  22.517  0.00  0.00     0.181 C 
ENDBRANCH  11  14
ENDBRANCH   4   8
BRANCH   1  16
ATOM     16  C   UNL d   1     -40.880  15.381  17.050  0.00  0.00     0.216 C 
ATOM     17  O   UNL d   1     -40.318  15.664  16.516  0.00  0.00    -0.644 OA
ATOM     18  O   UNL d   1     -41.671  15.316  16.814  0.00  0.00    -0.644 OA
ENDBRANCH   1  16
TORSDOF 3
ENDMDL
MODEL 5
REMARK VINA RESULT:      -5.6      8.624      9.460
REMARK  3 active torsions:
REMARK  status: ('A' for Active; 'I' for Inactive)
REMARK    1  A    between atoms: C_6  and  C_1 
REMARK    2  A    between atoms: C_8  and  C_4 
REMARK    3  A    between atoms: O_17  and  C_14 
ROOT
ATOM      1  C   UNL d   1     -39.424  14.283  21.258  0.00  0.00     0.122 A 
ATOM      2  C   UNL d   1     -38.882  14.330  20.626  0.00  0.00     0.285 A 
ATOM      3  N   UNL d   1     -39.146  14.522  19.869  0.00  0.00    -0.208 NA
ATOM      4  C   UNL d   1     -39.946  14.666  19.739  0.00  0.00     0.085 A 
ATOM      5  C   UNL d   1     -40.224  14.428  21.127  0.00  0.00     0.013 A 
ATOM      6  C   UNL d   1     -40.482  14.619  20.365  0.00  0.00     0.020 A 
ATOM      7  O   UNL d   1     -38.076  14.183  20.762  0.00  0.00    -0.265 OA
ENDROOT
BRANCH   4   8
ATOM      8  C   UNL d   1     -40.213  14.859  18.980  0.00  0.00     0.018 A 
ATOM      9  C   UNL d   1     -40.349  15.652  18.785  0.00  0.00     0.004 A 
ATOM     10  C   UNL d   1     -40.614  15.842  18.030  0.00  0.00     0.024 A 
ATOM     11  C   UNL d   1     -40.742  15.245  17.475  0.00  0.00     0.094 A 
ATOM     12  C   UNL d   1     -40.604  14.455  17.678  0.00  0.00     0.024 A 
ATOM     13  C   UNL d   1     -40.339  14.266  18.434  0.00  0.00     0.004 A 
BRANCH  11  14
ATOM     14  O   UNL d   1     -41.010  15.440  16.713  0.00  0.00    -0.328 OA
ATOM     15  C   UNL d   1     -41.665  15.922  16.612  0.00  0.00     0.181 C 
ENDBRANCH  11  14
ENDBRANCH   4   8
BRANCH   1  16
ATOM     16  C   UNL d   1     -39.161  14.091  22.014  0.00  0.00     0.216 C 
ATOM     17  O   UNL d   1     -39.019  14.688  22.566  0.00  0.00    -0.644 OA
ATOM     18  O   UNL d   1     -39.036  13.300  22.226  0.00  0.00    -0.644 OA
ENDBRANCH   1  16
TORSDOF 3
ENDMDL
MODEL 6
REMARK VINA RESULT:      -5.3      8.027      9.909
REMARK  3 active torsions:
REMARK  status: ('A' for Active; 'I' for Inactive)
REMARK    1  A    between atoms: C_6  and  C_1 
REMARK    2  A    between atoms: C_8  and  C_4 
REMARK    3  A    between atoms: O_17  and  C_14 
ROOT
ATOM      1  C   UNL d   1     -40.439  14.808  19.766  0.00  0.00     0.122 A 
ATOM      2  C   UNL d   1     -39.622  14.957  19.704  0.00  0.00     0.285 A 
ATOM      3  N   UNL d   1     -39.206  14.710  19.037  0.00  0.00    -0.208 NA
ATOM      4  C   UNL d   1     -39.601  14.316  18.431  0.00  0.00     0.085 A 
ATOM      5  C   UNL d   1     -40.834  14.414  19.159  0.00  0.00     0.013 A 
ATOM      6  C   UNL d   1     -40.410  14.169  18.492  0.00  0.00     0.020 A 
ATOM      7  O   UNL d   1     -39.227  15.355  20.317  0.00  0.00    -0.265 OA
ENDROOT
BRANCH   4   8
ATOM      8  C   UNL d   1     -39.185  14.068  17.761  0.00  0.00     0.018 A 
ATOM      9  C   UNL d   1     -39.133  14.570  17.104  0.00  0.00     0.004 A 
ATOM     10  C   UNL d   1     -38.719  14.321  16.438  0.00  0.00     0.024 A 
ATOM     11  C   UNL d   1     -38.361  13.578  16.428  0.00  0.00     0.094 A 
ATOM     12  C   UNL d   1     -38.418  13.082  17.088  0.00  0.00     0.024 A 
ATOM     13  C   UNL d   1     -38.832  13.332  17.754  0.00  0.00     0.004 A 
BRANCH  11  14
ATOM     14  O   UNL d   1     -37.944  13.330  15.753  0.00  0.00    -0.328 OA
ATOM     15  C   UNL d   1     -37.940  13.788  15.074  0.00  0.00     0.181 C 
ENDBRANCH  11  14
ENDBRANCH   4   8
BRANCH   1  16
ATOM     16  C   UNL d   1     -40.855  15.055  20.432  0.00  0.00     0.216 C 
ATOM     17  O   UNL d   1     -41.185  15.810  20.458  0.00  0.00    -0.644 OA
ATOM     18  O   UNL d   1     -40.945  14.547  21.081  0.00  0.00    -0.644 OA
ENDBRANCH   1  16
TORSDOF 3
ENDMDL
