MODEL 1
REMARK VINA RESULT:      -6.5      0.000      0.000
REMARK  4 active torsions:
REMARK  status: ('A' for Active; 'I' for Inactive)
REMARK    1  A    between atoms: C_2  and  S_1 
REMARK    2  A    between atoms: N_3  and  S_1 
REMARK    3  A    between atoms: C_14  and  N_3 
REMARK       I    between atoms: C_7  and  N_8 
REMARK    4  A    between atoms: N_8  and  C_15 
ROOT
ATOM      1  S   UNL d   1     -41.278-122.327 -52.119  0.00  0.00     0.285 S 
ATOM      2  O   UNL d   1     -41.351-121.511 -52.269  0.00  0.00    -0.198 OA
ATOM      3  O   UNL d   1     -41.203-123.137 -51.958  0.00  0.00    -0.198 OA
ENDROOT
BRANCH   1   4
ATOM      4  C   UNL d   1     -41.435-122.479 -52.930  0.00  0.00     0.105 A 
ATOM      5  C   UNL d   1     -41.874-121.968 -53.375  0.00  0.00     0.013 A 
ATOM      6  C   UNL d   1     -42.023-122.127 -54.171  0.00  0.00     0.001 A 
ATOM      7  C   UNL d   1     -42.488-121.573 -54.617  0.00  0.00     0.000 A 
ATOM      8  C   UNL d   1     -41.734-122.798 -54.529  0.00  0.00     0.000 A 
ATOM      9  C   UNL d   1     -42.652-121.705 -55.411  0.00  0.00     0.000 A 
ATOM     10  C   UNL d   1     -42.348-122.408 -55.780  0.00  0.00     0.000 A 
ATOM     11  C   UNL d   1     -41.891-122.949 -55.333  0.00  0.00     0.000 A 
ATOM     12  C   UNL d   1     -41.269-123.345 -54.065  0.00  0.00     0.001 A 
ATOM     13  C   UNL d   1     -41.132-123.167 -53.275  0.00  0.00     0.013 A 
ENDBRANCH   1   4
BRANCH   1  14
ATOM     14  N   UNL d   1     -41.123-122.165 -51.317  0.00  0.00    -0.158 NA
BRANCH  14  15
ATOM     15  C   UNL d   1     -41.580-122.531 -50.741  0.00  0.00     0.094 A 
ATOM     16  C   UNL d   1     -41.280-123.223 -50.416  0.00  0.00     0.021 A 
ATOM     17  C   UNL d   1     -41.726-123.618 -49.824  0.00  0.00     0.021 A 
ATOM     18  C   UNL d   1     -42.450-123.302 -49.586  0.00  0.00     0.085 A 
ATOM     19  C   UNL d   1     -42.724-122.605 -49.932  0.00  0.00     0.021 A 
ATOM     20  C   UNL d   1     -42.290-122.221 -50.507  0.00  0.00     0.021 A 
BRANCH  18  21
ATOM     21  N   UNL d   1     -42.900-123.703 -48.987  0.00  0.00    -0.208 NA
ATOM     22  C   UNL d   1     -42.898-123.414 -48.190  0.00  0.00     0.279 C 
ATOM     23  O   UNL d   1     -42.459-122.740 -47.982  0.00  0.00    -0.265 OA
ATOM     24  C   UNL d   1     -43.333-123.813 -47.637  0.00  0.00     0.068 C 
ENDBRANCH  18  21
ENDBRANCH  14  15
ENDBRANCH   1  14
TORSDOF 4
ENDMDL
