MODEL 1
REMARK VINA RESULT:      -2.9      0.000      0.000
REMARK  6 active torsions:
REMARK  status: ('A' for Active; 'I' for Inactive)
REMARK    1  A    between atoms: C_2  and  S_1 
REMARK    2  A    between atoms: N_4  and  S_1 
REMARK    3  A    between atoms: C_18  and  N_4 
REMARK    4  A    between atoms: O_20  and  C_6 
REMARK    5  A    between atoms: C_19  and  C_18 
REMARK    6  A    between atoms: C_24  and  O_20 
ROOT
ATOM      1  S   UNL d   1      31.856  17.054 -24.024  0.00  0.00     0.327 S 
ATOM      2  O   UNL d   1      31.713  16.851 -23.230  0.00  0.00    -0.186 OA
ATOM      3  O   UNL d   1      32.000  17.258 -24.812  0.00  0.00    -0.186 OA
ENDROOT
BRANCH   1   4
ATOM      4  C   UNL d   1      31.165  16.675 -24.249  0.00  0.00     0.118 A 
ATOM      5  C   UNL d   1      30.446  17.087 -24.271  0.00  0.00     0.039 A 
ATOM      6  C   UNL d   1      29.750  16.707 -24.497  0.00  0.00     0.101 A 
ATOM      7  C   UNL d   1      29.768  15.902 -24.705  0.00  0.00     0.023 A 
ATOM      8  C   UNL d   1      30.482  15.489 -24.685  0.00  0.00     0.003 A 
ATOM      9  C   UNL d   1      29.080  15.517 -24.931  0.00  0.00     0.002 C 
ATOM     10  C   UNL d   1      31.183  15.869 -24.457  0.00  0.00     0.013 A 
ATOM     11  C   UNL d   1      31.892  15.453 -24.438  0.00  0.00     0.001 C 
BRANCH   6  12
ATOM     12  O   UNL d   1      29.044  17.119 -24.517  0.00  0.00    -0.305 OA
BRANCH  12  13
ATOM     13  C   UNL d   1      29.003  17.829 -24.926  0.00  0.00     0.123 C 
ATOM     14  C   UNL d   1      28.443  18.391 -24.701  0.00  0.00     0.029 C 
ENDBRANCH  12  13
ENDBRANCH   6  12
ENDBRANCH   1   4
BRANCH   1  15
ATOM     15  N   UNL d   1      32.546  17.434 -23.802  0.00  0.00    -0.314 NA
BRANCH  15  16
ATOM     16  C   UNL d   1      33.240  17.820 -23.578  0.00  0.00     0.176 C 
BRANCH  16  17
ATOM     17  C   UNL d   1      33.217  18.597 -23.289  0.00  0.00     0.035 A 
ATOM     18  C   UNL d   1      33.169  18.739 -22.482  0.00  0.00     0.029 A 
ATOM     19  C   UNL d   1      33.145  19.513 -22.196  0.00  0.00     0.119 A 
ATOM     20  O   UNL d   1      33.099  19.817 -21.427  0.00  0.00    -0.300 OA
ATOM     21  C   UNL d   1      33.170  20.151 -22.729  0.00  0.00     0.119 A 
ATOM     22  C   UNL d   1      33.094  20.642 -21.487  0.00  0.00     0.304 A 
ATOM     23  O   UNL d   1      33.138  20.846 -22.287  0.00  0.00    -0.300 OA
ATOM     24  C   UNL d   1      33.218  20.006 -23.541  0.00  0.00     0.026 A 
ATOM     25  C   UNL d   1      33.241  19.235 -23.822  0.00  0.00     0.005 A 
ENDBRANCH  16  17
ENDBRANCH  15  16
ENDBRANCH   1  15
TORSDOF 6
ENDMDL
MODEL 2
REMARK VINA RESULT:      -1.0      1.650      5.156
REMARK  6 active torsions:
REMARK  status: ('A' for Active; 'I' for Inactive)
REMARK    1  A    between atoms: C_2  and  S_1 
REMARK    2  A    between atoms: N_4  and  S_1 
REMARK    3  A    between atoms: C_18  and  N_4 
REMARK    4  A    between atoms: O_20  and  C_6 
REMARK    5  A    between atoms: C_19  and  C_18 
REMARK    6  A    between atoms: C_24  and  O_20 
ROOT
ATOM      1  S   UNL d   1      33.061  20.044 -22.414  0.00  0.00     0.327 S 
ATOM      2  O   UNL d   1      32.881  19.536 -21.779  0.00  0.00    -0.186 OA
ATOM      3  O   UNL d   1      33.241  20.546 -23.046  0.00  0.00    -0.186 OA
ENDROOT
BRANCH   1   4
ATOM      4  C   UNL d   1      32.971  20.695 -21.924  0.00  0.00     0.118 A 
ATOM      5  C   UNL d   1      32.797  21.441 -22.241  0.00  0.00     0.039 A 
ATOM      6  C   UNL d   1      32.706  22.097 -21.750  0.00  0.00     0.101 A 
ATOM      7  C   UNL d   1      32.790  22.011 -20.927  0.00  0.00     0.023 A 
ATOM      8  C   UNL d   1      32.963  21.270 -20.607  0.00  0.00     0.003 A 
ATOM      9  C   UNL d   1      32.700  22.658 -20.432  0.00  0.00     0.002 C 
ATOM     10  C   UNL d   1      33.055  20.609 -21.100  0.00  0.00     0.013 A 
ATOM     11  C   UNL d   1      33.228  19.873 -20.777  0.00  0.00     0.001 C 
BRANCH   6  12
ATOM     12  O   UNL d   1      32.534  22.830 -22.069  0.00  0.00    -0.305 OA
BRANCH  12  13
ATOM     13  C   UNL d   1      32.543  22.926 -22.884  0.00  0.00     0.123 C 
ATOM     14  C   UNL d   1      32.524  23.688 -23.199  0.00  0.00     0.029 C 
ENDBRANCH  12  13
ENDBRANCH   6  12
ENDBRANCH   1   4
BRANCH   1  15
ATOM     15  N   UNL d   1      33.152  19.396 -22.905  0.00  0.00    -0.314 NA
BRANCH  15  16
ATOM     16  C   UNL d   1      33.241  18.744 -23.404  0.00  0.00     0.176 C 
BRANCH  16  17
ATOM     17  C   UNL d   1      32.577  18.361 -23.719  0.00  0.00     0.035 A 
ATOM     18  C   UNL d   1      32.276  17.687 -23.359  0.00  0.00     0.029 A 
ATOM     19  C   UNL d   1      31.614  17.307 -23.675  0.00  0.00     0.119 A 
ATOM     20  O   UNL d   1      31.198  16.632 -23.435  0.00  0.00    -0.300 OA
ATOM     21  C   UNL d   1      31.253  17.608 -24.361  0.00  0.00     0.119 A 
ATOM     22  C   UNL d   1      30.580  16.518 -23.973  0.00  0.00     0.304 A 
ATOM     23  O   UNL d   1      30.615  17.117 -24.541  0.00  0.00    -0.300 OA
ATOM     24  C   UNL d   1      31.558  18.285 -24.721  0.00  0.00     0.026 A 
ATOM     25  C   UNL d   1      32.215  18.662 -24.405  0.00  0.00     0.005 A 
ENDBRANCH  16  17
ENDBRANCH  15  16
ENDBRANCH   1  15
TORSDOF 6
ENDMDL
