MODEL 1
REMARK VINA RESULT:       8.7      0.000      0.000
REMARK  3 active torsions:
REMARK  status: ('A' for Active; 'I' for Inactive)
REMARK    1  A    between atoms: C_6  and  C_1 
REMARK    2  A    between atoms: O_9  and  C_6 
REMARK    3  A    between atoms: C_12  and  O_9 
ROOT
ATOM      1  C   UNL d   1     -51.425  24.624  33.327  0.00  0.00     0.089 A 
ATOM      2  C   UNL d   1     -50.594  24.595  33.330  0.00  0.00     0.138 A 
ATOM      3  S   UNL d   1     -50.322  25.352  33.328  0.00  0.00    -0.066 SA
ATOM      4  C   UNL d   1     -51.634  25.404  33.323  0.00  0.00     0.013 A 
ATOM      5  C   UNL d   1     -50.972  25.852  33.323  0.00  0.00     0.031 A 
ATOM      6  N   UNL d   1     -50.112  23.919  33.335  0.00  0.00    -0.141 N 
ATOM      7  C   UNL d   1     -52.391  25.752  33.319  0.00  0.00     0.001 A 
ATOM      8  C   UNL d   1     -51.024  26.684  33.319  0.00  0.00     0.006 A 
ATOM      9  C   UNL d   1     -52.438  26.586  33.315  0.00  0.00     0.000 A 
ATOM     10  C   UNL d   1     -51.775  27.017  33.315  0.00  0.00     0.001 A 
ENDROOT
BRANCH   1  11
ATOM     11  C   UNL d   1     -51.924  23.946  33.329  0.00  0.00     0.302 C 
ATOM     12  O   UNL d   1     -51.584  23.214  33.344  0.00  0.00    -0.259 OA
BRANCH  11  13
ATOM     13  O   UNL d   1     -52.714  24.057  33.315  0.00  0.00    -0.271 OA
BRANCH  13  14
ATOM     14  C   UNL d   1     -53.206  23.411  33.321  0.00  0.00     0.126 C 
ATOM     15  C   UNL d   1     -54.020  23.523  33.393  0.00  0.00     0.029 C 
ENDBRANCH  13  14
ENDBRANCH  11  13
ENDBRANCH   1  11
TORSDOF 3
ENDMDL
MODEL 2
REMARK VINA RESULT:       9.0      1.244      2.850
REMARK  3 active torsions:
REMARK  status: ('A' for Active; 'I' for Inactive)
REMARK    1  A    between atoms: C_6  and  C_1 
REMARK    2  A    between atoms: O_9  and  C_6 
REMARK    3  A    between atoms: C_12  and  O_9 
ROOT
ATOM      1  C   UNL d   1     -51.656  25.155  33.315  0.00  0.00     0.089 A 
ATOM      2  C   UNL d   1     -50.933  24.743  33.313  0.00  0.00     0.138 A 
ATOM      3  S   UNL d   1     -51.098  23.956  33.312  0.00  0.00    -0.066 SA
ATOM      4  C   UNL d   1     -52.243  24.600  33.316  0.00  0.00     0.013 A 
ATOM      5  C   UNL d   1     -51.914  23.871  33.314  0.00  0.00     0.031 A 
ATOM      6  N   UNL d   1     -50.168  25.066  33.312  0.00  0.00    -0.141 N 
ATOM      7  C   UNL d   1     -53.070  24.700  33.318  0.00  0.00     0.001 A 
ATOM      8  C   UNL d   1     -52.394  23.189  33.314  0.00  0.00     0.006 A 
ATOM      9  C   UNL d   1     -53.547  24.014  33.318  0.00  0.00     0.000 A 
ATOM     10  C   UNL d   1     -53.208  23.300  33.316  0.00  0.00     0.001 A 
ENDROOT
BRANCH   1  11
ATOM     11  C   UNL d   1     -51.725  25.993  33.317  0.00  0.00     0.302 C 
ATOM     12  O   UNL d   1     -52.462  26.321  33.329  0.00  0.00    -0.259 OA
BRANCH  11  13
ATOM     13  O   UNL d   1     -51.056  26.428  33.306  0.00  0.00    -0.271 OA
BRANCH  13  14
ATOM     14  C   UNL d   1     -51.098  27.224  33.462  0.00  0.00     0.126 C 
ATOM     15  C   UNL d   1     -50.429  27.694  33.354  0.00  0.00     0.029 C 
ENDBRANCH  13  14
ENDBRANCH  11  13
ENDBRANCH   1  11
TORSDOF 3
ENDMDL
