MODEL 1
REMARK VINA RESULT:      73.6      0.000      0.000
REMARK  9 active torsions:
REMARK  status: ('A' for Active; 'I' for Inactive)
REMARK    1  A    between atoms: C_19  and  N_1 
REMARK    2  A    between atoms: S_10  and  C_2 
REMARK    3  A    between atoms: N_8  and  C_9 
REMARK    4  A    between atoms: C_20  and  S_10 
REMARK    5  A    between atoms: C_11  and  C_20 
REMARK       I    between atoms: N_13  and  C_11 
REMARK    6  A    between atoms: C_15  and  N_13 
REMARK    7  A    between atoms: C_32  and  C_19 
REMARK    8  A    between atoms: O_25  and  C_22 
REMARK    9  A    between atoms: C_33  and  C_32 
ROOT
ATOM      1  N   UNL d   1      13.407  14.418  -4.251  0.00  0.00    -0.253 N 
ATOM      2  C   UNL d   1      13.785  15.146  -4.147  0.00  0.00     0.182 A 
ATOM      3  C   UNL d   1      13.470  13.835  -3.685  0.00  0.00     0.268 A 
ATOM      4  C   UNL d   1      13.919  13.980  -3.004  0.00  0.00     0.076 A 
ATOM      5  N   UNL d   1      14.228  15.291  -3.479  0.00  0.00    -0.222 NA
ATOM      6  C   UNL d   1      14.296  14.704  -2.902  0.00  0.00     0.088 A 
ATOM      7  C   UNL d   1      13.981  13.398  -2.442  0.00  0.00     0.024 A 
ATOM      8  C   UNL d   1      14.430  13.532  -1.752  0.00  0.00     0.065 A 
ATOM      9  O   UNL d   1      13.091  13.106  -3.788  0.00  0.00    -0.267 OA
ATOM     10  C   UNL d   1      14.739  14.848  -2.229  0.00  0.00     0.021 A 
ATOM     11  C   UNL d   1      14.804  14.264  -1.659  0.00  0.00     0.019 A 
ENDROOT
BRANCH   2  12
ATOM     12  S   UNL d   1      13.715  15.742  -4.735  0.00  0.00    -0.044 SA
BRANCH  12  13
ATOM     13  C   UNL d   1      14.328  16.278  -4.852  0.00  0.00     0.101 C 
BRANCH  13  14
ATOM     14  C   UNL d   1      14.207  16.947  -5.310  0.00  0.00     0.286 C 
ATOM     15  N   UNL d   1      14.277  17.687  -4.977  0.00  0.00    -0.207 NA
ATOM     16  O   UNL d   1      14.013  16.873  -6.108  0.00  0.00    -0.265 OA
BRANCH  15  17
ATOM     17  C   UNL d   1      14.155  18.369  -5.434  0.00  0.00     0.087 A 
ATOM     18  C   UNL d   1      14.697  18.987  -5.374  0.00  0.00     0.043 A 
ATOM     19  C   UNL d   1      14.575  19.669  -5.832  0.00  0.00     0.096 A 
ATOM     20  C   UNL d   1      13.928  19.724  -6.333  0.00  0.00     0.024 A 
ATOM     21  C   UNL d   1      13.392  19.099  -6.385  0.00  0.00     0.004 A 
ATOM     22  C   UNL d   1      13.509  18.425  -5.935  0.00  0.00     0.019 A 
BRANCH  19  23
ATOM     23  O   UNL d   1      15.121  20.301  -5.776  0.00  0.00    -0.328 OA
ATOM     24  C   UNL d   1      14.967  21.011  -6.144  0.00  0.00     0.181 C 
ENDBRANCH  19  23
ENDBRANCH  15  17
ENDBRANCH  13  14
ENDBRANCH  12  13
ENDBRANCH   2  12
BRANCH   1  25
ATOM     25  C   UNL d   1      12.957  14.284  -4.942  0.00  0.00     0.085 C 
BRANCH  25  26
ATOM     26  C   UNL d   1      13.342  14.136  -5.650  0.00  0.00     0.019 C 
BRANCH  26  27
ATOM     27  C   UNL d   1      13.426  13.360  -5.921  0.00  0.00     0.002 C 
ATOM     28  C   UNL d   1      12.861  12.791  -5.717  0.00  0.00     0.000 C 
ENDBRANCH  26  27
ENDBRANCH  25  26
ENDBRANCH   1  25
BRANCH   8  29
ATOM     29  N   UNL d   1      14.500  12.948  -1.174  0.00  0.00    -0.300 N 
ATOM     30  C   UNL d   1      15.246  12.627  -1.003  0.00  0.00     0.107 A 
ATOM     31  C   UNL d   1      15.304  12.042  -0.422  0.00  0.00     0.142 A 
ATOM     32  O   UNL d   1      14.627  11.779  -0.015  0.00  0.00    -0.300 OA
ATOM     33  C   UNL d   1      13.886  12.109  -0.196  0.00  0.00     0.142 A 
ATOM     34  C   UNL d   1      13.820  12.694  -0.776  0.00  0.00     0.107 A 
ENDBRANCH   8  29
TORSDOF 9
ENDMDL
MODEL 2
REMARK VINA RESULT:      75.1      1.540      6.482
REMARK  9 active torsions:
REMARK  status: ('A' for Active; 'I' for Inactive)
REMARK    1  A    between atoms: C_19  and  N_1 
REMARK    2  A    between atoms: S_10  and  C_2 
REMARK    3  A    between atoms: N_8  and  C_9 
REMARK    4  A    between atoms: C_20  and  S_10 
REMARK    5  A    between atoms: C_11  and  C_20 
REMARK       I    between atoms: N_13  and  C_11 
REMARK    6  A    between atoms: C_15  and  N_13 
REMARK    7  A    between atoms: C_32  and  C_19 
REMARK    8  A    between atoms: O_25  and  C_22 
REMARK    9  A    between atoms: C_33  and  C_32 
ROOT
ATOM      1  N   UNL d   1      15.296  16.393  -5.220  0.00  0.00    -0.253 N 
ATOM      2  C   UNL d   1      14.541  16.061  -5.278  0.00  0.00     0.182 A 
ATOM      3  C   UNL d   1      15.406  17.192  -5.330  0.00  0.00     0.268 A 
ATOM      4  C   UNL d   1      14.752  17.670  -5.501  0.00  0.00     0.076 A 
ATOM      5  N   UNL d   1      13.895  16.528  -5.446  0.00  0.00    -0.222 NA
ATOM      6  C   UNL d   1      14.000  17.340  -5.559  0.00  0.00     0.088 A 
ATOM      7  C   UNL d   1      14.863  18.467  -5.610  0.00  0.00     0.024 A 
ATOM      8  C   UNL d   1      14.211  18.958  -5.783  0.00  0.00     0.065 A 
ATOM      9  O   UNL d   1      16.162  17.525  -5.272  0.00  0.00    -0.267 OA
ATOM     10  C   UNL d   1      13.353  17.811  -5.728  0.00  0.00     0.021 A 
ATOM     11  C   UNL d   1      13.461  18.616  -5.839  0.00  0.00     0.019 A 
ENDROOT
BRANCH   2  12
ATOM     12  S   UNL d   1      14.436  15.235  -5.163  0.00  0.00    -0.044 SA
BRANCH  12  13
ATOM     13  C   UNL d   1      13.696  14.940  -4.955  0.00  0.00     0.101 C 
BRANCH  13  14
ATOM     14  C   UNL d   1      13.636  14.346  -4.393  0.00  0.00     0.286 C 
ATOM     15  N   UNL d   1      13.480  13.580  -4.625  0.00  0.00    -0.207 NA
ATOM     16  O   UNL d   1      13.731  14.521  -3.593  0.00  0.00    -0.265 OA
BRANCH  15  17
ATOM     17  C   UNL d   1      13.417  12.974  -4.062  0.00  0.00     0.087 A 
ATOM     18  C   UNL d   1      13.956  12.955  -3.440  0.00  0.00     0.043 A 
ATOM     19  C   UNL d   1      13.893  12.348  -2.877  0.00  0.00     0.096 A 
ATOM     20  C   UNL d   1      13.305  11.780  -2.941  0.00  0.00     0.024 A 
ATOM     21  C   UNL d   1      12.770  11.808  -3.569  0.00  0.00     0.004 A 
ATOM     22  C   UNL d   1      12.829  12.405  -4.126  0.00  0.00     0.019 A 
BRANCH  19  23
ATOM     23  O   UNL d   1      14.437  12.323  -2.241  0.00  0.00    -0.328 OA
ATOM     24  C   UNL d   1      14.218  12.585  -1.501  0.00  0.00     0.181 C 
ENDBRANCH  19  23
ENDBRANCH  15  17
ENDBRANCH  13  14
ENDBRANCH  12  13
ENDBRANCH   2  12
BRANCH   1  25
ATOM     25  C   UNL d   1      15.948  15.900  -5.047  0.00  0.00     0.085 C 
BRANCH  25  26
ATOM     26  C   UNL d   1      16.479  15.713  -5.642  0.00  0.00     0.019 C 
BRANCH  26  27
ATOM     27  C   UNL d   1      17.200  15.354  -5.455  0.00  0.00     0.002 C 
ATOM     28  C   UNL d   1      17.858  15.478  -5.942  0.00  0.00     0.000 C 
ENDBRANCH  26  27
ENDBRANCH  25  26
ENDBRANCH   1  25
BRANCH   8  29
ATOM     29  N   UNL d   1      14.313  19.768  -5.896  0.00  0.00    -0.300 N 
ATOM     30  C   UNL d   1      15.009  20.136  -5.631  0.00  0.00     0.107 A 
ATOM     31  C   UNL d   1      15.100  20.949  -5.750  0.00  0.00     0.142 A 
ATOM     32  O   UNL d   1      14.505  21.392  -6.127  0.00  0.00    -0.300 OA
ATOM     33  C   UNL d   1      13.814  21.012  -6.388  0.00  0.00     0.142 A 
ATOM     34  C   UNL d   1      13.715  20.199  -6.273  0.00  0.00     0.107 A 
ENDBRANCH   8  29
TORSDOF 9
ENDMDL
MODEL 3
REMARK VINA RESULT:      76.2      1.901      6.143
REMARK  9 active torsions:
REMARK  status: ('A' for Active; 'I' for Inactive)
REMARK    1  A    between atoms: C_19  and  N_1 
REMARK    2  A    between atoms: S_10  and  C_2 
REMARK    3  A    between atoms: N_8  and  C_9 
REMARK    4  A    between atoms: C_20  and  S_10 
REMARK    5  A    between atoms: C_11  and  C_20 
REMARK       I    between atoms: N_13  and  C_11 
REMARK    6  A    between atoms: C_15  and  N_13 
REMARK    7  A    between atoms: C_32  and  C_19 
REMARK    8  A    between atoms: O_25  and  C_22 
REMARK    9  A    between atoms: C_33  and  C_32 
ROOT
ATOM      1  N   UNL d   1      14.673  16.564  -2.814  0.00  0.00    -0.253 N 
ATOM      2  C   UNL d   1      14.439  15.946  -3.312  0.00  0.00     0.182 A 
ATOM      3  C   UNL d   1      14.822  17.306  -3.116  0.00  0.00     0.268 A 
ATOM      4  C   UNL d   1      14.738  17.434  -3.930  0.00  0.00     0.076 A 
ATOM      5  N   UNL d   1      14.355  16.070  -4.113  0.00  0.00    -0.222 NA
ATOM      6  C   UNL d   1      14.506  16.820  -4.426  0.00  0.00     0.088 A 
ATOM      7  C   UNL d   1      14.888  18.174  -4.229  0.00  0.00     0.024 A 
ATOM      8  C   UNL d   1      14.806  18.316  -5.048  0.00  0.00     0.065 A 
ATOM      9  O   UNL d   1      15.056  17.924  -2.617  0.00  0.00    -0.267 OA
ATOM     10  C   UNL d   1      14.422  16.946  -5.230  0.00  0.00     0.021 A 
ATOM     11  C   UNL d   1      14.572  17.691  -5.536  0.00  0.00     0.019 A 
ENDROOT
BRANCH   2  12
ATOM     12  S   UNL d   1      14.287  15.185  -2.993  0.00  0.00    -0.044 SA
BRANCH  12  13
ATOM     13  C   UNL d   1      13.521  14.884  -2.996  0.00  0.00     0.101 C 
BRANCH  13  14
ATOM     14  C   UNL d   1      13.372  14.144  -3.318  0.00  0.00     0.286 C 
ATOM     15  N   UNL d   1      13.539  14.000  -4.102  0.00  0.00    -0.207 NA
ATOM     16  O   UNL d   1      13.054  13.545  -2.849  0.00  0.00    -0.265 OA
BRANCH  15  17
ATOM     17  C   UNL d   1      13.392  13.254  -4.435  0.00  0.00     0.087 A 
ATOM     18  C   UNL d   1      13.731  13.072  -5.163  0.00  0.00     0.043 A 
ATOM     19  C   UNL d   1      13.583  12.326  -5.495  0.00  0.00     0.096 A 
ATOM     20  C   UNL d   1      13.109  11.782  -5.105  0.00  0.00     0.024 A 
ATOM     21  C   UNL d   1      12.775  11.975  -4.375  0.00  0.00     0.004 A 
ATOM     22  C   UNL d   1      12.918  12.710  -4.044  0.00  0.00     0.019 A 
BRANCH  19  23
ATOM     23  O   UNL d   1      13.924  12.134  -6.235  0.00  0.00    -0.328 OA
ATOM     24  C   UNL d   1      14.711  12.289  -6.377  0.00  0.00     0.181 C 
ENDBRANCH  19  23
ENDBRANCH  15  17
ENDBRANCH  13  14
ENDBRANCH  12  13
ENDBRANCH   2  12
BRANCH   1  25
ATOM     25  C   UNL d   1      14.754  16.421  -1.995  0.00  0.00     0.085 C 
BRANCH  25  26
ATOM     26  C   UNL d   1      15.430  16.676  -1.608  0.00  0.00     0.019 C 
BRANCH  26  27
ATOM     27  C   UNL d   1      15.474  16.638  -0.784  0.00  0.00     0.002 C 
ATOM     28  C   UNL d   1      15.748  15.947  -0.419  0.00  0.00     0.000 C 
ENDBRANCH  26  27
ENDBRANCH  25  26
ENDBRANCH   1  25
BRANCH   8  29
ATOM     29  N   UNL d   1      14.955  19.063  -5.362  0.00  0.00    -0.300 N 
ATOM     30  C   UNL d   1      15.734  19.280  -5.553  0.00  0.00     0.107 A 
ATOM     31  C   UNL d   1      15.871  20.032  -5.868  0.00  0.00     0.142 A 
ATOM     32  O   UNL d   1      15.242  20.562  -5.993  0.00  0.00    -0.300 OA
ATOM     33  C   UNL d   1      14.468  20.332  -5.798  0.00  0.00     0.142 A 
ATOM     34  C   UNL d   1      14.322  19.582  -5.482  0.00  0.00     0.107 A 
ENDBRANCH   8  29
TORSDOF 9
ENDMDL
