MODEL 1
REMARK VINA RESULT:      -4.5      0.000      0.000
REMARK  3 active torsions:
REMARK  status: ('A' for Active; 'I' for Inactive)
REMARK    1  A    between atoms: C_9  and  N_1 
REMARK    2  A    between atoms: C_7  and  C_9 
REMARK    3  A    between atoms: C_8  and  C_7 
ROOT
ATOM      1  N   UNL d   1      56.039  -0.439  32.746  0.00  0.00    -0.190 N 
ATOM      2  N   UNL d   1      56.375   0.193  32.335  0.00  0.00    -0.120 NA
ATOM      3  C   UNL d   1      56.233  -1.213  32.544  0.00  0.00     0.281 A 
ATOM      4  C   UNL d   1      56.906   0.051  31.721  0.00  0.00     0.296 A 
ATOM      5  C   UNL d   1      56.761  -1.354  31.932  0.00  0.00     0.068 A 
ATOM      6  C   UNL d   1      57.098  -0.722  31.521  0.00  0.00     0.069 A 
ATOM      7  O   UNL d   1      55.896  -1.845  32.955  0.00  0.00    -0.265 OA
ATOM      8  O   UNL d   1      57.243   0.682  31.310  0.00  0.00    -0.264 OA
ENDROOT
BRANCH   1   9
ATOM      9  C   UNL d   1      55.507  -0.293  33.363  0.00  0.00     0.110 C 
BRANCH   9  10
ATOM     10  C   UNL d   1      55.458   0.466  33.689  0.00  0.00     0.091 C 
BRANCH  10  11
ATOM     11  C   UNL d   1      54.986   0.592  34.353  0.00  0.00     0.213 C 
ATOM     12  O   UNL d   1      54.168   0.682  34.277  0.00  0.00    -0.644 OA
ATOM     13  O   UNL d   1      55.334   0.628  35.102  0.00  0.00    -0.644 OA
ENDBRANCH  10  11
ENDBRANCH   9  10
ENDBRANCH   1   9
TORSDOF 3
ENDMDL
MODEL 2
REMARK VINA RESULT:      -4.3      0.793      2.946
REMARK  3 active torsions:
REMARK  status: ('A' for Active; 'I' for Inactive)
REMARK    1  A    between atoms: C_9  and  N_1 
REMARK    2  A    between atoms: C_7  and  C_9 
REMARK    3  A    between atoms: C_8  and  C_7 
ROOT
ATOM      1  N   UNL d   1      56.381  -0.422  32.536  0.00  0.00    -0.190 N 
ATOM      2  N   UNL d   1      56.110   0.199  33.007  0.00  0.00    -0.120 NA
ATOM      3  C   UNL d   1      56.080  -1.181  32.640  0.00  0.00     0.281 A 
ATOM      4  C   UNL d   1      55.537   0.061  33.584  0.00  0.00     0.296 A 
ATOM      5  C   UNL d   1      55.509  -1.317  33.214  0.00  0.00     0.068 A 
ATOM      6  C   UNL d   1      55.238  -0.697  33.685  0.00  0.00     0.069 A 
ATOM      7  O   UNL d   1      56.351  -1.803  32.169  0.00  0.00    -0.265 OA
ATOM      8  O   UNL d   1      55.266   0.682  34.055  0.00  0.00    -0.264 OA
ENDROOT
BRANCH   1   9
ATOM      9  C   UNL d   1      56.957  -0.281  31.959  0.00  0.00     0.110 C 
BRANCH   9  10
ATOM     10  C   UNL d   1      57.036   0.478  31.639  0.00  0.00     0.091 C 
BRANCH  10  11
ATOM     11  C   UNL d   1      57.595   0.612  31.047  0.00  0.00     0.213 C 
ATOM     12  O   UNL d   1      58.397   0.681  31.233  0.00  0.00    -0.644 OA
ATOM     13  O   UNL d   1      57.349   0.678  30.261  0.00  0.00    -0.644 OA
ENDBRANCH  10  11
ENDBRANCH   9  10
ENDBRANCH   1   9
TORSDOF 3
ENDMDL
MODEL 3
REMARK VINA RESULT:      -3.7      1.503      2.360
REMARK  3 active torsions:
REMARK  status: ('A' for Active; 'I' for Inactive)
REMARK    1  A    between atoms: C_9  and  N_1 
REMARK    2  A    between atoms: C_7  and  C_9 
REMARK    3  A    between atoms: C_8  and  C_7 
ROOT
ATOM      1  N   UNL d   1      57.388   0.090  31.723  0.00  0.00    -0.190 N 
ATOM      2  N   UNL d   1      57.275  -0.106  30.930  0.00  0.00    -0.120 NA
ATOM      3  C   UNL d   1      58.072   0.485  31.958  0.00  0.00     0.281 A 
ATOM      4  C   UNL d   1      57.846   0.093  30.369  0.00  0.00     0.296 A 
ATOM      5  C   UNL d   1      58.640   0.682  31.399  0.00  0.00     0.068 A 
ATOM      6  C   UNL d   1      58.527   0.486  30.606  0.00  0.00     0.069 A 
ATOM      7  O   UNL d   1      58.185   0.681  32.752  0.00  0.00    -0.265 OA
ATOM      8  O   UNL d   1      57.733  -0.103  29.576  0.00  0.00    -0.264 OA
ENDROOT
BRANCH   1   9
ATOM      9  C   UNL d   1      56.814  -0.110  32.284  0.00  0.00     0.110 C 
BRANCH   9  10
ATOM     10  C   UNL d   1      56.365  -0.799  32.180  0.00  0.00     0.091 C 
BRANCH  10  11
ATOM     11  C   UNL d   1      55.926  -1.095  32.813  0.00  0.00     0.213 C 
ATOM     12  O   UNL d   1      55.457  -0.593  33.271  0.00  0.00    -0.644 OA
ATOM     13  O   UNL d   1      55.956  -1.902  32.988  0.00  0.00    -0.644 OA
ENDBRANCH  10  11
ENDBRANCH   9  10
ENDBRANCH   1   9
TORSDOF 3
ENDMDL
MODEL 4
REMARK VINA RESULT:      -3.7      1.179      3.206
REMARK  3 active torsions:
REMARK  status: ('A' for Active; 'I' for Inactive)
REMARK    1  A    between atoms: C_9  and  N_1 
REMARK    2  A    between atoms: C_7  and  C_9 
REMARK    3  A    between atoms: C_8  and  C_7 
ROOT
ATOM      1  N   UNL d   1      56.458   0.298  33.143  0.00  0.00    -0.190 N 
ATOM      2  N   UNL d   1      55.637   0.227  33.114  0.00  0.00    -0.120 NA
ATOM      3  C   UNL d   1      56.829   0.526  33.842  0.00  0.00     0.281 A 
ATOM      4  C   UNL d   1      55.184   0.384  33.785  0.00  0.00     0.296 A 
ATOM      5  C   UNL d   1      56.377   0.681  34.510  0.00  0.00     0.068 A 
ATOM      6  C   UNL d   1      55.556   0.610  34.481  0.00  0.00     0.069 A 
ATOM      7  O   UNL d   1      57.651   0.597  33.871  0.00  0.00    -0.265 OA
ATOM      8  O   UNL d   1      54.363   0.313  33.756  0.00  0.00    -0.264 OA
ENDROOT
BRANCH   1   9
ATOM      9  C   UNL d   1      56.910   0.141  32.468  0.00  0.00     0.110 C 
BRANCH   9  10
ATOM     10  C   UNL d   1      56.605  -0.354  31.879  0.00  0.00     0.091 C 
BRANCH  10  11
ATOM     11  C   UNL d   1      57.052  -0.501  31.201  0.00  0.00     0.213 C 
ATOM     12  O   UNL d   1      57.263  -1.273  30.996  0.00  0.00    -0.644 OA
ATOM     13  O   UNL d   1      57.290   0.129  30.724  0.00  0.00    -0.644 OA
ENDBRANCH  10  11
ENDBRANCH   9  10
ENDBRANCH   1   9
TORSDOF 3
ENDMDL
MODEL 5
REMARK VINA RESULT:      -3.6      1.608      3.450
REMARK  3 active torsions:
REMARK  status: ('A' for Active; 'I' for Inactive)
REMARK    1  A    between atoms: C_9  and  N_1 
REMARK    2  A    between atoms: C_7  and  C_9 
REMARK    3  A    between atoms: C_8  and  C_7 
ROOT
ATOM      1  N   UNL d   1      56.970  -0.350  32.150  0.00  0.00    -0.190 N 
ATOM      2  N   UNL d   1      56.471  -0.999  32.047  0.00  0.00    -0.120 NA
ATOM      3  C   UNL d   1      57.006   0.032  32.880  0.00  0.00     0.281 A 
ATOM      4  C   UNL d   1      56.006  -1.267  32.673  0.00  0.00     0.296 A 
ATOM      5  C   UNL d   1      56.543  -0.236  33.502  0.00  0.00     0.068 A 
ATOM      6  C   UNL d   1      56.044  -0.885  33.398  0.00  0.00     0.069 A 
ATOM      7  O   UNL d   1      57.505   0.682  32.983  0.00  0.00    -0.265 OA
ATOM      8  O   UNL d   1      55.507  -1.916  32.570  0.00  0.00    -0.264 OA
ENDROOT
BRANCH   1   9
ATOM      9  C   UNL d   1      57.435  -0.082  31.520  0.00  0.00     0.110 C 
BRANCH   9  10
ATOM     10  C   UNL d   1      57.421  -0.491  30.800  0.00  0.00     0.091 C 
BRANCH  10  11
ATOM     11  C   UNL d   1      57.862  -0.206  30.164  0.00  0.00     0.213 C 
ATOM     12  O   UNL d   1      57.584   0.425  29.709  0.00  0.00    -0.644 OA
ATOM     13  O   UNL d   1      58.587  -0.555  29.981  0.00  0.00    -0.644 OA
ENDBRANCH  10  11
ENDBRANCH   9  10
ENDBRANCH   1   9
TORSDOF 3
ENDMDL
MODEL 6
REMARK VINA RESULT:      -3.1      8.861      9.968
REMARK  3 active torsions:
REMARK  status: ('A' for Active; 'I' for Inactive)
REMARK    1  A    between atoms: C_9  and  N_1 
REMARK    2  A    between atoms: C_7  and  C_9 
REMARK    3  A    between atoms: C_8  and  C_7 
ROOT
ATOM      1  N   UNL d   1      59.754  -8.719  35.003  0.00  0.00    -0.190 N 
ATOM      2  N   UNL d   1      60.117  -7.978  35.004  0.00  0.00    -0.120 NA
ATOM      3  C   UNL d   1      59.340  -8.977  35.667  0.00  0.00     0.281 A 
ATOM      4  C   UNL d   1      60.068  -7.494  35.670  0.00  0.00     0.296 A 
ATOM      5  C   UNL d   1      59.291  -8.494  36.328  0.00  0.00     0.068 A 
ATOM      6  C   UNL d   1      59.655  -7.754  36.330  0.00  0.00     0.069 A 
ATOM      7  O   UNL d   1      58.976  -9.718  35.665  0.00  0.00    -0.265 OA
ATOM      8  O   UNL d   1      60.431  -6.754  35.671  0.00  0.00    -0.264 OA
ENDROOT
BRANCH   1   9
ATOM      9  C   UNL d   1      59.805  -9.203  34.333  0.00  0.00     0.110 C 
BRANCH   9  10
ATOM     10  C   UNL d   1      60.401  -9.065  33.775  0.00  0.00     0.091 C 
BRANCH  10  11
ATOM     11  C   UNL d   1      60.390  -9.477  33.061  0.00  0.00     0.213 C 
ATOM     12  O   UNL d   1      61.095  -9.699  32.692  0.00  0.00    -0.644 OA
ATOM     13  O   UNL d   1      59.666  -9.669  32.712  0.00  0.00    -0.644 OA
ENDBRANCH  10  11
ENDBRANCH   9  10
ENDBRANCH   1   9
TORSDOF 3
ENDMDL
MODEL 7
REMARK VINA RESULT:      -2.6      4.411      5.466
REMARK  3 active torsions:
REMARK  status: ('A' for Active; 'I' for Inactive)
REMARK    1  A    between atoms: C_9  and  N_1 
REMARK    2  A    between atoms: C_7  and  C_9 
REMARK    3  A    between atoms: C_8  and  C_7 
ROOT
ATOM      1  N   UNL d   1      59.434  -1.842  29.083  0.00  0.00    -0.190 N 
ATOM      2  N   UNL d   1      58.829  -2.403  29.056  0.00  0.00    -0.120 NA
ATOM      3  C   UNL d   1      60.218  -2.075  28.978  0.00  0.00     0.281 A 
ATOM      4  C   UNL d   1      59.006  -3.197  28.926  0.00  0.00     0.296 A 
ATOM      5  C   UNL d   1      60.393  -2.866  28.848  0.00  0.00     0.068 A 
ATOM      6  C   UNL d   1      59.788  -3.427  28.822  0.00  0.00     0.069 A 
ATOM      7  O   UNL d   1      60.823  -1.514  29.005  0.00  0.00    -0.265 OA
ATOM      8  O   UNL d   1      58.401  -3.758  28.899  0.00  0.00    -0.264 OA
ENDROOT
BRANCH   1   9
ATOM      9  C   UNL d   1      59.254  -1.046  29.214  0.00  0.00     0.110 C 
BRANCH   9  10
ATOM     10  C   UNL d   1      58.516  -0.841  29.530  0.00  0.00     0.091 C 
BRANCH  10  11
ATOM     11  C   UNL d   1      58.329  -0.046  29.640  0.00  0.00     0.213 C 
ATOM     12  O   UNL d   1      58.517   0.336  30.348  0.00  0.00    -0.644 OA
ATOM     13  O   UNL d   1      57.951   0.373  29.037  0.00  0.00    -0.644 OA
ENDBRANCH  10  11
ENDBRANCH   9  10
ENDBRANCH   1   9
TORSDOF 3
ENDMDL
MODEL 8
REMARK VINA RESULT:      -2.6      2.767      3.956
REMARK  3 active torsions:
REMARK  status: ('A' for Active; 'I' for Inactive)
REMARK    1  A    between atoms: C_9  and  N_1 
REMARK    2  A    between atoms: C_7  and  C_9 
REMARK    3  A    between atoms: C_8  and  C_7 
ROOT
ATOM      1  N   UNL d   1      58.462   0.392  29.928  0.00  0.00    -0.190 N 
ATOM      2  N   UNL d   1      59.170   0.418  30.351  0.00  0.00    -0.120 NA
ATOM      3  C   UNL d   1      58.464   0.511  29.113  0.00  0.00     0.281 A 
ATOM      4  C   UNL d   1      59.881   0.563  29.960  0.00  0.00     0.296 A 
ATOM      5  C   UNL d   1      59.172   0.656  28.725  0.00  0.00     0.068 A 
ATOM      6  C   UNL d   1      59.880   0.682  29.148  0.00  0.00     0.069 A 
ATOM      7  O   UNL d   1      57.755   0.485  28.690  0.00  0.00    -0.265 OA
ATOM      8  O   UNL d   1      60.589   0.590  30.383  0.00  0.00    -0.264 OA
ENDROOT
BRANCH   1   9
ATOM      9  C   UNL d   1      57.750   0.245  30.324  0.00  0.00     0.110 C 
BRANCH   9  10
ATOM     10  C   UNL d   1      57.765  -0.087  31.082  0.00  0.00     0.091 C 
BRANCH  10  11
ATOM     11  C   UNL d   1      57.055  -0.273  31.457  0.00  0.00     0.213 C 
ATOM     12  O   UNL d   1      56.775  -1.050  31.466  0.00  0.00    -0.644 OA
ATOM     13  O   UNL d   1      56.619   0.324  31.826  0.00  0.00    -0.644 OA
ENDBRANCH  10  11
ENDBRANCH   9  10
ENDBRANCH   1   9
TORSDOF 3
ENDMDL
MODEL 9
REMARK VINA RESULT:      -2.5      3.797      5.234
REMARK  3 active torsions:
REMARK  status: ('A' for Active; 'I' for Inactive)
REMARK    1  A    between atoms: C_9  and  N_1 
REMARK    2  A    between atoms: C_7  and  C_9 
REMARK    3  A    between atoms: C_8  and  C_7 
ROOT
ATOM      1  N   UNL d   1      58.553  -0.962  29.544  0.00  0.00    -0.190 N 
ATOM      2  N   UNL d   1      59.022  -0.552  29.003  0.00  0.00    -0.120 NA
ATOM      3  C   UNL d   1      58.085  -0.548  30.081  0.00  0.00     0.281 A 
ATOM      4  C   UNL d   1      59.023   0.272  28.997  0.00  0.00     0.296 A 
ATOM      5  C   UNL d   1      58.087   0.272  30.075  0.00  0.00     0.068 A 
ATOM      6  C   UNL d   1      58.555   0.682  29.533  0.00  0.00     0.069 A 
ATOM      7  O   UNL d   1      57.616  -0.959  30.624  0.00  0.00    -0.265 OA
ATOM      8  O   UNL d   1      59.491   0.682  28.455  0.00  0.00    -0.264 OA
ENDROOT
BRANCH   1   9
ATOM      9  C   UNL d   1      58.554  -1.790  29.548  0.00  0.00     0.110 C 
BRANCH   9  10
ATOM     10  C   UNL d   1      59.003  -2.199  28.986  0.00  0.00     0.091 C 
BRANCH  10  11
ATOM     11  C   UNL d   1      59.070  -3.020  29.041  0.00  0.00     0.213 C 
ATOM     12  O   UNL d   1      58.435  -3.508  28.839  0.00  0.00    -0.644 OA
ATOM     13  O   UNL d   1      59.779  -3.355  29.300  0.00  0.00    -0.644 OA
ENDBRANCH  10  11
ENDBRANCH   9  10
ENDBRANCH   1   9
TORSDOF 3
ENDMDL
