MODEL 1
REMARK VINA RESULT:      77.5      0.000      0.000
REMARK  4 active torsions:
REMARK  status: ('A' for Active; 'I' for Inactive)
REMARK    1  A    between atoms: C_9  and  N_1 
REMARK    2  A    between atoms: S_10  and  C_6 
REMARK    3  A    between atoms: C_16  and  S_10 
REMARK    4  A    between atoms: C_15  and  C_16 
ROOT
ATOM      1  N   UNL d   1      60.692  47.152  50.228  0.00  0.00    -0.212 N 
ATOM      2  C   UNL d   1      60.872  47.928  50.428  0.00  0.00     0.169 A 
ATOM      3  N   UNL d   1      59.895  47.037  50.314  0.00  0.00    -0.162 NA
ATOM      4  C   UNL d   1      60.168  48.299  50.644  0.00  0.00     0.081 A 
ATOM      5  C   UNL d   1      59.561  47.749  50.574  0.00  0.00     0.126 A 
ATOM      6  C   UNL d   1      60.173  49.088  50.875  0.00  0.00     0.117 A 
ATOM      7  N   UNL d   1      61.581  48.344  50.443  0.00  0.00    -0.205 NA
ATOM      8  N   UNL d   1      60.883  49.509  50.891  0.00  0.00    -0.217 NA
ATOM      9  C   UNL d   1      61.587  49.137  50.675  0.00  0.00     0.201 A 
ENDROOT
BRANCH   6  10
ATOM     10  S   UNL d   1      59.469  49.460  51.091  0.00  0.00    -0.067 SA
BRANCH  10  11
ATOM     11  C   UNL d   1      58.940  49.698  50.517  0.00  0.00     0.038 C 
BRANCH  11  12
ATOM     12  C   UNL d   1      58.130  49.685  50.671  0.00  0.00     0.026 A 
ATOM     13  C   UNL d   1      57.858  49.705  51.450  0.00  0.00     0.099 A 
ATOM     14  N   UNL d   1      57.047  49.692  51.605  0.00  0.00    -0.242 NA
ATOM     15  C   UNL d   1      56.500  49.660  50.981  0.00  0.00     0.099 A 
ATOM     16  C   UNL d   1      56.781  49.641  50.201  0.00  0.00     0.021 A 
ATOM     17  C   UNL d   1      57.591  49.653  50.046  0.00  0.00     0.004 A 
ENDBRANCH  11  12
ENDBRANCH  10  11
ENDBRANCH   6  10
BRANCH   1  18
ATOM     18  C   UNL d   1      61.294  46.635  49.984  0.00  0.00     0.085 A 
ATOM     19  C   UNL d   1      61.873  46.896  49.462  0.00  0.00     0.021 A 
ATOM     20  C   UNL d   1      62.467  46.388  49.221  0.00  0.00     0.031 A 
ATOM     21  C   UNL d   1      62.491  45.610  49.500  0.00  0.00     0.140 A 
ATOM     22  C   UNL d   1      61.898  45.355  50.030  0.00  0.00     0.031 A 
ATOM     23  F   UNL d   1      63.093  45.092  49.257  0.00  0.00    -0.204 F 
ATOM     24  C   UNL d   1      61.310  45.867  50.266  0.00  0.00     0.021 A 
ENDBRANCH   1  18
TORSDOF 4
ENDMDL
MODEL 2
REMARK VINA RESULT:      78.5      0.947      1.384
REMARK  4 active torsions:
REMARK  status: ('A' for Active; 'I' for Inactive)
REMARK    1  A    between atoms: C_9  and  N_1 
REMARK    2  A    between atoms: S_10  and  C_6 
REMARK    3  A    between atoms: C_16  and  S_10 
REMARK    4  A    between atoms: C_15  and  C_16 
ROOT
ATOM      1  N   UNL d   1      61.060  46.455  50.664  0.00  0.00    -0.212 N 
ATOM      2  C   UNL d   1      61.187  47.235  50.441  0.00  0.00     0.169 A 
ATOM      3  N   UNL d   1      60.625  46.444  51.347  0.00  0.00    -0.162 NA
ATOM      4  C   UNL d   1      60.820  47.717  51.001  0.00  0.00     0.081 A 
ATOM      5  C   UNL d   1      60.471  47.229  51.564  0.00  0.00     0.126 A 
ATOM      6  C   UNL d   1      60.852  48.535  50.925  0.00  0.00     0.117 A 
ATOM      7  N   UNL d   1      61.585  47.570  49.805  0.00  0.00    -0.205 NA
ATOM      8  N   UNL d   1      61.252  48.874  50.288  0.00  0.00    -0.217 NA
ATOM      9  C   UNL d   1      61.618  48.392  49.727  0.00  0.00     0.201 A 
ENDROOT
BRANCH   6  10
ATOM     10  S   UNL d   1      60.485  49.017  51.485  0.00  0.00    -0.067 SA
BRANCH  10  11
ATOM     11  C   UNL d   1      60.111  49.702  51.251  0.00  0.00     0.038 C 
BRANCH  11  12
ATOM     12  C   UNL d   1      59.296  49.703  51.121  0.00  0.00     0.026 A 
ATOM     13  C   UNL d   1      59.001  49.704  50.350  0.00  0.00     0.099 A 
ATOM     14  N   UNL d   1      58.186  49.705  50.220  0.00  0.00    -0.242 NA
ATOM     15  C   UNL d   1      57.658  49.706  50.860  0.00  0.00     0.099 A 
ATOM     16  C   UNL d   1      57.961  49.706  51.632  0.00  0.00     0.021 A 
ATOM     17  C   UNL d   1      58.776  49.704  51.762  0.00  0.00     0.004 A 
ENDBRANCH  11  12
ENDBRANCH  10  11
ENDBRANCH   6  10
BRANCH   1  18
ATOM     18  C   UNL d   1      61.366  45.836  50.203  0.00  0.00     0.085 A 
ATOM     19  C   UNL d   1      61.272  45.057  50.447  0.00  0.00     0.021 A 
ATOM     20  C   UNL d   1      61.572  44.445  49.995  0.00  0.00     0.031 A 
ATOM     21  C   UNL d   1      61.973  44.605  49.290  0.00  0.00     0.140 A 
ATOM     22  C   UNL d   1      62.064  45.400  49.051  0.00  0.00     0.031 A 
ATOM     23  F   UNL d   1      62.280  43.987  48.828  0.00  0.00    -0.204 F 
ATOM     24  C   UNL d   1      61.761  46.004  49.507  0.00  0.00     0.021 A 
ENDBRANCH   1  18
TORSDOF 4
ENDMDL
