MODEL 1
REMARK VINA RESULT:      41.8      0.000      0.000
REMARK  4 active torsions:
REMARK  status: ('A' for Active; 'I' for Inactive)
REMARK    1  A    between atoms: C_2  and  S_1 
REMARK    2  A    between atoms: N_9  and  S_1 
REMARK    3  A    between atoms: C_18  and  N_9 
REMARK    4  A    between atoms: C_19  and  N_9 
ROOT
ATOM      1  C   UNL d   1     -57.772 -98.917 -43.916  0.00  0.00     0.104 A 
ATOM      2  C   UNL d   1     -55.273 -98.857 -45.078  0.00  0.00     0.225 A 
ATOM      3  S   UNL d   1     -55.335 -98.940 -43.994  0.00  0.00    -0.046 SA
ATOM      4  C   UNL d   1     -56.512 -98.879 -44.601  0.00  0.00     0.010 A 
ATOM      5  C   UNL d   1     -56.126 -98.942 -43.850  0.00  0.00     0.033 A 
ATOM      6  C   UNL d   1     -57.335 -98.866 -44.639  0.00  0.00     0.013 A 
ATOM      7  C   UNL d   1     -56.071 -98.831 -45.287  0.00  0.00     0.046 A 
ATOM      8  C   UNL d   1     -57.401 -98.977 -43.196  0.00  0.00     0.013 A 
ATOM      9  C   UNL d   1     -56.577 -98.989 -43.168  0.00  0.00     0.007 A 
ATOM     10  O   UNL d   1     -54.725 -98.815 -45.708  0.00  0.00    -0.279 OA
ATOM     11  C   UNL d   1     -57.721 -98.803 -45.390  0.00  0.00     0.001 A 
ATOM     12  C   UNL d   1     -56.458 -98.768 -46.038  0.00  0.00     0.004 A 
ATOM     13  C   UNL d   1     -57.270 -98.756 -46.073  0.00  0.00     0.000 A 
ENDROOT
BRANCH   1  14
ATOM     14  S   UNL d   1     -58.615 -98.905 -43.936  0.00  0.00     0.271 S 
ATOM     15  O   UNL d   1     -58.566 -99.024 -44.754  0.00  0.00    -0.200 OA
ATOM     16  O   UNL d   1     -58.641 -98.783 -43.090  0.00  0.00    -0.200 OA
BRANCH  14  17
ATOM     17  N   UNL d   1     -59.465 -98.892 -43.944  0.00  0.00    -0.229 N 
BRANCH  17  18
ATOM     18  C   UNL d   1     -59.826 -98.755 -43.209  0.00  0.00     0.092 C 
ATOM     19  C   UNL d   1     -59.960 -99.335 -42.656  0.00  0.00     0.021 C 
ENDBRANCH  17  18
BRANCH  17  20
ATOM     20  C   UNL d   1     -59.895 -99.005 -44.625  0.00  0.00     0.092 C 
ATOM     21  C   UNL d   1     -59.561 -98.815 -45.361  0.00  0.00     0.021 C 
ENDBRANCH  17  20
ENDBRANCH  14  17
ENDBRANCH   1  14
TORSDOF 4
ENDMDL
