MODEL 1
REMARK VINA RESULT:      -7.5      0.000      0.000
REMARK  9 active torsions:
REMARK  status: ('A' for Active; 'I' for Inactive)
REMARK    1  A    between atoms: N_2  and  C_1 
REMARK    2  A    between atoms: N_3  and  C_5 
REMARK    3  A    between atoms: N_16  and  C_6 
REMARK    4  A    between atoms: C_11  and  C_18 
REMARK    5  A    between atoms: O_14  and  C_11 
REMARK    6  A    between atoms: C_17  and  O_14 
REMARK    7  A    between atoms: C_19  and  N_16 
REMARK    8  A    between atoms: C_18  and  C_20 
REMARK    9  A    between atoms: C_20  and  C_19 
ROOT
ATOM      1  C   UNL d   1      52.167  34.034  53.214  0.00  0.00     0.146 A 
ATOM      2  C   UNL d   1      52.322  34.777  53.538  0.00  0.00     0.049 A 
ATOM      3  C   UNL d   1      52.931  34.882  54.059  0.00  0.00     0.128 A 
ATOM      4  C   UNL d   1      52.620  33.394  53.410  0.00  0.00     0.103 A 
ATOM      5  C   UNL d   1      53.418  34.225  54.278  0.00  0.00     0.025 A 
ATOM      6  C   UNL d   1      53.246  33.491  53.943  0.00  0.00     0.022 A 
ENDROOT
BRANCH   4   7
ATOM      7  N   UNL d   1      52.462  32.638  53.080  0.00  0.00    -0.242 NA
BRANCH   7   8
ATOM      8  C   UNL d   1      52.956  32.014  53.219  0.00  0.00     0.099 C 
BRANCH   8   9
ATOM      9  C   UNL d   1      52.696  31.241  53.125  0.00  0.00     0.026 C 
BRANCH   9  10
ATOM     10  C   UNL d   1      53.228  30.613  53.202  0.00  0.00     0.070 C 
BRANCH  10  11
ATOM     11  C   UNL d   1      53.017  29.944  53.637  0.00  0.00     0.300 C 
ATOM     12  O   UNL d   1      52.436  29.437  53.349  0.00  0.00    -0.259 OA
BRANCH  11  13
ATOM     13  O   UNL d   1      53.391  29.792  54.356  0.00  0.00    -0.273 OA
BRANCH  13  14
ATOM     14  C   UNL d   1      53.434  29.024  54.662  0.00  0.00     0.103 C 
ATOM     15  C   UNL d   1      53.152  28.890  55.426  0.00  0.00     0.027 C 
ATOM     16  C   UNL d   1      53.750  28.402  54.219  0.00  0.00     0.027 C 
ENDBRANCH  13  14
ENDBRANCH  11  13
ENDBRANCH  10  11
ENDBRANCH   9  10
ENDBRANCH   8   9
ENDBRANCH   7   8
ENDBRANCH   4   7
BRANCH   1  17
ATOM     17  N   UNL d   1      51.520  33.932  52.664  0.00  0.00    -0.112 N 
ATOM     18  O   UNL d   1      50.758  33.716  52.945  0.00  0.00    -0.532 OA
ATOM     19  O   UNL d   1      51.647  34.047  51.855  0.00  0.00    -0.532 OA
ENDBRANCH   1  17
BRANCH   3  20
ATOM     20  N   UNL d   1      53.072  35.628  54.372  0.00  0.00    -0.114 N 
ATOM     21  O   UNL d   1      52.549  35.949  54.911  0.00  0.00    -0.532 OA
ATOM     22  O   UNL d   1      53.746  36.038  54.129  0.00  0.00    -0.532 OA
ENDBRANCH   3  20
TORSDOF 9
ENDMDL
MODEL 2
REMARK VINA RESULT:      -7.2      2.498      4.797
REMARK  9 active torsions:
REMARK  status: ('A' for Active; 'I' for Inactive)
REMARK    1  A    between atoms: N_2  and  C_1 
REMARK    2  A    between atoms: N_3  and  C_5 
REMARK    3  A    between atoms: N_16  and  C_6 
REMARK    4  A    between atoms: C_11  and  C_18 
REMARK    5  A    between atoms: O_14  and  C_11 
REMARK    6  A    between atoms: C_17  and  O_14 
REMARK    7  A    between atoms: C_19  and  N_16 
REMARK    8  A    between atoms: C_18  and  C_20 
REMARK    9  A    between atoms: C_20  and  C_19 
ROOT
ATOM      1  C   UNL d   1      52.810  32.674  53.497  0.00  0.00     0.146 A 
ATOM      2  C   UNL d   1      53.499  32.606  53.946  0.00  0.00     0.049 A 
ATOM      3  C   UNL d   1      53.752  33.215  54.412  0.00  0.00     0.128 A 
ATOM      4  C   UNL d   1      52.372  33.353  53.513  0.00  0.00     0.103 A 
ATOM      5  C   UNL d   1      53.308  33.936  54.443  0.00  0.00     0.025 A 
ATOM      6  C   UNL d   1      52.622  33.984  53.987  0.00  0.00     0.022 A 
ENDROOT
BRANCH   4   7
ATOM      7  N   UNL d   1      51.671  33.423  53.056  0.00  0.00    -0.242 NA
BRANCH   7   8
ATOM      8  C   UNL d   1      51.217  34.091  53.093  0.00  0.00     0.099 C 
BRANCH   8   9
ATOM      9  C   UNL d   1      50.512  34.145  52.676  0.00  0.00     0.026 C 
BRANCH   9  10
ATOM     10  C   UNL d   1      49.990  34.769  52.824  0.00  0.00     0.070 C 
BRANCH  10  11
ATOM     11  C   UNL d   1      49.280  34.821  52.407  0.00  0.00     0.300 C 
ATOM     12  O   UNL d   1      49.271  34.668  51.598  0.00  0.00    -0.259 OA
BRANCH  11  13
ATOM     13  O   UNL d   1      48.588  35.026  52.805  0.00  0.00    -0.273 OA
BRANCH  13  14
ATOM     14  C   UNL d   1      48.121  35.662  52.552  0.00  0.00     0.103 C 
ATOM     15  C   UNL d   1      48.074  36.330  53.035  0.00  0.00     0.027 C 
ATOM     16  C   UNL d   1      47.710  35.635  51.836  0.00  0.00     0.027 C 
ENDBRANCH  13  14
ENDBRANCH  11  13
ENDBRANCH  10  11
ENDBRANCH   9  10
ENDBRANCH   8   9
ENDBRANCH   7   8
ENDBRANCH   4   7
BRANCH   1  17
ATOM     17  N   UNL d   1      52.551  32.024  53.007  0.00  0.00    -0.112 N 
ATOM     18  O   UNL d   1      52.038  31.437  53.322  0.00  0.00    -0.532 OA
ATOM     19  O   UNL d   1      52.805  31.974  52.222  0.00  0.00    -0.532 OA
ENDBRANCH   1  17
BRANCH   3  20
ATOM     20  N   UNL d   1      54.440  33.130  54.852  0.00  0.00    -0.114 N 
ATOM     21  O   UNL d   1      55.164  33.306  54.515  0.00  0.00    -0.532 OA
ATOM     22  O   UNL d   1      54.381  32.866  55.632  0.00  0.00    -0.532 OA
ENDBRANCH   3  20
TORSDOF 9
ENDMDL
MODEL 3
REMARK VINA RESULT:      -7.0      1.994      5.055
REMARK  9 active torsions:
REMARK  status: ('A' for Active; 'I' for Inactive)
REMARK    1  A    between atoms: N_2  and  C_1 
REMARK    2  A    between atoms: N_3  and  C_5 
REMARK    3  A    between atoms: N_16  and  C_6 
REMARK    4  A    between atoms: C_11  and  C_18 
REMARK    5  A    between atoms: O_14  and  C_11 
REMARK    6  A    between atoms: C_17  and  O_14 
REMARK    7  A    between atoms: C_19  and  N_16 
REMARK    8  A    between atoms: C_18  and  C_20 
REMARK    9  A    between atoms: C_20  and  C_19 
ROOT
ATOM      1  C   UNL d   1      53.545  31.918  53.760  0.00  0.00     0.146 A 
ATOM      2  C   UNL d   1      53.742  31.127  53.889  0.00  0.00     0.049 A 
ATOM      3  C   UNL d   1      53.318  30.533  53.542  0.00  0.00     0.128 A 
ATOM      4  C   UNL d   1      52.924  32.117  53.283  0.00  0.00     0.103 A 
ATOM      5  C   UNL d   1      52.663  30.720  53.038  0.00  0.00     0.025 A 
ATOM      6  C   UNL d   1      52.483  31.517  52.922  0.00  0.00     0.022 A 
ENDROOT
BRANCH   4   7
ATOM      7  N   UNL d   1      52.724  32.923  53.151  0.00  0.00    -0.242 NA
BRANCH   7   8
ATOM      8  C   UNL d   1      52.046  33.122  52.758  0.00  0.00     0.099 C 
BRANCH   8   9
ATOM      9  C   UNL d   1      51.684  33.847  52.886  0.00  0.00     0.026 C 
BRANCH   9  10
ATOM     10  C   UNL d   1      51.053  34.085  52.407  0.00  0.00     0.070 C 
BRANCH  10  11
ATOM     11  C   UNL d   1      50.419  34.499  52.734  0.00  0.00     0.300 C 
ATOM     12  O   UNL d   1      50.565  35.129  53.245  0.00  0.00    -0.259 OA
BRANCH  11  13
ATOM     13  O   UNL d   1      49.648  34.278  52.546  0.00  0.00    -0.273 OA
BRANCH  13  14
ATOM     14  C   UNL d   1      49.097  34.835  52.274  0.00  0.00     0.103 C 
ATOM     15  C   UNL d   1      48.903  34.835  51.472  0.00  0.00     0.027 C 
ATOM     16  C   UNL d   1      48.748  35.379  52.789  0.00  0.00     0.027 C 
ENDBRANCH  13  14
ENDBRANCH  11  13
ENDBRANCH  10  11
ENDBRANCH   9  10
ENDBRANCH   8   9
ENDBRANCH   7   8
ENDBRANCH   4   7
BRANCH   1  17
ATOM     17  N   UNL d   1      53.999  32.539  54.131  0.00  0.00    -0.112 N 
ATOM     18  O   UNL d   1      53.816  32.785  54.913  0.00  0.00    -0.532 OA
ATOM     19  O   UNL d   1      54.620  32.898  53.719  0.00  0.00    -0.532 OA
ENDBRANCH   1  17
BRANCH   3  20
ATOM     20  N   UNL d   1      53.527  29.751  53.681  0.00  0.00    -0.114 N 
ATOM     21  O   UNL d   1      54.304  29.514  53.588  0.00  0.00    -0.532 OA
ATOM     22  O   UNL d   1      52.940  29.220  53.914  0.00  0.00    -0.532 OA
ENDBRANCH   3  20
TORSDOF 9
ENDMDL
MODEL 4
REMARK VINA RESULT:      -6.8      2.478      5.148
REMARK  9 active torsions:
REMARK  status: ('A' for Active; 'I' for Inactive)
REMARK    1  A    between atoms: N_2  and  C_1 
REMARK    2  A    between atoms: N_3  and  C_5 
REMARK    3  A    between atoms: N_16  and  C_6 
REMARK    4  A    between atoms: C_11  and  C_18 
REMARK    5  A    between atoms: O_14  and  C_11 
REMARK    6  A    between atoms: C_17  and  O_14 
REMARK    7  A    between atoms: C_19  and  N_16 
REMARK    8  A    between atoms: C_18  and  C_20 
REMARK    9  A    between atoms: C_20  and  C_19 
ROOT
ATOM      1  C   UNL d   1      52.817  33.965  53.726  0.00  0.00     0.146 A 
ATOM      2  C   UNL d   1      53.419  33.411  53.835  0.00  0.00     0.049 A 
ATOM      3  C   UNL d   1      53.349  32.661  53.542  0.00  0.00     0.128 A 
ATOM      4  C   UNL d   1      52.143  33.770  53.324  0.00  0.00     0.103 A 
ATOM      5  C   UNL d   1      52.651  32.436  53.118  0.00  0.00     0.025 A 
ATOM      6  C   UNL d   1      52.061  33.005  53.020  0.00  0.00     0.022 A 
ENDROOT
BRANCH   4   7
ATOM      7  N   UNL d   1      51.530  34.334  53.214  0.00  0.00    -0.242 NA
BRANCH   7   8
ATOM      8  C   UNL d   1      50.784  34.100  53.010  0.00  0.00     0.099 C 
BRANCH   8   9
ATOM      9  C   UNL d   1      50.242  34.638  52.708  0.00  0.00     0.026 C 
BRANCH   9  10
ATOM     10  C   UNL d   1      49.531  34.776  53.106  0.00  0.00     0.070 C 
BRANCH  10  11
ATOM     11  C   UNL d   1      48.968  35.285  52.782  0.00  0.00     0.300 C 
ATOM     12  O   UNL d   1      48.647  35.119  52.042  0.00  0.00    -0.259 OA
BRANCH  11  13
ATOM     13  O   UNL d   1      48.735  35.955  53.202  0.00  0.00    -0.273 OA
BRANCH  13  14
ATOM     14  C   UNL d   1      47.935  36.155  53.279  0.00  0.00     0.103 C 
ATOM     15  C   UNL d   1      47.565  36.020  54.004  0.00  0.00     0.027 C 
ATOM     16  C   UNL d   1      47.511  36.481  52.649  0.00  0.00     0.027 C 
ENDBRANCH  13  14
ENDBRANCH  11  13
ENDBRANCH  10  11
ENDBRANCH   9  10
ENDBRANCH   8   9
ENDBRANCH   7   8
ENDBRANCH   4   7
BRANCH   1  17
ATOM     17  N   UNL d   1      52.899  34.755  54.040  0.00  0.00    -0.112 N 
ATOM     18  O   UNL d   1      52.715  34.911  54.844  0.00  0.00    -0.532 OA
ATOM     19  O   UNL d   1      53.161  35.367  53.549  0.00  0.00    -0.532 OA
ENDBRANCH   1  17
BRANCH   3  20
ATOM     20  N   UNL d   1      53.958  32.122  53.660  0.00  0.00    -0.114 N 
ATOM     21  O   UNL d   1      54.700  32.272  53.352  0.00  0.00    -0.532 OA
ATOM     22  O   UNL d   1      53.800  31.436  54.091  0.00  0.00    -0.532 OA
ENDBRANCH   3  20
TORSDOF 9
ENDMDL
MODEL 5
REMARK VINA RESULT:      -6.2      1.211      2.149
REMARK  9 active torsions:
REMARK  status: ('A' for Active; 'I' for Inactive)
REMARK    1  A    between atoms: N_2  and  C_1 
REMARK    2  A    between atoms: N_3  and  C_5 
REMARK    3  A    between atoms: N_16  and  C_6 
REMARK    4  A    between atoms: C_11  and  C_18 
REMARK    5  A    between atoms: O_14  and  C_11 
REMARK    6  A    between atoms: C_17  and  O_14 
REMARK    7  A    between atoms: C_19  and  N_16 
REMARK    8  A    between atoms: C_18  and  C_20 
REMARK    9  A    between atoms: C_20  and  C_19 
ROOT
ATOM      1  C   UNL d   1      51.887  34.060  53.265  0.00  0.00     0.146 A 
ATOM      2  C   UNL d   1      51.235  34.553  53.154  0.00  0.00     0.049 A 
ATOM      3  C   UNL d   1      50.529  34.253  52.897  0.00  0.00     0.128 A 
ATOM      4  C   UNL d   1      51.837  33.267  53.120  0.00  0.00     0.103 A 
ATOM      5  C   UNL d   1      50.455  33.424  52.739  0.00  0.00     0.025 A 
ATOM      6  C   UNL d   1      51.119  32.950  52.857  0.00  0.00     0.022 A 
ENDROOT
BRANCH   4   7
ATOM      7  N   UNL d   1      52.502  32.766  53.233  0.00  0.00    -0.242 NA
BRANCH   7   8
ATOM      8  C   UNL d   1      52.489  31.998  52.980  0.00  0.00     0.099 C 
BRANCH   8   9
ATOM      9  C   UNL d   1      53.036  31.454  53.261  0.00  0.00     0.026 C 
BRANCH   9  10
ATOM     10  C   UNL d   1      52.922  30.646  53.126  0.00  0.00     0.070 C 
BRANCH  10  11
ATOM     11  C   UNL d   1      53.337  30.090  53.573  0.00  0.00     0.300 C 
ATOM     12  O   UNL d   1      54.153  30.162  53.657  0.00  0.00    -0.259 OA
BRANCH  11  13
ATOM     13  O   UNL d   1      52.928  29.469  53.930  0.00  0.00    -0.273 OA
BRANCH  13  14
ATOM     14  C   UNL d   1      53.279  29.015  54.528  0.00  0.00     0.103 C 
ATOM     15  C   UNL d   1      53.751  28.375  54.307  0.00  0.00     0.027 C 
ATOM     16  C   UNL d   1      53.163  29.192  55.327  0.00  0.00     0.027 C 
ENDBRANCH  13  14
ENDBRANCH  11  13
ENDBRANCH  10  11
ENDBRANCH   9  10
ENDBRANCH   8   9
ENDBRANCH   7   8
ENDBRANCH   4   7
BRANCH   1  17
ATOM     17  N   UNL d   1      52.629  34.386  53.537  0.00  0.00    -0.112 N 
ATOM     18  O   UNL d   1      53.172  34.716  52.987  0.00  0.00    -0.532 OA
ATOM     19  O   UNL d   1      52.812  34.376  54.344  0.00  0.00    -0.532 OA
ENDBRANCH   1  17
BRANCH   3  20
ATOM     20  N   UNL d   1      49.890  34.757  52.792  0.00  0.00    -0.114 N 
ATOM     21  O   UNL d   1      49.670  35.268  53.391  0.00  0.00    -0.532 OA
ATOM     22  O   UNL d   1      49.482  34.733  52.075  0.00  0.00    -0.532 OA
ENDBRANCH   3  20
TORSDOF 9
ENDMDL
MODEL 6
REMARK VINA RESULT:      -5.7      2.978      4.089
REMARK  9 active torsions:
REMARK  status: ('A' for Active; 'I' for Inactive)
REMARK    1  A    between atoms: N_2  and  C_1 
REMARK    2  A    between atoms: N_3  and  C_5 
REMARK    3  A    between atoms: N_16  and  C_6 
REMARK    4  A    between atoms: C_11  and  C_18 
REMARK    5  A    between atoms: O_14  and  C_11 
REMARK    6  A    between atoms: C_17  and  O_14 
REMARK    7  A    between atoms: C_19  and  N_16 
REMARK    8  A    between atoms: C_18  and  C_20 
REMARK    9  A    between atoms: C_20  and  C_19 
ROOT
ATOM      1  C   UNL d   1      48.796  34.975  51.993  0.00  0.00     0.146 A 
ATOM      2  C   UNL d   1      48.176  35.491  52.165  0.00  0.00     0.049 A 
ATOM      3  C   UNL d   1      48.131  35.859  52.883  0.00  0.00     0.128 A 
ATOM      4  C   UNL d   1      49.374  34.825  52.538  0.00  0.00     0.103 A 
ATOM      5  C   UNL d   1      48.727  35.717  53.469  0.00  0.00     0.025 A 
ATOM      6  C   UNL d   1      49.338  35.197  53.276  0.00  0.00     0.022 A 
ENDROOT
BRANCH   4   7
ATOM      7  N   UNL d   1      50.005  34.300  52.362  0.00  0.00    -0.242 NA
BRANCH   7   8
ATOM      8  C   UNL d   1      50.620  34.205  52.877  0.00  0.00     0.099 C 
BRANCH   8   9
ATOM      9  C   UNL d   1      51.217  33.661  52.725  0.00  0.00     0.026 C 
BRANCH   9  10
ATOM     10  C   UNL d   1      51.933  33.706  53.137  0.00  0.00     0.070 C 
BRANCH  10  11
ATOM     11  C   UNL d   1      52.432  33.050  53.170  0.00  0.00     0.300 C 
ATOM     12  O   UNL d   1      52.501  32.558  52.513  0.00  0.00    -0.259 OA
BRANCH  11  13
ATOM     13  O   UNL d   1      52.855  32.896  53.860  0.00  0.00    -0.273 OA
BRANCH  13  14
ATOM     14  C   UNL d   1      53.588  32.510  53.835  0.00  0.00     0.103 C 
ATOM     15  C   UNL d   1      54.272  32.970  53.810  0.00  0.00     0.027 C 
ATOM     16  C   UNL d   1      53.639  31.685  53.836  0.00  0.00     0.027 C 
ENDBRANCH  13  14
ENDBRANCH  11  13
ENDBRANCH  10  11
ENDBRANCH   9  10
ENDBRANCH   8   9
ENDBRANCH   7   8
ENDBRANCH   4   7
BRANCH   1  17
ATOM     17  N   UNL d   1      48.834  34.590  51.231  0.00  0.00    -0.112 N 
ATOM     18  O   UNL d   1      48.305  33.964  51.048  0.00  0.00    -0.532 OA
ATOM     19  O   UNL d   1      49.394  34.835  50.674  0.00  0.00    -0.532 OA
ENDBRANCH   1  17
BRANCH   3  20
ATOM     20  N   UNL d   1      47.507  36.370  53.038  0.00  0.00    -0.114 N 
ATOM     21  O   UNL d   1      47.094  36.708  52.420  0.00  0.00    -0.532 OA
ATOM     22  O   UNL d   1      47.314  36.530  53.825  0.00  0.00    -0.532 OA
ENDBRANCH   3  20
TORSDOF 9
ENDMDL
MODEL 7
REMARK VINA RESULT:      -5.1      1.545      4.828
REMARK  9 active torsions:
REMARK  status: ('A' for Active; 'I' for Inactive)
REMARK    1  A    between atoms: N_2  and  C_1 
REMARK    2  A    between atoms: N_3  and  C_5 
REMARK    3  A    between atoms: N_16  and  C_6 
REMARK    4  A    between atoms: C_11  and  C_18 
REMARK    5  A    between atoms: O_14  and  C_11 
REMARK    6  A    between atoms: C_17  and  O_14 
REMARK    7  A    between atoms: C_19  and  N_16 
REMARK    8  A    between atoms: C_18  and  C_20 
REMARK    9  A    between atoms: C_20  and  C_19 
ROOT
ATOM      1  C   UNL d   1      52.846  31.211  53.246  0.00  0.00     0.146 A 
ATOM      2  C   UNL d   1      52.595  30.430  53.157  0.00  0.00     0.049 A 
ATOM      3  C   UNL d   1      52.999  29.823  53.506  0.00  0.00     0.128 A 
ATOM      4  C   UNL d   1      53.501  31.388  53.684  0.00  0.00     0.103 A 
ATOM      5  C   UNL d   1      53.689  29.986  53.970  0.00  0.00     0.025 A 
ATOM      6  C   UNL d   1      53.923  30.774  54.046  0.00  0.00     0.022 A 
ENDROOT
BRANCH   4   7
ATOM      7  N   UNL d   1      53.757  32.183  53.774  0.00  0.00    -0.242 NA
BRANCH   7   8
ATOM      8  C   UNL d   1      54.140  32.421  54.445  0.00  0.00     0.099 C 
BRANCH   8   9
ATOM      9  C   UNL d   1      54.449  33.179  54.506  0.00  0.00     0.026 C 
BRANCH   9  10
ATOM     10  C   UNL d   1      54.165  33.697  55.085  0.00  0.00     0.070 C 
BRANCH  10  11
ATOM     11  C   UNL d   1      54.006  34.483  54.894  0.00  0.00     0.300 C 
ATOM     12  O   UNL d   1      54.612  34.963  54.608  0.00  0.00    -0.259 OA
BRANCH  11  13
ATOM     13  O   UNL d   1      53.243  34.780  54.991  0.00  0.00    -0.273 OA
BRANCH  13  14
ATOM     14  C   UNL d   1      52.988  35.450  54.576  0.00  0.00     0.103 C 
ATOM     15  C   UNL d   1      53.131  36.193  54.906  0.00  0.00     0.027 C 
ATOM     16  C   UNL d   1      52.600  35.384  53.850  0.00  0.00     0.027 C 
ENDBRANCH  13  14
ENDBRANCH  11  13
ENDBRANCH  10  11
ENDBRANCH   9  10
ENDBRANCH   8   9
ENDBRANCH   7   8
ENDBRANCH   4   7
BRANCH   1  17
ATOM     17  N   UNL d   1      52.412  31.846  52.873  0.00  0.00    -0.112 N 
ATOM     18  O   UNL d   1      51.695  32.122  53.211  0.00  0.00    -0.532 OA
ATOM     19  O   UNL d   1      52.701  32.188  52.177  0.00  0.00    -0.532 OA
ENDBRANCH   1  17
BRANCH   3  20
ATOM     20  N   UNL d   1      52.735  29.051  53.408  0.00  0.00    -0.114 N 
ATOM     21  O   UNL d   1      52.891  28.491  53.982  0.00  0.00    -0.532 OA
ATOM     22  O   UNL d   1      52.315  28.862  52.723  0.00  0.00    -0.532 OA
ENDBRANCH   3  20
TORSDOF 9
ENDMDL
MODEL 8
REMARK VINA RESULT:      -5.0      4.184      5.558
REMARK  9 active torsions:
REMARK  status: ('A' for Active; 'I' for Inactive)
REMARK    1  A    between atoms: N_2  and  C_1 
REMARK    2  A    between atoms: N_3  and  C_5 
REMARK    3  A    between atoms: N_16  and  C_6 
REMARK    4  A    between atoms: C_11  and  C_18 
REMARK    5  A    between atoms: O_14  and  C_11 
REMARK    6  A    between atoms: C_17  and  O_14 
REMARK    7  A    between atoms: C_19  and  N_16 
REMARK    8  A    between atoms: C_18  and  C_20 
REMARK    9  A    between atoms: C_20  and  C_19 
ROOT
ATOM      1  C   UNL d   1      47.288  36.041  52.683  0.00  0.00     0.146 A 
ATOM      2  C   UNL d   1      46.591  36.294  53.046  0.00  0.00     0.049 A 
ATOM      3  C   UNL d   1      46.530  36.319  53.852  0.00  0.00     0.128 A 
ATOM      4  C   UNL d   1      47.925  35.812  53.124  0.00  0.00     0.103 A 
ATOM      5  C   UNL d   1      47.186  36.084  54.333  0.00  0.00     0.025 A 
ATOM      6  C   UNL d   1      47.873  35.834  53.950  0.00  0.00     0.022 A 
ENDROOT
BRANCH   4   7
ATOM      7  N   UNL d   1      48.634  35.554  52.754  0.00  0.00    -0.242 NA
BRANCH   7   8
ATOM      8  C   UNL d   1      49.217  35.194  53.182  0.00  0.00     0.099 C 
BRANCH   8   9
ATOM      9  C   UNL d   1      49.846  34.823  52.807  0.00  0.00     0.026 C 
BRANCH   9  10
ATOM     10  C   UNL d   1      50.456  34.489  53.255  0.00  0.00     0.070 C 
BRANCH  10  11
ATOM     11  C   UNL d   1      51.031  34.025  52.888  0.00  0.00     0.300 C 
ATOM     12  O   UNL d   1      51.169  34.111  52.080  0.00  0.00    -0.259 OA
BRANCH  11  13
ATOM     13  O   UNL d   1      51.461  33.482  53.334  0.00  0.00    -0.273 OA
BRANCH  13  14
ATOM     14  C   UNL d   1      52.261  33.336  53.176  0.00  0.00     0.103 C 
ATOM     15  C   UNL d   1      52.810  33.925  53.360  0.00  0.00     0.027 C 
ATOM     16  C   UNL d   1      52.511  32.622  52.844  0.00  0.00     0.027 C 
ENDBRANCH  13  14
ENDBRANCH  11  13
ENDBRANCH  10  11
ENDBRANCH   9  10
ENDBRANCH   8   9
ENDBRANCH   7   8
ENDBRANCH   4   7
BRANCH   1  17
ATOM     17  N   UNL d   1      47.343  36.018  51.831  0.00  0.00    -0.112 N 
ATOM     18  O   UNL d   1      47.688  36.660  51.413  0.00  0.00    -0.532 OA
ATOM     19  O   UNL d   1      47.056  35.362  51.417  0.00  0.00    -0.532 OA
ENDBRANCH   1  17
BRANCH   3  20
ATOM     20  N   UNL d   1      45.830  36.574  54.197  0.00  0.00    -0.114 N 
ATOM     21  O   UNL d   1      45.798  36.709  55.002  0.00  0.00    -0.532 OA
ATOM     22  O   UNL d   1      45.170  36.687  53.714  0.00  0.00    -0.532 OA
ENDBRANCH   3  20
TORSDOF 9
ENDMDL
