MODEL 1
REMARK VINA RESULT:       9.1      0.000      0.000
REMARK  9 active torsions:
REMARK  status: ('A' for Active; 'I' for Inactive)
REMARK    1  A    between atoms: C_9  and  S_1 
REMARK    2  A    between atoms: N_12  and  S_1 
REMARK    3  A    between atoms: S_2  and  C_8 
REMARK    4  A    between atoms: N_13  and  S_2 
REMARK    5  A    between atoms: N_20  and  C_5 
REMARK    6  A    between atoms: C_23  and  N_12 
REMARK    7  A    between atoms: C_24  and  N_13 
REMARK    8  A    between atoms: C_31  and  C_23 
REMARK    9  A    between atoms: C_30  and  C_24 
ROOT
ATOM      1  C   UNL d   1      56.961  -0.858  31.746  0.00  0.00     0.021 A 
ATOM      2  C   UNL d   1      57.913  -0.660  30.829  0.00  0.00     0.021 A 
ATOM      3  C   UNL d   1      57.370  -1.213  31.124  0.00  0.00     0.111 A 
ATOM      4  C   UNL d   1      57.836   0.033  31.272  0.00  0.00     0.002 A 
ATOM      5  C   UNL d   1      57.246  -0.099  31.836  0.00  0.00     0.002 A 
ATOM      6  C   UNL d   1      58.932  -0.060  30.051  0.00  0.00     0.104 A 
ATOM      7  C   UNL d   1      56.053  -0.688  32.807  0.00  0.00     0.104 A 
ATOM      8  C   UNL d   1      58.462  -0.712  30.215  0.00  0.00     0.015 A 
ATOM      9  C   UNL d   1      56.385  -1.165  32.203  0.00  0.00     0.015 A 
ATOM     10  C   UNL d   1      56.921   0.376  32.430  0.00  0.00     0.001 A 
ATOM     11  C   UNL d   1      58.306   0.662  31.096  0.00  0.00     0.001 A 
ATOM     12  C   UNL d   1      56.337   0.070  32.897  0.00  0.00     0.013 A 
ATOM     13  C   UNL d   1      58.836   0.629  30.511  0.00  0.00     0.013 A 
ENDROOT
BRANCH   6  14
ATOM     14  S   UNL d   1      59.503  -0.072  29.433  0.00  0.00     0.272 S 
ATOM     15  O   UNL d   1      59.092  -0.707  29.059  0.00  0.00    -0.200 OA
ATOM     16  O   UNL d   1      59.926   0.559  29.789  0.00  0.00    -0.200 OA
BRANCH  14  17
ATOM     17  N   UNL d   1      60.059  -0.103  28.807  0.00  0.00    -0.225 N 
ATOM     18  C   UNL d   1      60.405   0.606  28.507  0.00  0.00     0.111 C 
BRANCH  17  19
ATOM     19  C   UNL d   1      60.291  -0.828  28.456  0.00  0.00     0.137 C 
BRANCH  19  20
ATOM     20  C   UNL d   1      60.963  -1.230  28.703  0.00  0.00     0.254 C 
ATOM     21  O   UNL d   1      61.085  -2.019  28.509  0.00  0.00    -0.281 OA
ENDBRANCH  19  20
ENDBRANCH  17  19
ENDBRANCH  14  17
ENDBRANCH   6  14
BRANCH   3  22
ATOM     22  N   UNL d   1      57.266  -1.982  30.835  0.00  0.00    -0.096 NA
ATOM     23  O   UNL d   1      57.903  -2.386  30.498  0.00  0.00    -0.061 OA
ENDBRANCH   3  22
BRANCH   7  24
ATOM     24  S   UNL d   1      55.442  -0.965  33.317  0.00  0.00     0.272 S 
ATOM     25  O   UNL d   1      55.263  -1.559  32.751  0.00  0.00    -0.200 OA
ATOM     26  O   UNL d   1      55.623  -0.370  33.880  0.00  0.00    -0.200 OA
BRANCH  24  27
ATOM     27  N   UNL d   1      54.822  -1.269  33.803  0.00  0.00    -0.225 N 
ATOM     28  C   UNL d   1      54.607  -0.893  34.496  0.00  0.00     0.111 C 
BRANCH  27  29
ATOM     29  C   UNL d   1      54.432  -1.969  33.554  0.00  0.00     0.137 C 
BRANCH  29  30
ATOM     30  C   UNL d   1      54.635  -2.679  33.901  0.00  0.00     0.254 C 
ATOM     31  O   UNL d   1      54.565  -3.394  33.478  0.00  0.00    -0.281 OA
ENDBRANCH  29  30
ENDBRANCH  27  29
ENDBRANCH  24  27
ENDBRANCH   7  24
TORSDOF 9
ENDMDL
MODEL 2
REMARK VINA RESULT:      11.3      1.464      1.981
REMARK  9 active torsions:
REMARK  status: ('A' for Active; 'I' for Inactive)
REMARK    1  A    between atoms: C_9  and  S_1 
REMARK    2  A    between atoms: N_12  and  S_1 
REMARK    3  A    between atoms: S_2  and  C_8 
REMARK    4  A    between atoms: N_13  and  S_2 
REMARK    5  A    between atoms: N_20  and  C_5 
REMARK    6  A    between atoms: C_23  and  N_12 
REMARK    7  A    between atoms: C_24  and  N_13 
REMARK    8  A    between atoms: C_31  and  C_23 
REMARK    9  A    between atoms: C_30  and  C_24 
ROOT
ATOM      1  C   UNL d   1      56.959  -0.002  32.888  0.00  0.00     0.021 A 
ATOM      2  C   UNL d   1      58.061   0.048  32.133  0.00  0.00     0.021 A 
ATOM      3  C   UNL d   1      57.782   0.052  32.914  0.00  0.00     0.111 A 
ATOM      4  C   UNL d   1      57.408  -0.008  31.631  0.00  0.00     0.002 A 
ATOM      5  C   UNL d   1      56.732  -0.038  32.107  0.00  0.00     0.002 A 
ATOM      6  C   UNL d   1      58.930   0.072  31.016  0.00  0.00     0.104 A 
ATOM      7  C   UNL d   1      55.623  -0.075  33.324  0.00  0.00     0.104 A 
ATOM      8  C   UNL d   1      58.827   0.088  31.830  0.00  0.00     0.015 A 
ATOM      9  C   UNL d   1      56.442  -0.018  33.495  0.00  0.00     0.015 A 
ATOM     10  C   UNL d   1      55.925  -0.094  31.933  0.00  0.00     0.001 A 
ATOM     11  C   UNL d   1      57.528  -0.023  30.835  0.00  0.00     0.001 A 
ATOM     12  C   UNL d   1      55.396  -0.111  32.543  0.00  0.00     0.013 A 
ATOM     13  C   UNL d   1      58.255   0.015  30.528  0.00  0.00     0.013 A 
ENDROOT
BRANCH   6  14
ATOM     14  S   UNL d   1      59.694   0.111  30.667  0.00  0.00     0.272 S 
ATOM     15  O   UNL d   1      59.353   0.029  29.900  0.00  0.00    -0.200 OA
ATOM     16  O   UNL d   1      60.053   0.193  31.421  0.00  0.00    -0.200 OA
BRANCH  14  17
ATOM     17  N   UNL d   1      60.445   0.147  30.296  0.00  0.00    -0.225 N 
ATOM     18  C   UNL d   1      61.132   0.351  30.741  0.00  0.00     0.111 C 
BRANCH  17  19
ATOM     19  C   UNL d   1      60.544  -0.014  29.480  0.00  0.00     0.137 C 
BRANCH  19  20
ATOM     20  C   UNL d   1      60.484  -0.777  29.181  0.00  0.00     0.254 C 
ATOM     21  O   UNL d   1      61.076  -1.099  28.710  0.00  0.00    -0.281 OA
ENDBRANCH  19  20
ENDBRANCH  17  19
ENDBRANCH  14  17
ENDBRANCH   6  14
BRANCH   3  22
ATOM     22  N   UNL d   1      58.257   0.101  33.591  0.00  0.00    -0.096 NA
ATOM     23  O   UNL d   1      58.544  -0.589  33.945  0.00  0.00    -0.061 OA
ENDBRANCH   3  22
BRANCH   7  24
ATOM     24  S   UNL d   1      55.036  -0.095  33.928  0.00  0.00     0.272 S 
ATOM     25  O   UNL d   1      55.439  -0.746  34.273  0.00  0.00    -0.200 OA
ATOM     26  O   UNL d   1      54.636   0.555  33.581  0.00  0.00    -0.200 OA
BRANCH  24  27
ATOM     27  N   UNL d   1      54.466  -0.145  34.549  0.00  0.00    -0.225 N 
ATOM     28  C   UNL d   1      53.682  -0.312  34.389  0.00  0.00     0.111 C 
BRANCH  27  29
ATOM     29  C   UNL d   1      54.727  -0.017  35.336  0.00  0.00     0.137 C 
BRANCH  29  30
ATOM     30  C   UNL d   1      55.449   0.343  35.459  0.00  0.00     0.254 C 
ATOM     31  O   UNL d   1      55.635   0.680  36.199  0.00  0.00    -0.281 OA
ENDBRANCH  29  30
ENDBRANCH  27  29
ENDBRANCH  24  27
ENDBRANCH   7  24
TORSDOF 9
ENDMDL
