MODEL 1
REMARK VINA RESULT:     118.1      0.000      0.000
REMARK  5 active torsions:
REMARK  status: ('A' for Active; 'I' for Inactive)
REMARK    1  A    between atoms: N_2  and  S_1 
REMARK    2  A    between atoms: C_9  and  S_1 
REMARK    3  A    between atoms: C_8  and  N_2 
REMARK       I    between atoms: C_14  and  N_2 
REMARK    4  A    between atoms: C_17  and  C_3 
REMARK    5  A    between atoms: N_6  and  C_5 
ROOT
ATOM      1  N   UNL d   1     -56.482-102.282 -42.621  0.00  0.00    -0.198 N 
ATOM      2  C   UNL d   1     -57.270-102.535 -42.747  0.00  0.00     0.274 C 
ATOM      3  O   UNL d   1     -57.609-102.476 -43.506  0.00  0.00    -0.266 OA
ATOM      4  C   UNL d   1     -57.726-102.848 -42.130  0.00  0.00     0.067 C 
ENDROOT
BRANCH   1   5
ATOM      5  S   UNL d   1     -56.158-102.351 -41.843  0.00  0.00     0.274 S 
ATOM      6  O   UNL d   1     -56.849-102.723 -41.604  0.00  0.00    -0.200 OA
ATOM      7  O   UNL d   1     -55.446-101.966 -42.098  0.00  0.00    -0.200 OA
BRANCH   5   8
ATOM      8  C   UNL d   1     -55.860-102.428 -41.080  0.00  0.00     0.106 A 
ATOM      9  C   UNL d   1     -56.351-102.545 -40.456  0.00  0.00     0.037 A 
ATOM     10  C   UNL d   1     -56.077-102.626 -39.677  0.00  0.00     0.138 A 
ATOM     11  C   UNL d   1     -55.207-102.577 -39.563  0.00  0.00     0.080 A 
ATOM     12  C   UNL d   1     -54.718-102.457 -40.216  0.00  0.00     0.014 A 
ATOM     13 CL   UNL d   1     -54.863-102.650 -38.807  0.00  0.00    -0.081 Cl
ATOM     14  C   UNL d   1     -55.045-102.385 -40.957  0.00  0.00     0.014 A 
BRANCH  10  15
ATOM     15  N   UNL d   1     -56.592-102.747 -39.037  0.00  0.00    -0.113 N 
ATOM     16  O   UNL d   1     -56.257-102.725 -38.271  0.00  0.00    -0.532 OA
ATOM     17  O   UNL d   1     -57.382-102.879 -39.126  0.00  0.00    -0.532 OA
ENDBRANCH  10  15
ENDBRANCH   5   8
ENDBRANCH   1   5
BRANCH   1  18
ATOM     18  C   UNL d   1     -56.040-101.974 -43.240  0.00  0.00     0.078 A 
ATOM     19  C   UNL d   1     -56.256-101.288 -43.563  0.00  0.00     0.021 A 
ATOM     20  C   UNL d   1     -55.827-100.949 -44.194  0.00  0.00     0.029 A 
ATOM     21  C   UNL d   1     -55.929-100.265 -44.615  0.00  0.00     0.064 A 
ATOM     22  C   UNL d   1     -55.164-101.330 -44.494  0.00  0.00     0.100 A 
ATOM     23  C   UNL d   1     -55.338-100.213 -45.175  0.00  0.00     0.103 A 
ATOM     24  C   UNL d   1     -55.206 -99.622 -45.733  0.00  0.00     0.027 C 
ATOM     25  O   UNL d   1     -54.863-100.878 -45.097  0.00  0.00    -0.307 OA
ATOM     26  C   UNL d   1     -54.910-102.061 -44.171  0.00  0.00     0.026 A 
ATOM     27  C   UNL d   1     -55.341-102.376 -43.556  0.00  0.00     0.020 A 
BRANCH  21  28
ATOM     28  C   UNL d   1     -56.537 -99.699 -44.503  0.00  0.00     0.198 C 
ATOM     29  O   UNL d   1     -56.423 -99.032 -44.048  0.00  0.00    -0.286 OA
ATOM     30  C   UNL d   1     -57.284 -99.840 -44.879  0.00  0.00     0.045 C 
ENDBRANCH  21  28
ENDBRANCH   1  18
TORSDOF 5
ENDMDL
