MODEL 1
REMARK VINA RESULT:      -4.1      0.000      0.000
REMARK  3 active torsions:
REMARK  status: ('A' for Active; 'I' for Inactive)
REMARK    1  A    between atoms: C_7  and  N_1 
REMARK    2  A    between atoms: C_13  and  C_7 
REMARK    3  A    between atoms: O_18  and  C_10 
ROOT
ATOM      1  N   UNL d   1     -41.233-122.893 -51.022  0.00  0.00    -0.226 N 
ATOM      2  C   UNL d   1     -41.185-122.159 -50.740  0.00  0.00     0.343 A 
ATOM      3  N   UNL d   1     -41.248-121.540 -51.388  0.00  0.00    -0.241 N 
ATOM      4  C   UNL d   1     -41.322-122.967 -51.771  0.00  0.00     0.273 A 
ATOM      5  C   UNL d   1     -41.333-121.804 -52.069  0.00  0.00     0.158 A 
ATOM      6  C   UNL d   1     -41.380-122.588 -52.333  0.00  0.00     0.113 A 
ATOM      7  N   UNL d   1     -41.384-121.181 -52.610  0.00  0.00    -0.226 NA
ATOM      8  O   UNL d   1     -41.123-121.897 -50.256  0.00  0.00    -0.245 OA
ATOM      9  C   UNL d   1     -41.478-122.749 -53.139  0.00  0.00     0.103 A 
ATOM     10  O   UNL d   1     -41.349-123.480 -51.910  0.00  0.00    -0.266 OA
ATOM     11  C   UNL d   1     -41.212-120.803 -51.205  0.00  0.00     0.105 C 
ATOM     12  C   UNL d   1     -41.482-121.342 -53.415  0.00  0.00     0.103 A 
ATOM     13  C   UNL d   1     -41.529-122.126 -53.679  0.00  0.00     0.045 A 
ENDROOT
BRANCH   1  14
ATOM     14  C   UNL d   1     -41.187-123.546 -50.522  0.00  0.00     0.087 C 
BRANCH  14  15
ATOM     15  C   UNL d   1     -41.664-123.598 -49.856  0.00  0.00     0.018 A 
ATOM     16  C   UNL d   1     -42.483-123.763 -49.939  0.00  0.00     0.002 A 
ATOM     17  C   UNL d   1     -42.965-123.817 -49.285  0.00  0.00     0.011 A 
ATOM     18  C   UNL d   1     -42.643-123.708 -48.543  0.00  0.00     0.058 A 
ATOM     19  C   UNL d   1     -41.835-123.545 -48.451  0.00  0.00     0.011 A 
ATOM     20 CL   UNL d   1     -43.128-123.762 -47.879  0.00  0.00    -0.082 Cl
ATOM     21  C   UNL d   1     -41.353-123.491 -49.099  0.00  0.00     0.002 A 
ENDBRANCH  14  15
ENDBRANCH   1  14
BRANCH   9  22
ATOM     22  O   UNL d   1     -41.527-123.627 -53.409  0.00  0.00    -0.328 OA
ATOM     23  C   UNL d   1     -41.656-123.817 -54.201  0.00  0.00     0.181 C 
ENDBRANCH   9  22
TORSDOF 3
ENDMDL
MODEL 2
REMARK VINA RESULT:      -3.2      1.932      3.963
REMARK  3 active torsions:
REMARK  status: ('A' for Active; 'I' for Inactive)
REMARK    1  A    between atoms: C_7  and  N_1 
REMARK    2  A    between atoms: C_13  and  C_7 
REMARK    3  A    between atoms: O_18  and  C_10 
ROOT
ATOM      1  N   UNL d   1     -41.855-122.469 -50.582  0.00  0.00    -0.226 N 
ATOM      2  C   UNL d   1     -42.547-122.187 -50.829  0.00  0.00     0.343 A 
ATOM      3  N   UNL d   1     -43.206-122.333 -50.236  0.00  0.00    -0.241 N 
ATOM      4  C   UNL d   1     -41.845-122.810 -49.905  0.00  0.00     0.273 A 
ATOM      5  C   UNL d   1     -43.006-122.686 -49.623  0.00  0.00     0.158 A 
ATOM      6  C   UNL d   1     -42.262-122.971 -49.392  0.00  0.00     0.113 A 
ATOM      7  N   UNL d   1     -43.659-122.785 -49.126  0.00  0.00    -0.226 NA
ATOM      8  O   UNL d   1     -42.763-121.920 -51.264  0.00  0.00    -0.245 OA
ATOM      9  C   UNL d   1     -42.173-123.355 -48.665  0.00  0.00     0.103 A 
ATOM     10  O   UNL d   1     -41.356-122.982 -49.785  0.00  0.00    -0.266 OA
ATOM     11  C   UNL d   1     -43.911-122.093 -50.393  0.00  0.00     0.105 C 
ATOM     12  C   UNL d   1     -43.570-123.169 -48.400  0.00  0.00     0.103 A 
ATOM     13  C   UNL d   1     -42.827-123.454 -48.169  0.00  0.00     0.045 A 
ENDROOT
BRANCH   1  14
ATOM     14  C   UNL d   1     -41.175-122.394 -51.041  0.00  0.00     0.087 C 
BRANCH  14  15
ATOM     15  C   UNL d   1     -41.167-122.647 -51.822  0.00  0.00     0.018 A 
ATOM     16  C   UNL d   1     -41.133-122.084 -52.445  0.00  0.00     0.002 A 
ATOM     17  C   UNL d   1     -41.125-122.323 -53.222  0.00  0.00     0.011 A 
ATOM     18  C   UNL d   1     -41.151-123.121 -53.394  0.00  0.00     0.058 A 
ATOM     19  C   UNL d   1     -41.185-123.685 -52.786  0.00  0.00     0.011 A 
ATOM     20 CL   UNL d   1     -41.143-123.367 -54.181  0.00  0.00    -0.082 Cl
ATOM     21  C   UNL d   1     -41.193-123.450 -52.012  0.00  0.00     0.002 A 
ENDBRANCH  14  15
ENDBRANCH   1  14
BRANCH   9  22
ATOM     22  O   UNL d   1     -41.339-123.664 -48.431  0.00  0.00    -0.328 OA
ATOM     23  C   UNL d   1     -41.144-123.791 -47.639  0.00  0.00     0.181 C 
ENDBRANCH   9  22
TORSDOF 3
ENDMDL
MODEL 3
REMARK VINA RESULT:      -1.8      0.870      1.164
REMARK  3 active torsions:
REMARK  status: ('A' for Active; 'I' for Inactive)
REMARK    1  A    between atoms: C_7  and  N_1 
REMARK    2  A    between atoms: C_13  and  C_7 
REMARK    3  A    between atoms: O_18  and  C_10 
ROOT
ATOM      1  N   UNL d   1     -41.318-122.513 -52.116  0.00  0.00    -0.226 N 
ATOM      2  C   UNL d   1     -41.280-121.751 -51.921  0.00  0.00     0.343 A 
ATOM      3  N   UNL d   1     -41.516-121.212 -52.600  0.00  0.00    -0.241 N 
ATOM      4  C   UNL d   1     -41.541-122.674 -52.823  0.00  0.00     0.273 A 
ATOM      5  C   UNL d   1     -41.707-121.554 -53.222  0.00  0.00     0.158 A 
ATOM      6  C   UNL d   1     -41.737-122.364 -53.396  0.00  0.00     0.113 A 
ATOM      7  N   UNL d   1     -41.911-120.999 -53.800  0.00  0.00    -0.226 NA
ATOM      8  O   UNL d   1     -41.149-121.433 -51.486  0.00  0.00    -0.245 OA
ATOM      9  C   UNL d   1     -41.971-122.618 -54.147  0.00  0.00     0.103 A 
ATOM     10  O   UNL d   1     -41.551-123.200 -52.903  0.00  0.00    -0.266 OA
ATOM     11  C   UNL d   1     -41.508-120.458 -52.498  0.00  0.00     0.105 C 
ATOM     12  C   UNL d   1     -42.146-121.253 -54.550  0.00  0.00     0.103 A 
ATOM     13  C   UNL d   1     -42.176-122.063 -54.724  0.00  0.00     0.045 A 
ENDROOT
BRANCH   1  14
ATOM     14  C   UNL d   1     -41.124-123.103 -51.575  0.00  0.00     0.087 C 
BRANCH  14  15
ATOM     15  C   UNL d   1     -41.546-123.184 -50.875  0.00  0.00     0.018 A 
ATOM     16  C   UNL d   1     -42.275-123.599 -50.869  0.00  0.00     0.002 A 
ATOM     17  C   UNL d   1     -42.700-123.686 -50.181  0.00  0.00     0.011 A 
ATOM     18  C   UNL d   1     -42.409-123.362 -49.491  0.00  0.00     0.058 A 
ATOM     19  C   UNL d   1     -41.690-122.950 -49.485  0.00  0.00     0.011 A 
ATOM     20 CL   UNL d   1     -42.837-123.447 -48.791  0.00  0.00    -0.082 Cl
ATOM     21  C   UNL d   1     -41.264-122.862 -50.168  0.00  0.00     0.002 A 
ENDBRANCH  14  15
ENDBRANCH   1  14
BRANCH   9  22
ATOM     22  O   UNL d   1     -41.997-123.522 -54.316  0.00  0.00    -0.328 OA
ATOM     23  C   UNL d   1     -42.221-123.805 -55.059  0.00  0.00     0.181 C 
ENDBRANCH   9  22
TORSDOF 3
ENDMDL
MODEL 4
REMARK VINA RESULT:      -1.2      2.226      4.227
REMARK  3 active torsions:
REMARK  status: ('A' for Active; 'I' for Inactive)
REMARK    1  A    between atoms: C_7  and  N_1 
REMARK    2  A    between atoms: C_13  and  C_7 
REMARK    3  A    between atoms: O_18  and  C_10 
ROOT
ATOM      1  N   UNL d   1     -41.372-122.515 -52.854  0.00  0.00    -0.226 N 
ATOM      2  C   UNL d   1     -41.643-123.210 -52.600  0.00  0.00     0.343 A 
ATOM      3  N   UNL d   1     -41.882-123.188 -51.734  0.00  0.00    -0.241 N 
ATOM      4  C   UNL d   1     -41.354-121.950 -52.349  0.00  0.00     0.273 A 
ATOM      5  C   UNL d   1     -41.792-122.539 -51.400  0.00  0.00     0.158 A 
ATOM      6  C   UNL d   1     -41.502-121.822 -51.698  0.00  0.00     0.113 A 
ATOM      7  N   UNL d   1     -42.031-122.593 -50.610  0.00  0.00    -0.226 NA
ATOM      8  O   UNL d   1     -41.735-123.722 -52.791  0.00  0.00    -0.245 OA
ATOM      9  C   UNL d   1     -41.452-121.159 -51.206  0.00  0.00     0.103 A 
ATOM     10  O   UNL d   1     -41.164-121.504 -52.570  0.00  0.00    -0.266 OA
ATOM     11  C   UNL d   1     -42.155-123.817 -51.406  0.00  0.00     0.105 C 
ATOM     12  C   UNL d   1     -41.981-121.930 -50.119  0.00  0.00     0.103 A 
ATOM     13  C   UNL d   1     -41.691-121.213 -50.417  0.00  0.00     0.045 A 
ENDROOT
BRANCH   1  14
ATOM     14  C   UNL d   1     -41.123-122.413 -53.632  0.00  0.00     0.087 C 
BRANCH  14  15
ATOM     15  C   UNL d   1     -41.668-122.301 -54.236  0.00  0.00     0.018 A 
ATOM     16  C   UNL d   1     -41.598-122.738 -54.950  0.00  0.00     0.002 A 
ATOM     17  C   UNL d   1     -42.133-122.635 -55.554  0.00  0.00     0.011 A 
ATOM     18  C   UNL d   1     -42.742-122.100 -55.461  0.00  0.00     0.058 A 
ATOM     19  C   UNL d   1     -42.819-121.663 -54.760  0.00  0.00     0.011 A 
ATOM     20 CL   UNL d   1     -43.285-121.993 -56.071  0.00  0.00    -0.082 Cl
ATOM     21  C   UNL d   1     -42.289-121.763 -54.156  0.00  0.00     0.002 A 
ENDBRANCH  14  15
ENDBRANCH   1  14
BRANCH   9  22
ATOM     22  O   UNL d   1     -41.128-120.374 -51.560  0.00  0.00    -0.328 OA
ATOM     23  C   UNL d   1     -41.125-119.680 -51.112  0.00  0.00     0.181 C 
ENDBRANCH   9  22
TORSDOF 3
ENDMDL
