MODEL 1
REMARK VINA RESULT:      39.7      0.000      0.000
REMARK  5 active torsions:
REMARK  status: ('A' for Active; 'I' for Inactive)
REMARK    1  A    between atoms: C_4  and  N_1 
REMARK    2  A    between atoms: C_8  and  C_3 
REMARK    3  A    between atoms: N_7  and  C_4 
REMARK    4  A    between atoms: C_15  and  N_7 
REMARK    5  A    between atoms: C_17  and  C_15 
ROOT
ATOM      1  N   UNL d   1      14.267  13.877  -2.109  0.00  0.00    -0.281 N 
ATOM      2  C   UNL d   1      14.904  14.532  -1.025  0.00  0.00     0.080 A 
ATOM      3  C   UNL d   1      14.562  13.859  -1.344  0.00  0.00     0.084 A 
ATOM      4  N   UNL d   1      14.951  15.221  -1.469  0.00  0.00    -0.301 N 
ATOM      5  C   UNL d   1      14.315  14.572  -2.557  0.00  0.00     0.101 A 
ATOM      6  C   UNL d   1      15.241  14.680  -0.286  0.00  0.00     0.021 A 
ATOM      7  C   UNL d   1      15.318  15.800  -1.010  0.00  0.00     0.080 A 
ATOM      8  C   UNL d   1      14.660  15.242  -2.229  0.00  0.00     0.100 A 
ATOM      9  C   UNL d   1      15.499  15.470  -0.276  0.00  0.00     0.021 A 
ENDROOT
BRANCH   1  10
ATOM     10  C   UNL d   1      13.920  13.202  -2.441  0.00  0.00     0.184 C 
ATOM     11  S   UNL d   1      13.808  12.539  -1.974  0.00  0.00    -0.040 SA
BRANCH  10  12
ATOM     12  N   UNL d   1      13.690  13.198  -3.227  0.00  0.00    -0.330 N 
ATOM     13  H   UNL d   1      13.590  13.911  -3.632  0.00  0.00     0.168 HD
BRANCH  12  14
ATOM     14  C   UNL d   1      13.559  12.486  -3.613  0.00  0.00     0.074 C 
BRANCH  14  15
ATOM     15  C   UNL d   1      13.383  12.479  -4.414  0.00  0.00     0.017 A 
ATOM     16  C   UNL d   1      13.123  11.782  -4.779  0.00  0.00     0.002 A 
ATOM     17  C   UNL d   1      12.947  11.782  -5.584  0.00  0.00     0.000 A 
ATOM     18  C   UNL d   1      13.027  12.472  -6.034  0.00  0.00     0.000 A 
ATOM     19  C   UNL d   1      13.288  13.168  -5.663  0.00  0.00     0.000 A 
ATOM     20  C   UNL d   1      13.465  13.170  -4.855  0.00  0.00     0.002 A 
ENDBRANCH  14  15
ENDBRANCH  12  14
ENDBRANCH  10  12
ENDBRANCH   1  10
BRANCH   3  21
ATOM     21  C   UNL d   1      14.513  13.166  -0.900  0.00  0.00     0.037 A 
ATOM     22  C   UNL d   1      15.142  12.633  -0.895  0.00  0.00     0.100 A 
ATOM     23  N   UNL d   1      15.086  11.944  -0.450  0.00  0.00    -0.242 NA
ATOM     24  C   UNL d   1      14.421  11.780  -0.016  0.00  0.00     0.099 A 
ATOM     25  C   UNL d   1      13.786  12.311  -0.017  0.00  0.00     0.021 A 
ATOM     26  C   UNL d   1      13.835  13.005  -0.462  0.00  0.00     0.005 A 
ENDBRANCH   3  21
TORSDOF 5
ENDMDL
MODEL 2
REMARK VINA RESULT:      39.8      1.844      4.127
REMARK  5 active torsions:
REMARK  status: ('A' for Active; 'I' for Inactive)
REMARK    1  A    between atoms: C_4  and  N_1 
REMARK    2  A    between atoms: C_8  and  C_3 
REMARK    3  A    between atoms: N_7  and  C_4 
REMARK    4  A    between atoms: C_15  and  N_7 
REMARK    5  A    between atoms: C_17  and  C_15 
ROOT
ATOM      1  N   UNL d   1      13.187  13.416  -3.598  0.00  0.00    -0.281 N 
ATOM      2  C   UNL d   1      13.444  14.374  -4.611  0.00  0.00     0.080 A 
ATOM      3  C   UNL d   1      13.339  13.593  -4.384  0.00  0.00     0.084 A 
ATOM      4  N   UNL d   1      13.397  14.975  -4.053  0.00  0.00    -0.301 N 
ATOM      5  C   UNL d   1      13.140  14.022  -3.036  0.00  0.00     0.101 A 
ATOM      6  C   UNL d   1      13.601  14.717  -5.345  0.00  0.00     0.021 A 
ATOM      7  C   UNL d   1      13.525  15.695  -4.437  0.00  0.00     0.080 A 
ATOM      8  C   UNL d   1      13.247  14.802  -3.272  0.00  0.00     0.100 A 
ATOM      9  C   UNL d   1      13.651  15.540  -5.237  0.00  0.00     0.021 A 
ENDROOT
BRANCH   1  10
ATOM     10  C   UNL d   1      13.079  12.630  -3.359  0.00  0.00     0.184 C 
ATOM     11  S   UNL d   1      12.957  12.053  -3.926  0.00  0.00    -0.040 SA
BRANCH  10  12
ATOM     12  N   UNL d   1      13.094  12.432  -2.564  0.00  0.00    -0.330 N 
ATOM     13  H   UNL d   1      12.678  12.891  -2.017  0.00  0.00     0.168 HD
BRANCH  12  14
ATOM     14  C   UNL d   1      13.521  11.779  -2.310  0.00  0.00     0.074 C 
BRANCH  14  15
ATOM     15  C   UNL d   1      13.895  11.791  -1.581  0.00  0.00     0.017 A 
ATOM     16  C   UNL d   1      14.722  11.810  -1.536  0.00  0.00     0.002 A 
ATOM     17  C   UNL d   1      15.092  11.822  -0.799  0.00  0.00     0.000 A 
ATOM     18  C   UNL d   1      14.645  11.814  -0.102  0.00  0.00     0.000 A 
ATOM     19  C   UNL d   1      13.817  11.794  -0.154  0.00  0.00     0.000 A 
ATOM     20  C   UNL d   1      13.444  11.782  -0.891  0.00  0.00     0.002 A 
ENDBRANCH  14  15
ENDBRANCH  12  14
ENDBRANCH  10  12
ENDBRANCH   1  10
BRANCH   3  21
ATOM     21  C   UNL d   1      13.385  12.988  -4.941  0.00  0.00     0.037 A 
ATOM     22  C   UNL d   1      14.048  12.923  -5.428  0.00  0.00     0.100 A 
ATOM     23  N   UNL d   1      14.086  12.317  -5.982  0.00  0.00    -0.242 NA
ATOM     24  C   UNL d   1      13.483  11.781  -6.057  0.00  0.00     0.099 A 
ATOM     25  C   UNL d   1      12.815  11.840  -5.572  0.00  0.00     0.021 A 
ATOM     26  C   UNL d   1      12.769  12.447  -5.013  0.00  0.00     0.005 A 
ENDBRANCH   3  21
TORSDOF 5
ENDMDL
MODEL 3
REMARK VINA RESULT:      40.3      1.005      3.930
REMARK  5 active torsions:
REMARK  status: ('A' for Active; 'I' for Inactive)
REMARK    1  A    between atoms: C_4  and  N_1 
REMARK    2  A    between atoms: C_8  and  C_3 
REMARK    3  A    between atoms: N_7  and  C_4 
REMARK    4  A    between atoms: C_15  and  N_7 
REMARK    5  A    between atoms: C_17  and  C_15 
ROOT
ATOM      1  N   UNL d   1      14.328  13.699  -2.369  0.00  0.00    -0.281 N 
ATOM      2  C   UNL d   1      13.568  12.589  -2.817  0.00  0.00     0.080 A 
ATOM      3  C   UNL d   1      14.012  12.954  -2.234  0.00  0.00     0.084 A 
ATOM      4  N   UNL d   1      13.440  12.967  -3.535  0.00  0.00    -0.301 N 
ATOM      5  C   UNL d   1      14.199  14.080  -3.093  0.00  0.00     0.101 A 
ATOM      6  C   UNL d   1      13.187  11.857  -2.842  0.00  0.00     0.021 A 
ATOM      7  C   UNL d   1      12.979  12.473  -4.010  0.00  0.00     0.080 A 
ATOM      8  C   UNL d   1      13.752  13.706  -3.673  0.00  0.00     0.100 A 
ATOM      9  C   UNL d   1      12.821  11.784  -3.585  0.00  0.00     0.021 A 
ENDROOT
BRANCH   1  10
ATOM     10  C   UNL d   1      14.778  14.077  -1.785  0.00  0.00     0.184 C 
ATOM     11  S   UNL d   1      15.369  13.658  -1.403  0.00  0.00    -0.040 SA
BRANCH  10  12
ATOM     12  N   UNL d   1      14.634  14.859  -1.592  0.00  0.00    -0.330 N 
ATOM     13  H   UNL d   1      13.978  15.249  -1.910  0.00  0.00     0.168 HD
BRANCH  12  14
ATOM     14  C   UNL d   1      15.139  15.257  -1.082  0.00  0.00     0.074 C 
BRANCH  14  15
ATOM     15  C   UNL d   1      15.185  16.075  -1.105  0.00  0.00     0.017 A 
ATOM     16  C   UNL d   1      15.082  16.481  -1.820  0.00  0.00     0.002 A 
ATOM     17  C   UNL d   1      15.130  17.303  -1.834  0.00  0.00     0.000 A 
ATOM     18  C   UNL d   1      15.280  17.731  -1.142  0.00  0.00     0.000 A 
ATOM     19  C   UNL d   1      15.383  17.319  -0.428  0.00  0.00     0.000 A 
ATOM     20  C   UNL d   1      15.336  16.494  -0.410  0.00  0.00     0.002 A 
ENDBRANCH  14  15
ENDBRANCH  12  14
ENDBRANCH  10  12
ENDBRANCH   1  10
BRANCH   3  21
ATOM     21  C   UNL d   1      14.142  12.577  -1.512  0.00  0.00     0.037 A 
ATOM     22  C   UNL d   1      14.841  12.159  -1.384  0.00  0.00     0.100 A 
ATOM     23  N   UNL d   1      14.963  11.786  -0.662  0.00  0.00    -0.242 NA
ATOM     24  C   UNL d   1      14.407  11.822  -0.073  0.00  0.00     0.099 A 
ATOM     25  C   UNL d   1      13.703  12.240  -0.196  0.00  0.00     0.021 A 
ATOM     26  C   UNL d   1      13.573  12.618  -0.918  0.00  0.00     0.005 A 
ENDBRANCH   3  21
TORSDOF 5
ENDMDL
