MODEL 1
REMARK VINA RESULT:      12.9      0.000      0.000
REMARK  7 active torsions:
REMARK  status: ('A' for Active; 'I' for Inactive)
REMARK    1  A    between atoms: C_4  and  C_1 
REMARK    2  A    between atoms: N_5  and  C_3 
REMARK    3  A    between atoms: C_9  and  C_4 
REMARK       I    between atoms: C_7  and  N_5 
REMARK    4  A    between atoms: C_10  and  C_7 
REMARK       I    between atoms: N_14  and  C_9 
REMARK    5  A    between atoms: C_20  and  N_14 
REMARK    6  A    between atoms: C_21  and  C_20 
REMARK    7  A    between atoms: O_29  and  C_22 
ROOT
ATOM      1  C   UNL d   1     -42.637-121.177 -51.718  0.00  0.00     0.144 C 
ATOM      2  C   UNL d   1     -42.108-120.570 -51.893  0.00  0.00     0.107 C 
ATOM      3  N   UNL d   1     -41.577-119.971 -52.061  0.00  0.00    -0.191 NA
ENDROOT
BRANCH   1   4
ATOM      4  C   UNL d   1     -42.454-121.746 -51.136  0.00  0.00     0.097 A 
ATOM      5  N   UNL d   1     -42.667-121.777 -50.340  0.00  0.00    -0.226 NA
ATOM      6  C   UNL d   1     -42.339-122.461 -50.012  0.00  0.00     0.166 A 
ATOM      7  C   UNL d   1     -41.922-122.854 -50.605  0.00  0.00     0.037 A 
ATOM      8  C   UNL d   1     -41.989-122.417 -51.306  0.00  0.00     0.021 A 
ATOM      9  C   UNL d   1     -41.488-123.555 -50.604  0.00  0.00     0.003 A 
ATOM     10  C   UNL d   1     -41.626-122.679 -51.994  0.00  0.00     0.002 A 
ATOM     11  C   UNL d   1     -41.191-123.380 -51.993  0.00  0.00     0.000 A 
ATOM     12  C   UNL d   1     -41.124-123.817 -51.293  0.00  0.00     0.000 A 
BRANCH   6  13
ATOM     13  N   UNL d   1     -42.391-122.737 -49.246  0.00  0.00    -0.189 NA
ATOM     14  C   UNL d   1     -42.953-122.546 -48.658  0.00  0.00     0.286 C 
ATOM     15  O   UNL d   1     -43.549-122.009 -48.845  0.00  0.00    -0.265 OA
BRANCH  14  16
ATOM     16  C   UNL d   1     -42.923-122.880 -47.905  0.00  0.00     0.087 A 
ATOM     17  S   UNL d   1     -42.324-122.664 -47.380  0.00  0.00    -0.082 SA
ATOM     18  C   UNL d   1     -42.441-123.087 -46.678  0.00  0.00     0.036 A 
ATOM     19  C   UNL d   1     -43.113-123.563 -46.773  0.00  0.00     0.008 A 
ATOM     20  C   UNL d   1     -43.409-123.434 -47.530  0.00  0.00     0.012 A 
ENDBRANCH  14  16
ENDBRANCH   6  13
ENDBRANCH   1   4
BRANCH   1  21
ATOM     21  C   UNL d   1     -43.358-121.224 -52.124  0.00  0.00     0.290 C 
ATOM     22  N   UNL d   1     -43.368-121.378 -52.930  0.00  0.00    -0.206 NA
ATOM     23  O   UNL d   1     -44.067-121.117 -51.719  0.00  0.00    -0.264 OA
BRANCH  22  24
ATOM     24  C   UNL d   1     -42.651-121.486 -53.337  0.00  0.00     0.102 C 
BRANCH  24  25
ATOM     25  C   UNL d   1     -42.441-121.592 -54.132  0.00  0.00     0.019 A 
ATOM     26  C   UNL d   1     -41.843-122.124 -54.324  0.00  0.00     0.004 A 
ATOM     27  C   UNL d   1     -41.630-122.233 -55.108  0.00  0.00     0.024 A 
ATOM     28  C   UNL d   1     -42.017-121.807 -55.709  0.00  0.00     0.094 A 
ATOM     29  C   UNL d   1     -42.614-121.276 -55.516  0.00  0.00     0.024 A 
ATOM     30  C   UNL d   1     -42.824-121.170 -54.721  0.00  0.00     0.004 A 
BRANCH  28  31
ATOM     31  O   UNL d   1     -41.804-121.916 -56.495  0.00  0.00    -0.328 OA
ATOM     32  C   UNL d   1     -42.165-121.473 -57.092  0.00  0.00     0.181 C 
ENDBRANCH  28  31
ENDBRANCH  24  25
ENDBRANCH  22  24
ENDBRANCH   1  21
TORSDOF 7
ENDMDL
