MODEL 1
REMARK VINA RESULT:      -1.0      0.000      0.000
REMARK  4 active torsions:
REMARK  status: ('A' for Active; 'I' for Inactive)
REMARK    1  A    between atoms: C_8  and  C_6 
REMARK    2  A    between atoms: C_9  and  C_8 
REMARK       I    between atoms: N_11  and  C_9 
REMARK       I    between atoms: C_10  and  N_12 
REMARK    3  A    between atoms: C_17  and  N_11 
REMARK    4  A    between atoms: N_12  and  C_18 
ROOT
ATOM      1  N   UNL d   1     -43.438-122.677 -50.061  0.00  0.00    -0.207 NA
ATOM      2  N   UNL d   1     -41.768-122.798 -50.163  0.00  0.00    -0.240 NA
ATOM      3  C   UNL d   1     -42.909-122.466 -50.642  0.00  0.00     0.297 A 
ATOM      4  C   UNL d   1     -43.303-123.025 -49.325  0.00  0.00     0.086 A 
ATOM      5  C   UNL d   1     -41.871-123.126 -49.418  0.00  0.00     0.083 A 
ATOM      6  C   UNL d   1     -42.344-122.508 -50.674  0.00  0.00     0.144 A 
ATOM      7  C   UNL d   1     -42.572-123.249 -48.993  0.00  0.00     0.035 A 
ATOM      8  O   UNL d   1     -43.240-122.128 -51.315  0.00  0.00    -0.264 OA
ATOM      9  C   UNL d   1     -42.556-123.592 -48.241  0.00  0.00     0.003 A 
ATOM     10  C   UNL d   1     -41.147-123.348 -49.090  0.00  0.00     0.019 A 
ATOM     11  C   UNL d   1     -44.004-123.146 -48.903  0.00  0.00     0.019 A 
ATOM     12  C   UNL d   1     -41.124-123.696 -48.327  0.00  0.00     0.002 A 
ATOM     13  C   UNL d   1     -43.980-123.490 -48.152  0.00  0.00     0.002 A 
ATOM     14  C   UNL d   1     -43.257-123.712 -47.822  0.00  0.00     0.000 A 
ATOM     15  C   UNL d   1     -41.824-123.816 -47.908  0.00  0.00     0.000 A 
ENDROOT
BRANCH   6  16
ATOM     16  C   UNL d   1     -42.036-122.218 -51.381  0.00  0.00     0.086 C 
BRANCH  16  17
ATOM     17  C   UNL d   1     -41.463-121.614 -51.359  0.00  0.00     0.281 C 
ATOM     18  N   UNL d   1     -41.123-121.344 -52.063  0.00  0.00    -0.208 NA
ATOM     19  O   UNL d   1     -41.233-121.284 -50.638  0.00  0.00    -0.265 OA
BRANCH  18  20
ATOM     20  C   UNL d   1     -41.350-121.672 -52.787  0.00  0.00     0.085 A 
ATOM     21  C   UNL d   1     -41.785-121.220 -53.318  0.00  0.00     0.021 A 
ATOM     22  C   UNL d   1     -42.014-121.540 -54.041  0.00  0.00     0.021 A 
ATOM     23  C   UNL d   1     -41.804-122.320 -54.232  0.00  0.00     0.085 A 
ATOM     24  C   UNL d   1     -41.367-122.770 -53.696  0.00  0.00     0.021 A 
ATOM     25  C   UNL d   1     -41.140-122.446 -52.975  0.00  0.00     0.021 A 
BRANCH  23  26
ATOM     26  N   UNL d   1     -42.028-122.638 -54.941  0.00  0.00    -0.208 NA
ATOM     27  C   UNL d   1     -42.539-122.229 -55.427  0.00  0.00     0.279 C 
ATOM     28  O   UNL d   1     -42.825-121.505 -55.204  0.00  0.00    -0.265 OA
ATOM     29  C   UNL d   1     -42.766-122.548 -56.144  0.00  0.00     0.068 C 
ENDBRANCH  23  26
ENDBRANCH  18  20
ENDBRANCH  16  17
ENDBRANCH   6  16
TORSDOF 4
ENDMDL
