MODEL 1
REMARK VINA RESULT:      18.1      0.000      0.000
REMARK  5 active torsions:
REMARK  status: ('A' for Active; 'I' for Inactive)
REMARK    1  A    between atoms: N_2  and  S_1 
REMARK    2  A    between atoms: C_3  and  S_1 
REMARK    3  A    between atoms: C_6  and  C_4 
REMARK    4  A    between atoms: O_15  and  C_6 
REMARK    5  A    between atoms: C_18  and  O_15 
ROOT
ATOM      1  N   UNL d   1      13.514  12.388  -2.957  0.00  0.00    -0.229 N 
ATOM      2  C   UNL d   1      13.162  13.321  -3.969  0.00  0.00     0.082 A 
ATOM      3  C   UNL d   1      13.511  13.153  -3.242  0.00  0.00     0.097 A 
ATOM      4  C   UNL d   1      13.168  11.780  -3.394  0.00  0.00     0.092 A 
ATOM      5  C   UNL d   1      12.815  12.724  -4.412  0.00  0.00     0.008 A 
ATOM      6  C   UNL d   1      12.818  11.951  -4.124  0.00  0.00     0.020 A 
ENDROOT
BRANCH   1   7
ATOM      7  S   UNL d   1      13.863  12.220  -2.230  0.00  0.00     0.277 S 
ATOM      8  O   UNL d   1      13.133  11.976  -1.936  0.00  0.00    -0.199 OA
ATOM      9  O   UNL d   1      14.595  12.464  -2.525  0.00  0.00    -0.199 OA
BRANCH   7  10
ATOM     10  C   UNL d   1      14.213  12.051  -1.501  0.00  0.00     0.133 A 
ATOM     11  S   UNL d   1      14.929  11.949  -1.121  0.00  0.00    -0.074 SA
ATOM     12  C   UNL d   1      14.778  11.779  -0.325  0.00  0.00     0.036 A 
ATOM     13  C   UNL d   1      13.955  11.781  -0.226  0.00  0.00     0.008 A 
ATOM     14  C   UNL d   1      13.606  11.949  -0.953  0.00  0.00     0.020 A 
ENDBRANCH   7  10
ENDBRANCH   1   7
BRANCH   2  15
ATOM     15  C   UNL d   1      13.163  14.100  -4.252  0.00  0.00     0.302 C 
ATOM     16  O   UNL d   1      12.886  14.271  -5.008  0.00  0.00    -0.259 OA
BRANCH  15  17
ATOM     17  O   UNL d   1      13.444  14.709  -3.770  0.00  0.00    -0.271 OA
BRANCH  17  18
ATOM     18  C   UNL d   1      13.701  15.412  -4.104  0.00  0.00     0.126 C 
ATOM     19  C   UNL d   1      14.272  15.869  -3.720  0.00  0.00     0.029 C 
ENDBRANCH  17  18
ENDBRANCH  15  17
ENDBRANCH   2  15
TORSDOF 5
ENDMDL
