MODEL 1
REMARK VINA RESULT:     -10.9      0.000      0.000
REMARK  3 active torsions:
REMARK  status: ('A' for Active; 'I' for Inactive)
REMARK    1  A    between atoms: C_14  and  C_1 
REMARK    2  A    between atoms: C_3  and  C_8 
REMARK       I    between atoms: C_8  and  N_13 
REMARK    3  A    between atoms: N_13  and  C_15 
ROOT
ATOM      1  C   UNL d   1      54.129  32.185  53.961  0.00  0.00     0.025 A 
ATOM      2  C   UNL d   1      54.219  33.472  54.588  0.00  0.00     0.085 A 
ATOM      3  C   UNL d   1      53.935  32.698  54.582  0.00  0.00     0.021 A 
ATOM      4  C   UNL d   1      54.584  32.412  53.364  0.00  0.00     0.002 A 
ATOM      5  C   UNL d   1      54.873  33.164  53.350  0.00  0.00     0.002 A 
ATOM      6  C   UNL d   1      54.709  33.728  53.953  0.00  0.00     0.019 A 
ENDROOT
BRANCH   2   7
ATOM      7  N   UNL d   1      54.038  33.992  55.192  0.00  0.00    -0.206 NA
ATOM      8  C   UNL d   1      53.381  34.501  55.102  0.00  0.00     0.302 C 
ATOM      9  O   UNL d   1      53.201  35.039  55.737  0.00  0.00    -0.263 OA
BRANCH   8  10
ATOM     10  C   UNL d   1      52.944  34.476  54.438  0.00  0.00     0.161 A 
ATOM     11  C   UNL d   1      53.204  34.941  53.825  0.00  0.00     0.072 A 
ATOM     12  C   UNL d   1      52.762  34.925  53.133  0.00  0.00     0.200 A 
ATOM     13  O   UNL d   1      53.002  35.378  52.513  0.00  0.00    -0.286 OA
ATOM     14  C   UNL d   1      52.085  34.460  53.063  0.00  0.00     0.062 A 
ATOM     15  C   UNL d   1      51.832  33.993  53.695  0.00  0.00     0.103 A 
ATOM     16  C   UNL d   1      51.638  34.440  52.372  0.00  0.00     0.005 A 
ATOM     17  O   UNL d   1      52.258  33.990  54.401  0.00  0.00    -0.302 OA
ATOM     18  C   UNL d   1      51.138  33.521  53.612  0.00  0.00     0.025 A 
ATOM     19  C   UNL d   1      50.704  33.502  52.939  0.00  0.00     0.002 A 
ATOM     20  C   UNL d   1      50.961  33.962  52.330  0.00  0.00     0.000 A 
ENDBRANCH   8  10
ENDBRANCH   2   7
BRANCH   1  21
ATOM     21  C   UNL d   1      53.819  31.403  53.992  0.00  0.00     0.111 A 
ATOM     22  N   UNL d   1      53.718  30.877  54.618  0.00  0.00    -0.239 NA
ATOM     23  C   UNL d   1      53.384  30.180  54.322  0.00  0.00     0.088 A 
ATOM     24  C   UNL d   1      53.151  29.457  54.656  0.00  0.00     0.020 A 
ATOM     25  C   UNL d   1      53.284  30.292  53.512  0.00  0.00     0.049 A 
ATOM     26  C   UNL d   1      52.816  28.826  54.205  0.00  0.00     0.002 A 
ATOM     27  C   UNL d   1      52.714  28.944  53.371  0.00  0.00     0.001 A 
ATOM     28  C   UNL d   1      52.954  29.684  53.042  0.00  0.00     0.008 A 
ATOM     29  S   UNL d   1      53.560  31.061  53.318  0.00  0.00    -0.066 SA
ENDBRANCH   1  21
TORSDOF 3
ENDMDL
MODEL 2
REMARK VINA RESULT:      -8.0      1.747      4.137
REMARK  3 active torsions:
REMARK  status: ('A' for Active; 'I' for Inactive)
REMARK    1  A    between atoms: C_14  and  C_1 
REMARK    2  A    between atoms: C_3  and  C_8 
REMARK       I    between atoms: C_8  and  N_13 
REMARK    3  A    between atoms: N_13  and  C_15 
ROOT
ATOM      1  C   UNL d   1      52.152  34.167  53.485  0.00  0.00     0.025 A 
ATOM      2  C   UNL d   1      53.565  34.039  53.701  0.00  0.00     0.085 A 
ATOM      3  C   UNL d   1      52.922  34.100  53.187  0.00  0.00     0.021 A 
ATOM      4  C   UNL d   1      52.006  34.174  54.255  0.00  0.00     0.002 A 
ATOM      5  C   UNL d   1      52.619  34.116  54.775  0.00  0.00     0.002 A 
ATOM      6  C   UNL d   1      53.421  34.046  54.530  0.00  0.00     0.019 A 
ENDROOT
BRANCH   2   7
ATOM      7  N   UNL d   1      54.331  33.973  53.425  0.00  0.00    -0.206 NA
ATOM      8  C   UNL d   1      54.675  33.213  53.369  0.00  0.00     0.302 C 
ATOM      9  O   UNL d   1      55.474  33.156  53.080  0.00  0.00    -0.263 OA
BRANCH   8  10
ATOM     10  C   UNL d   1      54.260  32.569  53.581  0.00  0.00     0.161 A 
ATOM     11  C   UNL d   1      54.279  32.380  54.372  0.00  0.00     0.072 A 
ATOM     12  C   UNL d   1      53.854  31.718  54.606  0.00  0.00     0.200 A 
ATOM     13  O   UNL d   1      53.860  31.513  55.384  0.00  0.00    -0.286 OA
ATOM     14  C   UNL d   1      53.428  31.264  54.065  0.00  0.00     0.062 A 
ATOM     15  C   UNL d   1      53.417  31.468  53.265  0.00  0.00     0.103 A 
ATOM     16  C   UNL d   1      53.000  30.599  54.294  0.00  0.00     0.005 A 
ATOM     17  O   UNL d   1      53.836  32.129  53.004  0.00  0.00    -0.302 OA
ATOM     18  C   UNL d   1      52.978  30.997  52.721  0.00  0.00     0.025 A 
ATOM     19  C   UNL d   1      52.562  30.350  52.946  0.00  0.00     0.002 A 
ATOM     20  C   UNL d   1      52.580  30.161  53.728  0.00  0.00     0.000 A 
ENDBRANCH   8  10
ENDBRANCH   2   7
BRANCH   1  21
ATOM     21  C   UNL d   1      51.524  34.227  52.927  0.00  0.00     0.111 A 
ATOM     22  N   UNL d   1      51.513  34.174  52.105  0.00  0.00    -0.239 NA
ATOM     23  C   UNL d   1      50.734  34.277  51.847  0.00  0.00     0.088 A 
ATOM     24  C   UNL d   1      50.361  34.286  51.106  0.00  0.00     0.020 A 
ATOM     25  C   UNL d   1      50.276  34.392  52.522  0.00  0.00     0.049 A 
ATOM     26  C   UNL d   1      49.530  34.407  51.008  0.00  0.00     0.002 A 
ATOM     27  C   UNL d   1      49.061  34.526  51.704  0.00  0.00     0.001 A 
ATOM     28  C   UNL d   1      49.451  34.515  52.454  0.00  0.00     0.008 A 
ATOM     29  S   UNL d   1      50.782  34.359  53.192  0.00  0.00    -0.066 SA
ENDBRANCH   1  21
TORSDOF 3
ENDMDL
