MODEL 1
REMARK VINA RESULT:     -10.0      0.000      0.000
REMARK  4 active torsions:
REMARK  status: ('A' for Active; 'I' for Inactive)
REMARK    1  A    between atoms: C_15  and  N_5 
REMARK    2  A    between atoms: N_13  and  C_7 
REMARK    3  A    between atoms: C_18  and  N_13 
REMARK    4  A    between atoms: C_16  and  C_15 
ROOT
ATOM      1  N   UNL d   1      52.560  32.886  53.200  0.00  0.00     0.039 N 
ATOM      2  C   UNL d   1      52.611  32.091  52.994  0.00  0.00     0.755 A 
ATOM      3  C   UNL d   1      53.088  33.223  53.721  0.00  0.00     0.134 A 
ATOM      4  C   UNL d   1      53.691  32.763  54.054  0.00  0.00     0.081 A 
ATOM      5  N   UNL d   1      53.215  31.626  53.326  0.00  0.00    -0.103 N 
ATOM      6  C   UNL d   1      53.755  31.964  53.856  0.00  0.00     0.281 A 
ATOM      7  C   UNL d   1      51.919  33.201  52.792  0.00  0.00     0.768 A 
ATOM      8  N   UNL d   1      52.010  31.922  52.467  0.00  0.00     0.060 NA
ATOM      9  S   UNL d   1      53.165  33.986  54.018  0.00  0.00    -0.068 SA
ATOM     10  N   UNL d   1      51.580  32.608  52.341  0.00  0.00     0.061 NA
ATOM     11  C   UNL d   1      54.138  33.242  54.555  0.00  0.00     0.013 A 
ATOM     12  C   UNL d   1      53.813  33.999  54.532  0.00  0.00     0.031 A 
ATOM     13  O   UNL d   1      54.357  31.505  54.189  0.00  0.00    -0.266 OA
ATOM     14  C   UNL d   1      54.795  33.089  55.025  0.00  0.00     0.001 A 
ATOM     15  C   UNL d   1      54.141  34.610  54.980  0.00  0.00     0.006 A 
ATOM     16  C   UNL d   1      55.126  33.694  55.474  0.00  0.00     0.000 A 
ATOM     17  C   UNL d   1      54.798  34.458  55.451  0.00  0.00     0.001 A 
ENDROOT
BRANCH   7  18
ATOM     18  N   UNL d   1      51.660  33.988  52.832  0.00  0.00    -0.059 NA
BRANCH  18  19
ATOM     19  C   UNL d   1      50.922  34.203  52.518  0.00  0.00     0.100 A 
ATOM     20  C   UNL d   1      50.290  34.356  53.034  0.00  0.00     0.020 A 
ATOM     21  C   UNL d   1      49.552  34.570  52.728  0.00  0.00     0.002 A 
ATOM     22  C   UNL d   1      49.452  34.629  51.908  0.00  0.00     0.000 A 
ATOM     23  C   UNL d   1      50.087  34.475  51.393  0.00  0.00     0.002 A 
ATOM     24  C   UNL d   1      50.825  34.260  51.706  0.00  0.00     0.020 A 
ENDBRANCH  18  19
ENDBRANCH   7  18
BRANCH   5  25
ATOM     25  C   UNL d   1      53.277  30.832  53.129  0.00  0.00     0.101 C 
BRANCH  25  26
ATOM     26  C   UNL d   1      53.006  30.252  53.647  0.00  0.00     0.020 C 
ATOM     27  C   UNL d   1      53.034  29.456  53.439  0.00  0.00     0.002 C 
ENDBRANCH  25  26
ENDBRANCH   5  25
TORSDOF 4
ENDMDL
MODEL 2
REMARK VINA RESULT:      -9.9      0.865      2.756
REMARK  4 active torsions:
REMARK  status: ('A' for Active; 'I' for Inactive)
REMARK    1  A    between atoms: C_15  and  N_5 
REMARK    2  A    between atoms: N_13  and  C_7 
REMARK    3  A    between atoms: C_18  and  N_13 
REMARK    4  A    between atoms: C_16  and  C_15 
ROOT
ATOM      1  N   UNL d   1      52.654  33.143  53.243  0.00  0.00     0.039 N 
ATOM      2  C   UNL d   1      53.239  33.630  53.557  0.00  0.00     0.755 A 
ATOM      3  C   UNL d   1      52.737  32.332  53.239  0.00  0.00     0.134 A 
ATOM      4  C   UNL d   1      53.419  31.984  53.554  0.00  0.00     0.081 A 
ATOM      5  N   UNL d   1      53.925  33.284  53.874  0.00  0.00    -0.103 N 
ATOM      6  C   UNL d   1      54.014  32.460  53.871  0.00  0.00     0.281 A 
ATOM      7  C   UNL d   1      52.051  33.632  52.974  0.00  0.00     0.768 A 
ATOM      8  N   UNL d   1      52.996  34.406  53.480  0.00  0.00     0.060 NA
ATOM      9  S   UNL d   1      52.251  31.726  52.968  0.00  0.00    -0.068 SA
ATOM     10  N   UNL d   1      52.261  34.410  53.120  0.00  0.00     0.061 NA
ATOM     11  C   UNL d   1      53.354  31.166  53.477  0.00  0.00     0.013 A 
ATOM     12  C   UNL d   1      52.631  31.006  53.114  0.00  0.00     0.031 A 
ATOM     13  O   UNL d   1      54.695  32.113  54.186  0.00  0.00    -0.266 OA
ATOM     14  C   UNL d   1      53.854  30.549  53.688  0.00  0.00     0.001 A 
ATOM     15  C   UNL d   1      52.402  30.228  52.959  0.00  0.00     0.006 A 
ATOM     16  C   UNL d   1      53.632  29.771  53.536  0.00  0.00     0.000 A 
ATOM     17  C   UNL d   1      52.902  29.610  53.170  0.00  0.00     0.001 A 
ENDROOT
BRANCH   7  18
ATOM     18  N   UNL d   1      51.347  33.378  52.616  0.00  0.00    -0.059 NA
BRANCH  18  19
ATOM     19  C   UNL d   1      50.711  33.905  52.522  0.00  0.00     0.100 A 
ATOM     20  C   UNL d   1      50.484  34.135  51.759  0.00  0.00     0.020 A 
ATOM     21  C   UNL d   1      49.851  34.659  51.658  0.00  0.00     0.002 A 
ATOM     22  C   UNL d   1      49.451  34.948  52.324  0.00  0.00     0.000 A 
ATOM     23  C   UNL d   1      49.681  34.715  53.089  0.00  0.00     0.002 A 
ATOM     24  C   UNL d   1      50.317  34.189  53.183  0.00  0.00     0.020 A 
ENDBRANCH  18  19
ENDBRANCH   7  18
BRANCH   5  25
ATOM     25  C   UNL d   1      54.516  33.759  54.189  0.00  0.00     0.101 C 
BRANCH  25  26
ATOM     26  C   UNL d   1      54.672  33.746  54.998  0.00  0.00     0.020 C 
ATOM     27  C   UNL d   1      55.319  34.152  55.307  0.00  0.00     0.002 C 
ENDBRANCH  25  26
ENDBRANCH   5  25
TORSDOF 4
ENDMDL
MODEL 3
REMARK VINA RESULT:      -9.2      1.017      3.519
REMARK  4 active torsions:
REMARK  status: ('A' for Active; 'I' for Inactive)
REMARK    1  A    between atoms: C_15  and  N_5 
REMARK    2  A    between atoms: N_13  and  C_7 
REMARK    3  A    between atoms: C_18  and  N_13 
REMARK    4  A    between atoms: C_16  and  C_15 
ROOT
ATOM      1  N   UNL d   1      53.009  32.430  53.332  0.00  0.00     0.039 N 
ATOM      2  C   UNL d   1      52.377  32.774  52.932  0.00  0.00     0.755 A 
ATOM      3  C   UNL d   1      53.485  32.868  53.829  0.00  0.00     0.134 A 
ATOM      4  C   UNL d   1      53.335  33.675  53.939  0.00  0.00     0.081 A 
ATOM      5  N   UNL d   1      52.225  33.585  53.041  0.00  0.00    -0.103 N 
ATOM      6  C   UNL d   1      52.705  34.034  53.544  0.00  0.00     0.281 A 
ATOM      7  C   UNL d   1      53.025  31.636  53.121  0.00  0.00     0.768 A 
ATOM      8  N   UNL d   1      52.012  32.198  52.483  0.00  0.00     0.060 NA
ATOM      9  S   UNL d   1      54.138  32.671  54.288  0.00  0.00    -0.068 SA
ATOM     10  N   UNL d   1      52.412  31.493  52.599  0.00  0.00     0.061 NA
ATOM     11  C   UNL d   1      53.896  33.975  54.464  0.00  0.00     0.013 A 
ATOM     12  C   UNL d   1      54.393  33.354  54.680  0.00  0.00     0.031 A 
ATOM     13  O   UNL d   1      52.556  34.840  53.654  0.00  0.00    -0.266 OA
ATOM     14  C   UNL d   1      54.019  34.727  54.772  0.00  0.00     0.001 A 
ATOM     15  C   UNL d   1      55.017  33.479  55.206  0.00  0.00     0.006 A 
ATOM     16  C   UNL d   1      54.639  34.858  55.297  0.00  0.00     0.000 A 
ATOM     17  C   UNL d   1      55.140  34.231  55.514  0.00  0.00     0.001 A 
ENDROOT
BRANCH   7  18
ATOM     18  N   UNL d   1      53.572  31.075  53.393  0.00  0.00    -0.059 NA
BRANCH  18  19
ATOM     19  C   UNL d   1      53.332  30.293  53.539  0.00  0.00     0.100 A 
ATOM     20  C   UNL d   1      53.378  29.991  54.311  0.00  0.00     0.020 A 
ATOM     21  C   UNL d   1      53.141  29.213  54.463  0.00  0.00     0.002 A 
ATOM     22  C   UNL d   1      52.859  28.743  53.841  0.00  0.00     0.000 A 
ATOM     23  C   UNL d   1      52.815  29.048  53.068  0.00  0.00     0.002 A 
ATOM     24  C   UNL d   1      53.055  29.830  52.922  0.00  0.00     0.020 A 
ENDBRANCH  18  19
ENDBRANCH   7  18
BRANCH   5  25
ATOM     25  C   UNL d   1      51.598  33.940  52.647  0.00  0.00     0.101 C 
BRANCH  25  26
ATOM     26  C   UNL d   1      50.874  34.041  53.026  0.00  0.00     0.020 C 
ATOM     27  C   UNL d   1      50.237  34.380  52.630  0.00  0.00     0.002 C 
ENDBRANCH  25  26
ENDBRANCH   5  25
TORSDOF 4
ENDMDL
MODEL 4
REMARK VINA RESULT:      -8.1      1.273      4.155
REMARK  4 active torsions:
REMARK  status: ('A' for Active; 'I' for Inactive)
REMARK    1  A    between atoms: C_15  and  N_5 
REMARK    2  A    between atoms: N_13  and  C_7 
REMARK    3  A    between atoms: C_18  and  N_13 
REMARK    4  A    between atoms: C_16  and  C_15 
ROOT
ATOM      1  N   UNL d   1      53.222  32.443  53.619  0.00  0.00     0.039 N 
ATOM      2  C   UNL d   1      53.901  32.818  53.895  0.00  0.00     0.755 A 
ATOM      3  C   UNL d   1      52.550  32.867  53.435  0.00  0.00     0.134 A 
ATOM      4  C   UNL d   1      52.544  33.691  53.524  0.00  0.00     0.081 A 
ATOM      5  N   UNL d   1      53.897  33.644  53.985  0.00  0.00    -0.103 N 
ATOM      6  C   UNL d   1      53.218  34.079  53.800  0.00  0.00     0.281 A 
ATOM      7  C   UNL d   1      53.385  31.639  53.586  0.00  0.00     0.768 A 
ATOM      8  N   UNL d   1      54.472  32.250  54.028  0.00  0.00     0.060 NA
ATOM      9  S   UNL d   1      51.811  32.642  53.156  0.00  0.00    -0.068 SA
ATOM     10  N   UNL d   1      54.155  31.519  53.838  0.00  0.00     0.061 NA
ATOM     11  C   UNL d   1      51.801  33.971  53.300  0.00  0.00     0.013 A 
ATOM     12  C   UNL d   1      51.348  33.322  53.072  0.00  0.00     0.031 A 
ATOM     13  O   UNL d   1      53.211  34.902  53.889  0.00  0.00    -0.266 OA
ATOM     14  C   UNL d   1      51.481  34.728  53.274  0.00  0.00     0.001 A 
ATOM     15  C   UNL d   1      50.569  33.423  52.815  0.00  0.00     0.006 A 
ATOM     16  C   UNL d   1      50.706  34.835  53.019  0.00  0.00     0.000 A 
ATOM     17  C   UNL d   1      50.248  34.180  52.789  0.00  0.00     0.001 A 
ENDROOT
BRANCH   7  18
ATOM     18  N   UNL d   1      52.858  31.048  53.339  0.00  0.00    -0.059 NA
BRANCH  18  19
ATOM     19  C   UNL d   1      52.976  30.258  53.569  0.00  0.00     0.100 A 
ATOM     20  C   UNL d   1      53.143  29.688  52.990  0.00  0.00     0.020 A 
ATOM     21  C   UNL d   1      53.261  28.900  53.212  0.00  0.00     0.002 A 
ATOM     22  C   UNL d   1      53.212  28.689  54.013  0.00  0.00     0.000 A 
ATOM     23  C   UNL d   1      53.044  29.263  54.591  0.00  0.00     0.002 A 
ATOM     24  C   UNL d   1      52.926  30.053  54.361  0.00  0.00     0.020 A 
ENDBRANCH  18  19
ENDBRANCH   7  18
BRANCH   5  25
ATOM     25  C   UNL d   1      54.569  34.030  54.259  0.00  0.00     0.101 C 
BRANCH  25  26
ATOM     26  C   UNL d   1      54.739  34.046  55.065  0.00  0.00     0.020 C 
ATOM     27  C   UNL d   1      55.479  34.289  55.332  0.00  0.00     0.002 C 
ENDBRANCH  25  26
ENDBRANCH   5  25
TORSDOF 4
ENDMDL
