MODEL 1
REMARK VINA RESULT:      -4.8      0.000      0.000
REMARK  4 active torsions:
REMARK  status: ('A' for Active; 'I' for Inactive)
REMARK    1  A    between atoms: S_2  and  N_1 
REMARK    2  A    between atoms: C_6  and  S_2 
REMARK    3  A    between atoms: C_10  and  C_6 
REMARK    4  A    between atoms: C_11  and  C_10 
ROOT
ATOM      1  S   UNL d   1      58.011  -0.044  30.322  0.00  0.00     0.287 S 
ATOM      2  O   UNL d   1      57.760  -0.776  30.030  0.00  0.00    -0.198 OA
ATOM      3  O   UNL d   1      58.248   0.681  30.621  0.00  0.00    -0.198 OA
ENDROOT
BRANCH   1   4
ATOM      4  N   UNL d   1      58.662  -0.046  29.823  0.00  0.00    -0.152 N 
ATOM      5  N   UNL d   1      59.398  -0.388  29.997  0.00  0.00    -0.155 NA
ATOM      6  C   UNL d   1      59.890  -0.261  29.342  0.00  0.00     0.104 A 
ATOM      7  C   UNL d   1      60.675  -0.507  29.270  0.00  0.00     0.022 C 
ATOM      8  C   UNL d   1      59.452   0.156  28.776  0.00  0.00     0.041 A 
ATOM      9  C   UNL d   1      58.695   0.288  29.073  0.00  0.00     0.096 A 
ATOM     10  C   UNL d   1      58.086   0.682  28.688  0.00  0.00     0.022 C 
ENDBRANCH   1   4
BRANCH   1  11
ATOM     11  C   UNL d   1      57.360  -0.025  30.833  0.00  0.00     0.117 C 
BRANCH  11  12
ATOM     12  C   UNL d   1      57.452  -0.256  31.626  0.00  0.00     0.014 C 
BRANCH  12  13
ATOM     13  C   UNL d   1      56.797  -0.305  32.122  0.00  0.00     0.001 A 
ATOM     14  C   UNL d   1      56.460   0.374  32.418  0.00  0.00     0.000 A 
ATOM     15  C   UNL d   1      55.805   0.325  32.915  0.00  0.00     0.000 A 
ATOM     16  C   UNL d   1      55.490  -0.413  33.111  0.00  0.00     0.000 A 
ATOM     17  C   UNL d   1      55.835  -1.098  32.807  0.00  0.00     0.000 A 
ATOM     18  C   UNL d   1      56.491  -1.048  32.311  0.00  0.00     0.000 A 
ENDBRANCH  12  13
ENDBRANCH  11  12
ENDBRANCH   1  11
TORSDOF 4
ENDMDL
MODEL 2
REMARK VINA RESULT:      -4.2      1.785      4.351
REMARK  4 active torsions:
REMARK  status: ('A' for Active; 'I' for Inactive)
REMARK    1  A    between atoms: S_2  and  N_1 
REMARK    2  A    between atoms: C_6  and  S_2 
REMARK    3  A    between atoms: C_10  and  C_6 
REMARK    4  A    between atoms: C_11  and  C_10 
ROOT
ATOM      1  S   UNL d   1      56.759  -0.187  32.073  0.00  0.00     0.287 S 
ATOM      2  O   UNL d   1      56.437  -0.853  31.703  0.00  0.00    -0.198 OA
ATOM      3  O   UNL d   1      57.090   0.473  32.429  0.00  0.00    -0.198 OA
ENDROOT
BRANCH   1   4
ATOM      4  N   UNL d   1      56.174  -0.198  32.647  0.00  0.00    -0.152 N 
ATOM      5  N   UNL d   1      55.779   0.470  32.941  0.00  0.00    -0.155 NA
ATOM      6  C   UNL d   1      55.236   0.206  33.509  0.00  0.00     0.104 A 
ATOM      7  C   UNL d   1      54.722   0.681  33.946  0.00  0.00     0.022 C 
ATOM      8  C   UNL d   1      55.304  -0.618  33.557  0.00  0.00     0.041 A 
ATOM      9  C   UNL d   1      55.882  -0.866  33.026  0.00  0.00     0.096 A 
ATOM     10  C   UNL d   1      56.122  -1.642  32.899  0.00  0.00     0.022 C 
ENDBRANCH   1   4
BRANCH   1  11
ATOM     11  C   UNL d   1      57.358  -0.160  31.501  0.00  0.00     0.117 C 
BRANCH  11  12
ATOM     12  C   UNL d   1      57.526   0.555  31.114  0.00  0.00     0.014 C 
BRANCH  12  13
ATOM     13  C   UNL d   1      58.064   0.573  30.491  0.00  0.00     0.001 A 
ATOM     14  C   UNL d   1      58.862   0.621  30.646  0.00  0.00     0.000 A 
ATOM     15  C   UNL d   1      59.400   0.639  30.023  0.00  0.00     0.000 A 
ATOM     16  C   UNL d   1      59.130   0.609  29.243  0.00  0.00     0.000 A 
ATOM     17  C   UNL d   1      58.320   0.560  29.092  0.00  0.00     0.000 A 
ATOM     18  C   UNL d   1      57.782   0.542  29.716  0.00  0.00     0.000 A 
ENDBRANCH  12  13
ENDBRANCH  11  12
ENDBRANCH   1  11
TORSDOF 4
ENDMDL
