MODEL 1
REMARK VINA RESULT:      -5.8      0.000      0.000
REMARK  4 active torsions:
REMARK  status: ('A' for Active; 'I' for Inactive)
REMARK    1  A    between atoms: N_3  and  S_1 
REMARK    2  A    between atoms: N_5  and  S_1 
REMARK    3  A    between atoms: S_2  and  N_4 
REMARK    4  A    between atoms: C_14  and  S_2 
ROOT
ATOM      1  N   UNL d   1      58.738   0.088  30.044  0.00  0.00    -0.213 N 
ATOM      2  N   UNL d   1      57.571  -0.061  31.182  0.00  0.00    -0.226 N 
ATOM      3  C   UNL d   1      57.683  -0.679  30.623  0.00  0.00     0.111 A 
ATOM      4  C   UNL d   1      58.040   0.606  31.158  0.00  0.00     0.111 A 
ATOM      5  C   UNL d   1      58.628   0.681  30.584  0.00  0.00     0.113 A 
ATOM      6  C   UNL d   1      58.271  -0.604  30.049  0.00  0.00     0.113 A 
ENDROOT
BRANCH   2   7
ATOM      7  S   UNL d   1      56.983  -0.136  31.756  0.00  0.00     0.271 S 
ATOM      8  O   UNL d   1      56.549   0.531  31.992  0.00  0.00    -0.200 OA
ATOM      9  O   UNL d   1      56.827  -0.871  32.094  0.00  0.00    -0.200 OA
BRANCH   7  10
ATOM     10  C   UNL d   1      56.395  -0.212  32.330  0.00  0.00     0.104 A 
ATOM     11  C   UNL d   1      55.997   0.460  32.596  0.00  0.00     0.013 A 
ATOM     12  C   UNL d   1      55.409   0.385  33.170  0.00  0.00     0.001 A 
ATOM     13  C   UNL d   1      55.222  -0.362  33.474  0.00  0.00     0.000 A 
ATOM     14  C   UNL d   1      55.630  -1.036  33.199  0.00  0.00     0.001 A 
ATOM     15  C   UNL d   1      56.211  -0.953  32.631  0.00  0.00     0.013 A 
ENDBRANCH   7  10
ENDBRANCH   2   7
BRANCH   1  16
ATOM     16  S   UNL d   1      59.336   0.164  29.461  0.00  0.00     0.337 S 
ATOM     17  O   UNL d   1      60.030  -0.271  29.524  0.00  0.00    -0.181 OA
ATOM     18  O   UNL d   1      59.223   0.681  28.821  0.00  0.00    -0.181 OA
BRANCH  16  19
ATOM     19  N   UNL d   1      60.025   0.097  29.009  0.00  0.00    -0.213 N 
ATOM     20  C   UNL d   1      60.138  -0.562  28.516  0.00  0.00     0.113 C 
ATOM     21  C   UNL d   1      60.598   0.682  29.048  0.00  0.00     0.113 C 
ENDBRANCH  16  19
ENDBRANCH   1  16
TORSDOF 4
ENDMDL
MODEL 2
REMARK VINA RESULT:      -5.7      0.966      1.158
REMARK  4 active torsions:
REMARK  status: ('A' for Active; 'I' for Inactive)
REMARK    1  A    between atoms: N_3  and  S_1 
REMARK    2  A    between atoms: N_5  and  S_1 
REMARK    3  A    between atoms: S_2  and  N_4 
REMARK    4  A    between atoms: C_14  and  S_2 
ROOT
ATOM      1  N   UNL d   1      57.972  -0.174  30.299  0.00  0.00    -0.213 N 
ATOM      2  N   UNL d   1      57.103   0.037  31.670  0.00  0.00    -0.226 N 
ATOM      3  C   UNL d   1      57.261  -0.743  31.398  0.00  0.00     0.111 A 
ATOM      4  C   UNL d   1      57.380   0.682  31.254  0.00  0.00     0.111 A 
ATOM      5  C   UNL d   1      57.818   0.575  30.563  0.00  0.00     0.113 A 
ATOM      6  C   UNL d   1      57.699  -0.850  30.707  0.00  0.00     0.113 A 
ENDROOT
BRANCH   2   7
ATOM      7  S   UNL d   1      56.664   0.143  32.360  0.00  0.00     0.271 S 
ATOM      8  O   UNL d   1      55.844   0.013  32.353  0.00  0.00    -0.200 OA
ATOM      9  O   UNL d   1      57.039   0.378  33.055  0.00  0.00    -0.200 OA
BRANCH   7  10
ATOM     10  C   UNL d   1      56.226   0.250  33.051  0.00  0.00     0.104 A 
ATOM     11  C   UNL d   1      55.431   0.031  33.068  0.00  0.00     0.013 A 
ATOM     12  C   UNL d   1      54.992   0.137  33.758  0.00  0.00     0.001 A 
ATOM     13  C   UNL d   1      55.352   0.462  34.429  0.00  0.00     0.000 A 
ATOM     14  C   UNL d   1      56.157   0.680  34.404  0.00  0.00     0.001 A 
ATOM     15  C   UNL d   1      56.584   0.572  33.716  0.00  0.00     0.013 A 
ENDBRANCH   7  10
ENDBRANCH   2   7
BRANCH   1  16
ATOM     16  S   UNL d   1      58.417  -0.282  29.597  0.00  0.00     0.337 S 
ATOM     17  O   UNL d   1      59.168  -0.618  29.633  0.00  0.00    -0.181 OA
ATOM     18  O   UNL d   1      58.098  -0.049  28.867  0.00  0.00    -0.181 OA
BRANCH  16  19
ATOM     19  N   UNL d   1      59.001  -0.470  29.041  0.00  0.00    -0.213 N 
ATOM     20  C   UNL d   1      58.928  -1.152  28.574  0.00  0.00     0.113 C 
ATOM     21  C   UNL d   1      59.651   0.021  28.951  0.00  0.00     0.113 C 
ENDBRANCH  16  19
ENDBRANCH   1  16
TORSDOF 4
ENDMDL
MODEL 3
REMARK VINA RESULT:      -4.6      1.472      4.622
REMARK  4 active torsions:
REMARK  status: ('A' for Active; 'I' for Inactive)
REMARK    1  A    between atoms: N_3  and  S_1 
REMARK    2  A    between atoms: N_5  and  S_1 
REMARK    3  A    between atoms: S_2  and  N_4 
REMARK    4  A    between atoms: C_14  and  S_2 
ROOT
ATOM      1  N   UNL d   1      56.435  -0.021  32.418  0.00  0.00    -0.213 N 
ATOM      2  N   UNL d   1      57.450  -0.043  31.134  0.00  0.00    -0.226 N 
ATOM      3  C   UNL d   1      57.150  -0.768  31.435  0.00  0.00     0.111 A 
ATOM      4  C   UNL d   1      57.237   0.665  31.478  0.00  0.00     0.111 A 
ATOM      5  C   UNL d   1      56.725   0.676  32.125  0.00  0.00     0.113 A 
ATOM      6  C   UNL d   1      56.639  -0.757  32.082  0.00  0.00     0.113 A 
ENDROOT
BRANCH   2   7
ATOM      7  S   UNL d   1      57.961  -0.054  30.486  0.00  0.00     0.271 S 
ATOM      8  O   UNL d   1      57.729  -0.431  29.783  0.00  0.00    -0.200 OA
ATOM      9  O   UNL d   1      58.699   0.307  30.536  0.00  0.00    -0.200 OA
BRANCH   7  10
ATOM     10  C   UNL d   1      58.472  -0.065  29.839  0.00  0.00     0.104 A 
ATOM     11  C   UNL d   1      59.252  -0.316  29.939  0.00  0.00     0.013 A 
ATOM     12  C   UNL d   1      59.763  -0.327  29.291  0.00  0.00     0.001 A 
ATOM     13  C   UNL d   1      59.492  -0.087  28.547  0.00  0.00     0.000 A 
ATOM     14  C   UNL d   1      58.702   0.165  28.455  0.00  0.00     0.001 A 
ATOM     15  C   UNL d   1      58.202   0.173  29.101  0.00  0.00     0.013 A 
ENDBRANCH   7  10
ENDBRANCH   2   7
BRANCH   1  16
ATOM     16  S   UNL d   1      55.916  -0.009  33.076  0.00  0.00     0.337 S 
ATOM     17  O   UNL d   1      55.883   0.653  33.563  0.00  0.00    -0.181 OA
ATOM     18  O   UNL d   1      55.436  -0.668  33.233  0.00  0.00    -0.181 OA
BRANCH  16  19
ATOM     19  N   UNL d   1      55.486   0.197  33.752  0.00  0.00    -0.213 N 
ATOM     20  C   UNL d   1      55.860   0.220  34.493  0.00  0.00     0.113 C 
ATOM     21  C   UNL d   1      54.689   0.378  33.690  0.00  0.00     0.113 C 
ENDBRANCH  16  19
ENDBRANCH   1  16
TORSDOF 4
ENDMDL
