MODEL 1
REMARK VINA RESULT:      30.7      0.000      0.000
REMARK  6 active torsions:
REMARK  status: ('A' for Active; 'I' for Inactive)
REMARK    1  A    between atoms: C_11  and  N_2 
REMARK    2  A    between atoms: O_15  and  C_9 
REMARK    3  A    between atoms: C_10  and  O_14 
REMARK    4  A    between atoms: C_16  and  C_11 
REMARK    5  A    between atoms: O_14  and  C_17 
REMARK    6  A    between atoms: C_17  and  C_16 
ROOT
ATOM      1  C   UNL d   1      13.645  12.549  -3.273  0.00  0.00     0.087 C 
ENDROOT
BRANCH   1   2
ATOM      2  N   UNL d   1      13.357  12.946  -3.940  0.00  0.00    -0.251 N 
ATOM      3  C   UNL d   1      12.964  12.633  -4.598  0.00  0.00     0.378 A 
ATOM      4  O   UNL d   1      12.792  13.263  -5.114  0.00  0.00    -0.258 OA
ATOM      5  O   UNL d   1      12.775  11.839  -4.720  0.00  0.00    -0.237 OA
ATOM      6  C   UNL d   1      13.078  13.960  -4.774  0.00  0.00     0.121 A 
ATOM      7  C   UNL d   1      13.072  14.755  -5.024  0.00  0.00     0.026 A 
ATOM      8  C   UNL d   1      13.428  13.765  -4.049  0.00  0.00     0.092 A 
ATOM      9  C   UNL d   1      13.409  15.341  -4.555  0.00  0.00     0.002 A 
ATOM     10  C   UNL d   1      13.758  15.142  -3.830  0.00  0.00     0.002 A 
ATOM     11  C   UNL d   1      13.768  14.358  -3.578  0.00  0.00     0.020 A 
ATOM     12  C   UNL d   1      14.096  15.728  -3.360  0.00  0.00     0.000 C 
ENDBRANCH   1   2
BRANCH   1  13
ATOM     13  C   UNL d   1      13.140  12.104  -2.802  0.00  0.00     0.046 C 
BRANCH  13  14
ATOM     14  C   UNL d   1      13.398  11.806  -2.075  0.00  0.00     0.124 C 
BRANCH  14  15
ATOM     15  O   UNL d   1      14.194  11.779  -1.899  0.00  0.00    -0.303 OA
BRANCH  15  16
ATOM     16  C   UNL d   1      14.440  12.254  -1.274  0.00  0.00     0.122 A 
ATOM     17  C   UNL d   1      15.231  12.499  -1.227  0.00  0.00     0.117 A 
ATOM     18  C   UNL d   1      15.477  12.975  -0.599  0.00  0.00     0.026 A 
ATOM     19  C   UNL d   1      14.931  13.202  -0.025  0.00  0.00     0.002 A 
ATOM     20  C   UNL d   1      14.147  12.956  -0.076  0.00  0.00     0.002 A 
ATOM     21  C   UNL d   1      13.901  12.482  -0.701  0.00  0.00     0.027 A 
BRANCH  17  22
ATOM     22  O   UNL d   1      15.769  12.266  -1.807  0.00  0.00    -0.326 OA
ATOM     23  C   UNL d   1      16.522  11.984  -1.647  0.00  0.00     0.181 C 
ENDBRANCH  17  22
ENDBRANCH  15  16
ENDBRANCH  14  15
ENDBRANCH  13  14
ENDBRANCH   1  13
TORSDOF 6
ENDMDL
MODEL 2
REMARK VINA RESULT:      33.3      1.630      4.053
REMARK  6 active torsions:
REMARK  status: ('A' for Active; 'I' for Inactive)
REMARK    1  A    between atoms: C_11  and  N_2 
REMARK    2  A    between atoms: O_15  and  C_9 
REMARK    3  A    between atoms: C_10  and  O_14 
REMARK    4  A    between atoms: C_16  and  C_11 
REMARK    5  A    between atoms: O_14  and  C_17 
REMARK    6  A    between atoms: C_17  and  C_16 
ROOT
ATOM      1  C   UNL d   1      14.306  13.459  -3.087  0.00  0.00     0.087 C 
ENDROOT
BRANCH   1   2
ATOM      2  N   UNL d   1      13.989  12.843  -2.634  0.00  0.00    -0.251 N 
ATOM      3  C   UNL d   1      13.433  12.272  -2.855  0.00  0.00     0.378 A 
ATOM      4  O   UNL d   1      13.299  11.779  -2.198  0.00  0.00    -0.258 OA
ATOM      5  O   UNL d   1      13.074  12.202  -3.595  0.00  0.00    -0.237 OA
ATOM      6  C   UNL d   1      13.772  12.047  -1.574  0.00  0.00     0.121 A 
ATOM      7  C   UNL d   1      13.878  11.784  -0.791  0.00  0.00     0.026 A 
ATOM      8  C   UNL d   1      14.199  12.705  -1.843  0.00  0.00     0.092 A 
ATOM      9  C   UNL d   1      14.401  12.174  -0.288  0.00  0.00     0.002 A 
ATOM     10  C   UNL d   1      14.826  12.831  -0.561  0.00  0.00     0.002 A 
ATOM     11  C   UNL d   1      14.725  13.095  -1.334  0.00  0.00     0.020 A 
ATOM     12  C   UNL d   1      15.348  13.221  -0.059  0.00  0.00     0.000 C 
ENDBRANCH   1   2
BRANCH   1  13
ATOM     13  C   UNL d   1      13.828  14.074  -3.348  0.00  0.00     0.046 C 
BRANCH  13  14
ATOM     14  C   UNL d   1      14.162  14.778  -3.625  0.00  0.00     0.124 C 
BRANCH  14  15
ATOM     15  O   UNL d   1      14.175  15.443  -3.151  0.00  0.00    -0.303 OA
BRANCH  15  16
ATOM     16  C   UNL d   1      14.608  16.080  -3.438  0.00  0.00     0.122 A 
ATOM     17  C   UNL d   1      14.971  16.605  -2.908  0.00  0.00     0.117 A 
ATOM     18  C   UNL d   1      15.406  17.245  -3.197  0.00  0.00     0.026 A 
ATOM     19  C   UNL d   1      15.474  17.354  -4.012  0.00  0.00     0.002 A 
ATOM     20  C   UNL d   1      15.111  16.829  -4.533  0.00  0.00     0.002 A 
ATOM     21  C   UNL d   1      14.679  16.192  -4.246  0.00  0.00     0.027 A 
BRANCH  17  22
ATOM     22  O   UNL d   1      14.897  16.487  -2.096  0.00  0.00    -0.326 OA
ATOM     23  C   UNL d   1      15.175  17.010  -1.529  0.00  0.00     0.181 C 
ENDBRANCH  17  22
ENDBRANCH  15  16
ENDBRANCH  14  15
ENDBRANCH  13  14
ENDBRANCH   1  13
TORSDOF 6
ENDMDL
