MODEL 1
REMARK VINA RESULT:      -7.4      0.000      0.000
REMARK  5 active torsions:
REMARK  status: ('A' for Active; 'I' for Inactive)
REMARK    1  A    between atoms: C_14  and  N_4 
REMARK    2  A    between atoms: C_12  and  N_6 
REMARK    3  A    between atoms: C_10  and  C_12 
REMARK       I    between atoms: N_11  and  C_10 
REMARK    4  A    between atoms: C_13  and  N_11 
REMARK    5  A    between atoms: O_18  and  C_17 
ROOT
ATOM      1  C   UNL d   1     -48.951  12.820  23.018  0.00  0.00     0.172 A 
ATOM      2  C   UNL d   1     -48.792  12.043  23.247  0.00  0.00     0.113 A 
ATOM      3  N   UNL d   1     -48.350  13.379  23.009  0.00  0.00    -0.206 NA
ATOM      4  N   UNL d   1     -49.758  12.863  22.831  0.00  0.00    -0.212 N 
ATOM      5  C   UNL d   1     -48.032  11.825  23.468  0.00  0.00     0.271 A 
ATOM      6  N   UNL d   1     -47.423  12.386  23.460  0.00  0.00    -0.251 N 
ATOM      7  N   UNL d   1     -50.081  12.120  22.947  0.00  0.00    -0.162 NA
ATOM      8  C   UNL d   1     -47.582  13.163  23.230  0.00  0.00     0.187 A 
ATOM      9  C   UNL d   1     -49.504  11.619  23.199  0.00  0.00     0.129 A 
ATOM     10  O   UNL d   1     -47.873  11.049  23.697  0.00  0.00    -0.266 OA
ENDROOT
BRANCH   6  11
ATOM     11  C   UNL d   1     -46.647  12.172  23.682  0.00  0.00     0.147 C 
BRANCH  11  12
ATOM     12  C   UNL d   1     -45.998  12.434  23.232  0.00  0.00     0.297 C 
ATOM     13  N   UNL d   1     -45.450  11.879  22.960  0.00  0.00    -0.205 NA
ATOM     14  O   UNL d   1     -45.912  13.229  23.066  0.00  0.00    -0.264 OA
BRANCH  13  15
ATOM     15  C   UNL d   1     -44.801  12.141  22.510  0.00  0.00     0.107 A 
ATOM     16  C   UNL d   1     -44.077  11.775  22.617  0.00  0.00     0.112 A 
ATOM     17  C   UNL d   1     -43.428  12.037  22.166  0.00  0.00     0.026 A 
ATOM     18  C   UNL d   1     -43.516  12.646  21.630  0.00  0.00     0.002 A 
ATOM     19  C   UNL d   1     -44.240  13.012  21.523  0.00  0.00     0.002 A 
ATOM     20  C   UNL d   1     -44.881  12.750  21.972  0.00  0.00     0.021 A 
BRANCH  16  21
ATOM     21  O   UNL d   1     -43.989  11.165  23.153  0.00  0.00    -0.327 OA
ATOM     22  C   UNL d   1     -43.302  10.724  23.179  0.00  0.00     0.181 C 
ENDBRANCH  16  21
ENDBRANCH  13  15
ENDBRANCH  11  12
ENDBRANCH   6  11
BRANCH   4  23
ATOM     23  C   UNL d   1     -50.190  13.505  22.576  0.00  0.00     0.085 A 
ATOM     24  C   UNL d   1     -50.548  14.014  23.131  0.00  0.00     0.019 A 
ATOM     25  C   UNL d   1     -50.980  14.657  22.869  0.00  0.00     0.002 A 
ATOM     26  C   UNL d   1     -51.064  14.806  22.044  0.00  0.00     0.000 A 
ATOM     27  C   UNL d   1     -50.711  14.302  21.513  0.00  0.00     0.002 A 
ATOM     28  C   UNL d   1     -50.274  13.653  21.768  0.00  0.00     0.019 A 
ENDBRANCH   4  23
TORSDOF 5
ENDMDL
MODEL 2
REMARK VINA RESULT:      -6.2      1.422      5.648
REMARK  5 active torsions:
REMARK  status: ('A' for Active; 'I' for Inactive)
REMARK    1  A    between atoms: C_14  and  N_4 
REMARK    2  A    between atoms: C_12  and  N_6 
REMARK    3  A    between atoms: C_10  and  C_12 
REMARK       I    between atoms: N_11  and  C_10 
REMARK    4  A    between atoms: C_13  and  N_11 
REMARK    5  A    between atoms: O_18  and  C_17 
ROOT
ATOM      1  C   UNL d   1     -45.481  12.360  22.976  0.00  0.00     0.172 A 
ATOM      2  C   UNL d   1     -45.523  13.029  22.495  0.00  0.00     0.113 A 
ATOM      3  N   UNL d   1     -46.064  12.217  23.536  0.00  0.00    -0.206 NA
ATOM      4  N   UNL d   1     -44.794  11.945  22.765  0.00  0.00    -0.212 N 
ATOM      5  C   UNL d   1     -46.147  13.556  22.573  0.00  0.00     0.271 A 
ATOM      6  N   UNL d   1     -46.737  13.415  23.137  0.00  0.00    -0.251 N 
ATOM      7  N   UNL d   1     -44.427  12.360  22.163  0.00  0.00    -0.162 NA
ATOM      8  C   UNL d   1     -46.696  12.746  23.618  0.00  0.00     0.187 A 
ATOM      9  C   UNL d   1     -44.861  13.016  21.994  0.00  0.00     0.129 A 
ATOM     10  O   UNL d   1     -46.189  14.225  22.092  0.00  0.00    -0.266 OA
ENDROOT
BRANCH   6  11
ATOM     11  C   UNL d   1     -47.376  13.946  23.222  0.00  0.00     0.147 C 
BRANCH  11  12
ATOM     12  C   UNL d   1     -48.147  13.705  23.021  0.00  0.00     0.297 C 
ATOM     13  N   UNL d   1     -48.709  14.280  22.833  0.00  0.00    -0.205 NA
ATOM     14  O   UNL d   1     -48.335  12.910  23.012  0.00  0.00    -0.264 OA
BRANCH  13  15
ATOM     15  C   UNL d   1     -49.480  14.039  22.632  0.00  0.00     0.107 A 
ATOM     16  C   UNL d   1     -50.113  14.457  22.937  0.00  0.00     0.112 A 
ATOM     17  C   UNL d   1     -50.884  14.217  22.735  0.00  0.00     0.026 A 
ATOM     18  C   UNL d   1     -51.001  13.575  22.243  0.00  0.00     0.002 A 
ATOM     19  C   UNL d   1     -50.368  13.157  21.938  0.00  0.00     0.002 A 
ATOM     20  C   UNL d   1     -49.605  13.399  22.140  0.00  0.00     0.021 A 
BRANCH  16  21
ATOM     21  O   UNL d   1     -49.996  15.099  23.429  0.00  0.00    -0.327 OA
ATOM     22  C   UNL d   1     -50.589  15.647  23.552  0.00  0.00     0.181 C 
ENDBRANCH  16  21
ENDBRANCH  13  15
ENDBRANCH  11  12
ENDBRANCH   6  11
BRANCH   4  23
ATOM     23  C   UNL d   1     -44.502  11.249  23.073  0.00  0.00     0.085 A 
ATOM     24  C   UNL d   1     -45.027  10.664  23.352  0.00  0.00     0.019 A 
ATOM     25  C   UNL d   1     -44.728   9.968  23.661  0.00  0.00     0.002 A 
ATOM     26  C   UNL d   1     -43.896   9.842  23.697  0.00  0.00     0.000 A 
ATOM     27  C   UNL d   1     -43.395  10.420  23.422  0.00  0.00     0.002 A 
ATOM     28  C   UNL d   1     -43.687  11.123  23.110  0.00  0.00     0.019 A 
ENDBRANCH   4  23
TORSDOF 5
ENDMDL
MODEL 3
REMARK VINA RESULT:      -6.1      1.381      2.077
REMARK  5 active torsions:
REMARK  status: ('A' for Active; 'I' for Inactive)
REMARK    1  A    between atoms: C_14  and  N_4 
REMARK    2  A    between atoms: C_12  and  N_6 
REMARK    3  A    between atoms: C_10  and  C_12 
REMARK       I    between atoms: N_11  and  C_10 
REMARK    4  A    between atoms: C_13  and  N_11 
REMARK    5  A    between atoms: O_18  and  C_17 
ROOT
ATOM      1  C   UNL d   1     -48.178  13.910  22.377  0.00  0.00     0.172 A 
ATOM      2  C   UNL d   1     -47.621  14.495  22.545  0.00  0.00     0.113 A 
ATOM      3  N   UNL d   1     -47.969  13.117  22.415  0.00  0.00    -0.206 NA
ATOM      4  N   UNL d   1     -48.891  14.292  22.190  0.00  0.00    -0.212 N 
ATOM      5  C   UNL d   1     -46.854  14.288  22.750  0.00  0.00     0.271 A 
ATOM      6  N   UNL d   1     -46.639  13.489  22.790  0.00  0.00    -0.251 N 
ATOM      7  N   UNL d   1     -48.763  15.098  22.245  0.00  0.00    -0.162 NA
ATOM      8  C   UNL d   1     -47.196  12.904  22.622  0.00  0.00     0.187 A 
ATOM      9  C   UNL d   1     -47.999  15.229  22.459  0.00  0.00     0.129 A 
ATOM     10  O   UNL d   1     -46.297  14.872  22.918  0.00  0.00    -0.266 OA
ENDROOT
BRANCH   6  11
ATOM     11  C   UNL d   1     -45.861  13.270  22.998  0.00  0.00     0.147 C 
BRANCH  11  12
ATOM     12  C   UNL d   1     -45.684  12.475  23.171  0.00  0.00     0.297 C 
ATOM     13  N   UNL d   1     -44.939  12.179  22.975  0.00  0.00    -0.205 NA
ATOM     14  O   UNL d   1     -46.247  12.003  23.530  0.00  0.00    -0.264 OA
BRANCH  13  15
ATOM     15  C   UNL d   1     -44.763  11.384  23.148  0.00  0.00     0.107 A 
ATOM     16  C   UNL d   1     -44.031  11.089  22.934  0.00  0.00     0.112 A 
ATOM     17  C   UNL d   1     -43.855  10.295  23.107  0.00  0.00     0.026 A 
ATOM     18  C   UNL d   1     -44.405   9.822  23.483  0.00  0.00     0.002 A 
ATOM     19  C   UNL d   1     -45.137  10.116  23.697  0.00  0.00     0.002 A 
ATOM     20  C   UNL d   1     -45.308  10.905  23.524  0.00  0.00     0.021 A 
BRANCH  16  21
ATOM     21  O   UNL d   1     -43.481  11.562  22.558  0.00  0.00    -0.327 OA
ATOM     22  C   UNL d   1     -42.681  11.411  22.626  0.00  0.00     0.181 C 
ENDBRANCH  16  21
ENDBRANCH  13  15
ENDBRANCH  11  12
ENDBRANCH   6  11
BRANCH   4  23
ATOM     23  C   UNL d   1     -49.608  13.964  21.985  0.00  0.00     0.085 A 
ATOM     24  C   UNL d   1     -50.245  13.982  22.524  0.00  0.00     0.019 A 
ATOM     25  C   UNL d   1     -50.962  13.651  22.312  0.00  0.00     0.002 A 
ATOM     26  C   UNL d   1     -51.060  13.295  21.555  0.00  0.00     0.000 A 
ATOM     27  C   UNL d   1     -50.432  13.284  21.039  0.00  0.00     0.002 A 
ATOM     28  C   UNL d   1     -49.706  13.615  21.243  0.00  0.00     0.019 A 
ENDBRANCH   4  23
TORSDOF 5
ENDMDL
MODEL 4
REMARK VINA RESULT:      -5.7      8.755      9.946
REMARK  5 active torsions:
REMARK  status: ('A' for Active; 'I' for Inactive)
REMARK    1  A    between atoms: C_14  and  N_4 
REMARK    2  A    between atoms: C_12  and  N_6 
REMARK    3  A    between atoms: C_10  and  C_12 
REMARK       I    between atoms: N_11  and  C_10 
REMARK    4  A    between atoms: C_13  and  N_11 
REMARK    5  A    between atoms: O_18  and  C_17 
ROOT
ATOM      1  C   UNL d   1     -39.500  15.173  18.055  0.00  0.00     0.172 A 
ATOM      2  C   UNL d   1     -40.232  15.386  18.369  0.00  0.00     0.113 A 
ATOM      3  N   UNL d   1     -38.840  15.125  18.541  0.00  0.00    -0.206 NA
ATOM      4  N   UNL d   1     -39.606  15.043  17.242  0.00  0.00    -0.212 N 
ATOM      5  C   UNL d   1     -40.306  15.552  19.169  0.00  0.00     0.271 A 
ATOM      6  N   UNL d   1     -39.643  15.505  19.663  0.00  0.00    -0.251 N 
ATOM      7  N   UNL d   1     -40.395  15.177  17.070  0.00  0.00    -0.162 NA
ATOM      8  C   UNL d   1     -38.911  15.292  19.350  0.00  0.00     0.187 A 
ATOM      9  C   UNL d   1     -40.779  15.384  17.745  0.00  0.00     0.129 A 
ATOM     10  O   UNL d   1     -41.039  15.765  19.483  0.00  0.00    -0.266 OA
ENDROOT
BRANCH   6  11
ATOM     11  C   UNL d   1     -39.710  15.672  20.479  0.00  0.00     0.147 C 
BRANCH  11  12
ATOM     12  C   UNL d   1     -39.527  15.085  21.040  0.00  0.00     0.297 C 
ATOM     13  N   UNL d   1     -38.888  15.206  21.550  0.00  0.00    -0.205 NA
ATOM     14  O   UNL d   1     -39.977  14.404  21.079  0.00  0.00    -0.264 OA
BRANCH  13  15
ATOM     15  C   UNL d   1     -38.705  14.619  22.111  0.00  0.00     0.107 A 
ATOM     16  C   UNL d   1     -38.320  14.841  22.798  0.00  0.00     0.112 A 
ATOM     17  C   UNL d   1     -38.136  14.254  23.359  0.00  0.00     0.026 A 
ATOM     18  C   UNL d   1     -38.338  13.474  23.222  0.00  0.00     0.002 A 
ATOM     19  C   UNL d   1     -38.722  13.252  22.536  0.00  0.00     0.002 A 
ATOM     20  C   UNL d   1     -38.903  13.837  21.981  0.00  0.00     0.021 A 
BRANCH  16  21
ATOM     21  O   UNL d   1     -38.118  15.620  22.934  0.00  0.00    -0.327 OA
ATOM     22  C   UNL d   1     -38.008  15.899  23.694  0.00  0.00     0.181 C 
ENDBRANCH  16  21
ENDBRANCH  13  15
ENDBRANCH  11  12
ENDBRANCH   6  11
BRANCH   4  23
ATOM     23  C   UNL d   1     -39.055  14.822  16.683  0.00  0.00     0.085 A 
ATOM     24  C   UNL d   1     -38.638  15.405  16.257  0.00  0.00     0.019 A 
ATOM     25  C   UNL d   1     -38.086  15.177  15.697  0.00  0.00     0.002 A 
ATOM     26  C   UNL d   1     -37.940  14.360  15.552  0.00  0.00     0.000 A 
ATOM     27  C   UNL d   1     -38.353  13.803  15.975  0.00  0.00     0.002 A 
ATOM     28  C   UNL d   1     -38.910  14.023  16.539  0.00  0.00     0.019 A 
ENDBRANCH   4  23
TORSDOF 5
ENDMDL
MODEL 5
REMARK VINA RESULT:      -5.3      2.707      4.488
REMARK  5 active torsions:
REMARK  status: ('A' for Active; 'I' for Inactive)
REMARK    1  A    between atoms: C_14  and  N_4 
REMARK    2  A    between atoms: C_12  and  N_6 
REMARK    3  A    between atoms: C_10  and  C_12 
REMARK       I    between atoms: N_11  and  C_10 
REMARK    4  A    between atoms: C_13  and  N_11 
REMARK    5  A    between atoms: O_18  and  C_17 
ROOT
ATOM      1  C   UNL d   1     -44.945  12.834  22.213  0.00  0.00     0.172 A 
ATOM      2  C   UNL d   1     -44.422  12.230  22.419  0.00  0.00     0.113 A 
ATOM      3  N   UNL d   1     -44.720  13.407  21.671  0.00  0.00    -0.206 NA
ATOM      4  N   UNL d   1     -45.645  12.713  22.642  0.00  0.00    -0.212 N 
ATOM      5  C   UNL d   1     -43.674  12.199  22.083  0.00  0.00     0.271 A 
ATOM      6  N   UNL d   1     -43.443  12.775  21.535  0.00  0.00    -0.251 N 
ATOM      7  N   UNL d   1     -45.544  12.043  23.101  0.00  0.00    -0.162 NA
ATOM      8  C   UNL d   1     -43.966  13.379  21.329  0.00  0.00     0.187 A 
ATOM      9  C   UNL d   1     -44.808  11.746  22.972  0.00  0.00     0.129 A 
ATOM     10  O   UNL d   1     -43.151  11.595  22.289  0.00  0.00    -0.266 OA
ENDROOT
BRANCH   6  11
ATOM     11  C   UNL d   1     -42.684  12.750  21.188  0.00  0.00     0.147 C 
BRANCH  11  12
ATOM     12  C   UNL d   1     -42.234  13.447  21.121  0.00  0.00     0.297 C 
ATOM     13  N   UNL d   1     -41.620  13.475  20.570  0.00  0.00    -0.205 NA
ATOM     14  O   UNL d   1     -42.406  14.089  21.597  0.00  0.00    -0.264 OA
BRANCH  13  15
ATOM     15  C   UNL d   1     -41.170  14.172  20.503  0.00  0.00     0.107 A 
ATOM     16  C   UNL d   1     -40.866  14.373  19.771  0.00  0.00     0.112 A 
ATOM     17  C   UNL d   1     -40.417  15.070  19.704  0.00  0.00     0.026 A 
ATOM     18  C   UNL d   1     -40.284  15.541  20.358  0.00  0.00     0.002 A 
ATOM     19  C   UNL d   1     -40.588  15.340  21.090  0.00  0.00     0.002 A 
ATOM     20  C   UNL d   1     -41.033  14.648  21.153  0.00  0.00     0.021 A 
BRANCH  16  21
ATOM     21  O   UNL d   1     -40.999  13.902  19.117  0.00  0.00    -0.327 OA
ATOM     22  C   UNL d   1     -40.661  14.082  18.395  0.00  0.00     0.181 C 
ENDBRANCH  16  21
ENDBRANCH  13  15
ENDBRANCH  11  12
ENDBRANCH   6  11
BRANCH   4  23
ATOM     23  C   UNL d   1     -46.330  13.155  22.637  0.00  0.00     0.085 A 
ATOM     24  C   UNL d   1     -47.001  12.879  22.226  0.00  0.00     0.019 A 
ATOM     25  C   UNL d   1     -47.686  13.327  22.225  0.00  0.00     0.002 A 
ATOM     26  C   UNL d   1     -47.714  14.062  22.635  0.00  0.00     0.000 A 
ATOM     27  C   UNL d   1     -47.053  14.319  23.032  0.00  0.00     0.002 A 
ATOM     28  C   UNL d   1     -46.361  13.876  23.038  0.00  0.00     0.019 A 
ENDBRANCH   4  23
TORSDOF 5
ENDMDL
MODEL 6
REMARK VINA RESULT:      -5.2      7.662      9.706
REMARK  5 active torsions:
REMARK  status: ('A' for Active; 'I' for Inactive)
REMARK    1  A    between atoms: C_14  and  N_4 
REMARK    2  A    between atoms: C_12  and  N_6 
REMARK    3  A    between atoms: C_10  and  C_12 
REMARK       I    between atoms: N_11  and  C_10 
REMARK    4  A    between atoms: C_13  and  N_11 
REMARK    5  A    between atoms: O_18  and  C_17 
ROOT
ATOM      1  C   UNL d   1     -39.677  15.011  20.816  0.00  0.00     0.172 A 
ATOM      2  C   UNL d   1     -40.375  14.715  20.489  0.00  0.00     0.113 A 
ATOM      3  N   UNL d   1     -39.143  15.419  20.347  0.00  0.00    -0.206 NA
ATOM      4  N   UNL d   1     -39.675  14.808  21.621  0.00  0.00    -0.212 N 
ATOM      5  C   UNL d   1     -40.539  14.828  19.693  0.00  0.00     0.271 A 
ATOM      6  N   UNL d   1     -40.002  15.240  19.216  0.00  0.00    -0.251 N 
ATOM      7  N   UNL d   1     -40.364  14.395  21.776  0.00  0.00    -0.162 NA
ATOM      8  C   UNL d   1     -39.304  15.536  19.542  0.00  0.00     0.187 A 
ATOM      9  C   UNL d   1     -40.792  14.335  21.098  0.00  0.00     0.129 A 
ATOM     10  O   UNL d   1     -41.237  14.533  19.367  0.00  0.00    -0.266 OA
ENDROOT
BRANCH   6  11
ATOM     11  C   UNL d   1     -40.161  15.360  18.405  0.00  0.00     0.147 C 
BRANCH  11  12
ATOM     12  C   UNL d   1     -39.579  15.186  17.837  0.00  0.00     0.297 C 
ATOM     13  N   UNL d   1     -39.672  14.520  17.359  0.00  0.00    -0.205 NA
ATOM     14  O   UNL d   1     -38.927  15.674  17.760  0.00  0.00    -0.264 OA
BRANCH  13  15
ATOM     15  C   UNL d   1     -39.089  14.346  16.791  0.00  0.00     0.107 A 
ATOM     16  C   UNL d   1     -38.762  13.597  16.782  0.00  0.00     0.112 A 
ATOM     17  C   UNL d   1     -38.179  13.423  16.213  0.00  0.00     0.026 A 
ATOM     18  C   UNL d   1     -37.942  13.993  15.677  0.00  0.00     0.002 A 
ATOM     19  C   UNL d   1     -38.270  14.742  15.686  0.00  0.00     0.002 A 
ATOM     20  C   UNL d   1     -38.847  14.910  16.251  0.00  0.00     0.021 A 
BRANCH  16  21
ATOM     21  O   UNL d   1     -38.999  13.028  17.318  0.00  0.00    -0.327 OA
ATOM     22  C   UNL d   1     -38.512  12.398  17.504  0.00  0.00     0.181 C 
ENDBRANCH  16  21
ENDBRANCH  13  15
ENDBRANCH  11  12
ENDBRANCH   6  11
BRANCH   4  23
ATOM     23  C   UNL d   1     -39.111  14.970  22.187  0.00  0.00     0.085 A 
ATOM     24  C   UNL d   1     -38.937  15.761  22.387  0.00  0.00     0.019 A 
ATOM     25  C   UNL d   1     -38.370  15.917  22.956  0.00  0.00     0.002 A 
ATOM     26  C   UNL d   1     -37.964  15.285  23.337  0.00  0.00     0.000 A 
ATOM     27  C   UNL d   1     -38.143  14.519  23.133  0.00  0.00     0.002 A 
ATOM     28  C   UNL d   1     -38.712  14.353  22.562  0.00  0.00     0.019 A 
ENDBRANCH   4  23
TORSDOF 5
ENDMDL
