MODEL 1
REMARK VINA RESULT:      -8.0      0.000      0.000
REMARK  3 active torsions:
REMARK  status: ('A' for Active; 'I' for Inactive)
REMARK    1  A    between atoms: N_2  and  C_1 
REMARK    2  A    between atoms: N_3  and  C_1 
REMARK       I    between atoms: C_4  and  N_3 
REMARK    3  A    between atoms: C_5  and  C_4 
ROOT
ATOM      1  C   UNL d   1     -48.634  13.321  22.785  0.00  0.00     0.209 C 
ATOM      2  S   UNL d   1     -49.086  13.552  23.449  0.00  0.00    -0.038 SA
ENDROOT
BRANCH   1   3
ATOM      3  N   UNL d   1     -47.818  13.182  22.873  0.00  0.00    -0.282 N 
ATOM      4  C   UNL d   1     -47.482  12.490  23.160  0.00  0.00     0.066 A 
ATOM      5  C   UNL d   1     -46.662  12.592  23.153  0.00  0.00     0.018 A 
ATOM      6  C   UNL d   1     -47.804  11.779  23.426  0.00  0.00     0.018 A 
ATOM      7  C   UNL d   1     -46.164  11.984  23.413  0.00  0.00     0.002 A 
ATOM      8  C   UNL d   1     -46.501  13.346  22.862  0.00  0.00     0.021 A 
ATOM      9  C   UNL d   1     -46.493  11.269  23.681  0.00  0.00     0.000 A 
ATOM     10  C   UNL d   1     -47.313  11.167  23.688  0.00  0.00     0.002 A 
ATOM     11  C   UNL d   1     -47.219  13.709  22.690  0.00  0.00     0.082 A 
ENDBRANCH   1   3
BRANCH   1  12
ATOM     12  N   UNL d   1     -48.991  13.233  22.052  0.00  0.00    -0.178 NA
ATOM     13  C   UNL d   1     -49.672  13.670  21.874  0.00  0.00     0.304 C 
ATOM     14  O   UNL d   1     -50.032  13.581  21.135  0.00  0.00    -0.263 OA
BRANCH  13  15
ATOM     15  C   UNL d   1     -49.997  14.193  22.423  0.00  0.00     0.158 A 
ATOM     16  O   UNL d   1     -49.752  14.921  22.700  0.00  0.00    -0.296 OA
ATOM     17  C   UNL d   1     -50.313  15.186  23.254  0.00  0.00     0.134 A 
ATOM     18 BR   UNL d   1     -50.311  15.900  23.692  0.00  0.00    -0.022 Br
ATOM     19  C   UNL d   1     -50.898  14.610  23.308  0.00  0.00     0.034 A 
ATOM     20  C   UNL d   1     -50.701  13.999  22.795  0.00  0.00     0.032 A 
ENDBRANCH  13  15
ENDBRANCH   1  12
TORSDOF 3
ENDMDL
MODEL 2
REMARK VINA RESULT:      -7.4      1.290      1.881
REMARK  3 active torsions:
REMARK  status: ('A' for Active; 'I' for Inactive)
REMARK    1  A    between atoms: N_2  and  C_1 
REMARK    2  A    between atoms: N_3  and  C_1 
REMARK       I    between atoms: C_4  and  N_3 
REMARK    3  A    between atoms: C_5  and  C_4 
ROOT
ATOM      1  C   UNL d   1     -48.077  13.409  22.624  0.00  0.00     0.209 C 
ATOM      2  S   UNL d   1     -48.595  13.078  22.057  0.00  0.00    -0.038 SA
ENDROOT
BRANCH   1   3
ATOM      3  N   UNL d   1     -47.454  12.949  22.927  0.00  0.00    -0.282 N 
ATOM      4  C   UNL d   1     -46.671  12.988  22.683  0.00  0.00     0.066 A 
ATOM      5  C   UNL d   1     -46.245  12.438  23.128  0.00  0.00     0.018 A 
ATOM      6  C   UNL d   1     -46.283  13.447  22.118  0.00  0.00     0.018 A 
ATOM      7  C   UNL d   1     -45.431  12.346  23.010  0.00  0.00     0.002 A 
ATOM      8  C   UNL d   1     -46.769  12.065  23.643  0.00  0.00     0.021 A 
ATOM      9  C   UNL d   1     -45.044  12.811  22.439  0.00  0.00     0.000 A 
ATOM     10  C   UNL d   1     -45.470  13.360  21.994  0.00  0.00     0.002 A 
ATOM     11  C   UNL d   1     -47.518  12.383  23.516  0.00  0.00     0.082 A 
ENDBRANCH   1   3
BRANCH   1  12
ATOM     12  N   UNL d   1     -48.183  14.180  22.879  0.00  0.00    -0.178 NA
ATOM     13  C   UNL d   1     -48.945  14.450  23.062  0.00  0.00     0.304 C 
ATOM     14  O   UNL d   1     -49.051  15.229  23.320  0.00  0.00    -0.263 OA
BRANCH  13  15
ATOM     15  C   UNL d   1     -49.600  13.954  22.991  0.00  0.00     0.158 A 
ATOM     16  O   UNL d   1     -49.882  13.346  23.458  0.00  0.00    -0.296 OA
ATOM     17  C   UNL d   1     -50.571  13.047  23.101  0.00  0.00     0.134 A 
ATOM     18 BR   UNL d   1     -51.063  12.423  23.365  0.00  0.00    -0.022 Br
ATOM     19  C   UNL d   1     -50.702  13.481  22.415  0.00  0.00     0.034 A 
ATOM     20  C   UNL d   1     -50.102  14.039  22.349  0.00  0.00     0.032 A 
ENDBRANCH  13  15
ENDBRANCH   1  12
TORSDOF 3
ENDMDL
MODEL 3
REMARK VINA RESULT:      -7.3      1.995      3.997
REMARK  3 active torsions:
REMARK  status: ('A' for Active; 'I' for Inactive)
REMARK    1  A    between atoms: N_2  and  C_1 
REMARK    2  A    between atoms: N_3  and  C_1 
REMARK       I    between atoms: C_4  and  N_3 
REMARK    3  A    between atoms: C_5  and  C_4 
ROOT
ATOM      1  C   UNL d   1     -48.206  13.711  22.836  0.00  0.00     0.209 C 
ATOM      2  S   UNL d   1     -48.077  13.048  23.329  0.00  0.00    -0.038 SA
ENDROOT
BRANCH   1   3
ATOM      3  N   UNL d   1     -48.883  13.736  22.354  0.00  0.00    -0.282 N 
ATOM      4  C   UNL d   1     -49.570  14.157  22.518  0.00  0.00     0.066 A 
ATOM      5  C   UNL d   1     -50.095  14.026  21.894  0.00  0.00     0.018 A 
ATOM      6  C   UNL d   1     -49.792  14.641  23.147  0.00  0.00     0.018 A 
ATOM      7  C   UNL d   1     -50.844  14.379  21.898  0.00  0.00     0.002 A 
ATOM      8  C   UNL d   1     -49.728  13.526  21.351  0.00  0.00     0.021 A 
ATOM      9  C   UNL d   1     -51.064  14.867  22.534  0.00  0.00     0.000 A 
ATOM     10  C   UNL d   1     -50.539  14.997  23.158  0.00  0.00     0.002 A 
ATOM     11  C   UNL d   1     -48.977  13.348  21.639  0.00  0.00     0.082 A 
ENDBRANCH   1   3
BRANCH   1  12
ATOM     12  N   UNL d   1     -47.670  14.330  22.828  0.00  0.00    -0.178 NA
ATOM     13  C   UNL d   1     -46.859  14.171  22.890  0.00  0.00     0.304 C 
ATOM     14  O   UNL d   1     -46.319  14.796  22.882  0.00  0.00    -0.263 OA
BRANCH  13  15
ATOM     15  C   UNL d   1     -46.583  13.397  22.960  0.00  0.00     0.158 A 
ATOM     16  O   UNL d   1     -46.687  12.826  23.534  0.00  0.00    -0.296 OA
ATOM     17  C   UNL d   1     -46.269  12.147  23.298  0.00  0.00     0.134 A 
ATOM     18 BR   UNL d   1     -46.204  11.413  23.698  0.00  0.00    -0.022 Br
ATOM     19  C   UNL d   1     -45.912  12.314  22.577  0.00  0.00     0.034 A 
ATOM     20  C   UNL d   1     -46.106  13.085  22.370  0.00  0.00     0.032 A 
ENDBRANCH  13  15
ENDBRANCH   1  12
TORSDOF 3
ENDMDL
MODEL 4
REMARK VINA RESULT:      -7.1      2.044      3.707
REMARK  3 active torsions:
REMARK  status: ('A' for Active; 'I' for Inactive)
REMARK    1  A    between atoms: N_2  and  C_1 
REMARK    2  A    between atoms: N_3  and  C_1 
REMARK       I    between atoms: C_4  and  N_3 
REMARK    3  A    between atoms: C_5  and  C_4 
ROOT
ATOM      1  C   UNL d   1     -48.093  12.011  22.714  0.00  0.00     0.209 C 
ATOM      2  S   UNL d   1     -47.866  12.460  22.046  0.00  0.00    -0.038 SA
ENDROOT
BRANCH   1   3
ATOM      3  N   UNL d   1     -48.886  12.022  22.964  0.00  0.00    -0.282 N 
ATOM      4  C   UNL d   1     -49.517  12.321  22.532  0.00  0.00     0.066 A 
ATOM      5  C   UNL d   1     -50.199  12.221  22.988  0.00  0.00     0.018 A 
ATOM      6  C   UNL d   1     -49.570  12.670  21.787  0.00  0.00     0.018 A 
ATOM      7  C   UNL d   1     -50.934  12.469  22.700  0.00  0.00     0.002 A 
ATOM      8  C   UNL d   1     -49.981  11.861  23.698  0.00  0.00     0.021 A 
ATOM      9  C   UNL d   1     -50.983  12.821  21.949  0.00  0.00     0.000 A 
ATOM     10  C   UNL d   1     -50.302  12.922  21.493  0.00  0.00     0.002 A 
ATOM     11  C   UNL d   1     -49.167  11.740  23.680  0.00  0.00     0.082 A 
ENDBRANCH   1   3
BRANCH   1  12
ATOM     12  N   UNL d   1     -47.538  11.563  23.118  0.00  0.00    -0.178 NA
ATOM     13  C   UNL d   1     -46.796  11.888  23.290  0.00  0.00     0.304 C 
ATOM     14  O   UNL d   1     -46.237  11.436  23.698  0.00  0.00    -0.263 OA
BRANCH  13  15
ATOM     15  C   UNL d   1     -46.605  12.656  23.060  0.00  0.00     0.158 A 
ATOM     16  O   UNL d   1     -46.881  13.386  23.300  0.00  0.00    -0.296 OA
ATOM     17  C   UNL d   1     -46.477  13.969  22.865  0.00  0.00     0.134 A 
ATOM     18 BR   UNL d   1     -46.562  14.801  22.908  0.00  0.00    -0.022 Br
ATOM     19  C   UNL d   1     -45.955  13.583  22.359  0.00  0.00     0.034 A 
ATOM     20  C   UNL d   1     -46.036  12.774  22.482  0.00  0.00     0.032 A 
ENDBRANCH  13  15
ENDBRANCH   1  12
TORSDOF 3
ENDMDL
MODEL 5
REMARK VINA RESULT:      -6.5      8.724      9.801
REMARK  3 active torsions:
REMARK  status: ('A' for Active; 'I' for Inactive)
REMARK    1  A    between atoms: N_2  and  C_1 
REMARK    2  A    between atoms: N_3  and  C_1 
REMARK       I    between atoms: C_4  and  N_3 
REMARK    3  A    between atoms: C_5  and  C_4 
ROOT
ATOM      1  C   UNL d   1     -39.773  14.576  19.040  0.00  0.00     0.209 C 
ATOM      2  S   UNL d   1     -39.691  15.343  18.718  0.00  0.00    -0.038 SA
ENDROOT
BRANCH   1   3
ATOM      3  N   UNL d   1     -40.040  14.488  19.823  0.00  0.00    -0.282 N 
ATOM      4  C   UNL d   1     -39.562  14.354  20.478  0.00  0.00     0.066 A 
ATOM      5  C   UNL d   1     -40.055  14.303  21.138  0.00  0.00     0.018 A 
ATOM      6  C   UNL d   1     -38.747  14.271  20.567  0.00  0.00     0.018 A 
ATOM      7  C   UNL d   1     -39.734  14.169  21.889  0.00  0.00     0.002 A 
ATOM      8  C   UNL d   1     -40.834  14.405  20.885  0.00  0.00     0.021 A 
ATOM      9  C   UNL d   1     -38.912  14.086  21.975  0.00  0.00     0.000 A 
ATOM     10  C   UNL d   1     -38.418  14.137  21.315  0.00  0.00     0.002 A 
ATOM     11  C   UNL d   1     -40.820  14.520  20.070  0.00  0.00     0.082 A 
ENDBRANCH   1   3
BRANCH   1  12
ATOM     12  N   UNL d   1     -39.591  13.916  18.589  0.00  0.00    -0.178 NA
ATOM     13  C   UNL d   1     -39.795  13.900  17.786  0.00  0.00     0.304 C 
ATOM     14  O   UNL d   1     -39.612  13.235  17.332  0.00  0.00    -0.263 OA
BRANCH  13  15
ATOM     15  C   UNL d   1     -40.179  14.539  17.433  0.00  0.00     0.158 A 
ATOM     16  O   UNL d   1     -40.962  14.772  17.420  0.00  0.00    -0.296 OA
ATOM     17  C   UNL d   1     -41.015  15.468  16.969  0.00  0.00     0.134 A 
ATOM     18 BR   UNL d   1     -41.697  15.921  16.793  0.00  0.00    -0.022 Br
ATOM     19  C   UNL d   1     -40.256  15.654  16.710  0.00  0.00     0.034 A 
ATOM     20  C   UNL d   1     -39.743  15.079  16.997  0.00  0.00     0.032 A 
ENDBRANCH  13  15
ENDBRANCH   1  12
TORSDOF 3
ENDMDL
