MODEL 1
REMARK VINA RESULT:      -8.3      0.000      0.000
REMARK  3 active torsions:
REMARK  status: ('A' for Active; 'I' for Inactive)
REMARK    1  A    between atoms: C_6  and  C_1 
REMARK    2  A    between atoms: C_7  and  C_5 
REMARK    3  A    between atoms: O_11  and  C_6 
ROOT
ATOM      1  C   UNL d   1      53.068  31.182  53.292  0.00  0.00     0.167 A 
ATOM      2  C   UNL d   1      53.331  31.556  53.929  0.00  0.00     0.047 A 
ATOM      3  N   UNL d   1      52.670  32.364  52.763  0.00  0.00    -0.148 NA
ATOM      4  N   UNL d   1      52.735  31.589  52.704  0.00  0.00    -0.143 NA
ATOM      5  C   UNL d   1      52.936  32.741  53.407  0.00  0.00     0.105 A 
ENDROOT
BRANCH   5   6
ATOM      6  C   UNL d   1      52.958  33.530  53.648  0.00  0.00     0.019 A 
ATOM      7  C   UNL d   1      53.363  33.725  54.348  0.00  0.00     0.002 A 
ATOM      8  C   UNL d   1      53.390  34.514  54.596  0.00  0.00     0.011 A 
ATOM      9  C   UNL d   1      53.011  35.102  54.144  0.00  0.00     0.058 A 
ATOM     10  C   UNL d   1      52.612  34.894  53.451  0.00  0.00     0.011 A 
ATOM     11 CL   UNL d   1      53.040  35.905  54.400  0.00  0.00    -0.082 Cl
ATOM     12  C   UNL d   1      52.587  34.113  53.207  0.00  0.00     0.002 A 
ENDBRANCH   5   6
BRANCH   1  13
ATOM     13  C   UNL d   1      53.136  30.396  53.238  0.00  0.00     0.316 C 
ATOM     14  O   UNL d   1      52.910  30.023  52.577  0.00  0.00    -0.257 OA
BRANCH  13  15
ATOM     15  O   UNL d   1      53.443  29.975  53.875  0.00  0.00    -0.294 OA
ATOM     16  C   UNL d   1      53.241  29.158  53.974  0.00  0.00     0.185 C 
ENDBRANCH  13  15
ENDBRANCH   1  13
TORSDOF 3
ENDMDL
MODEL 2
REMARK VINA RESULT:      -7.9      2.594      3.485
REMARK  3 active torsions:
REMARK  status: ('A' for Active; 'I' for Inactive)
REMARK    1  A    between atoms: C_6  and  C_1 
REMARK    2  A    between atoms: C_7  and  C_5 
REMARK    3  A    between atoms: O_11  and  C_6 
ROOT
ATOM      1  C   UNL d   1      51.180  34.061  52.871  0.00  0.00     0.167 A 
ATOM      2  C   UNL d   1      51.799  34.539  52.912  0.00  0.00     0.047 A 
ATOM      3  N   UNL d   1      51.807  33.178  53.684  0.00  0.00    -0.148 NA
ATOM      4  N   UNL d   1      51.182  33.375  53.260  0.00  0.00    -0.143 NA
ATOM      5  C   UNL d   1      52.433  33.662  53.726  0.00  0.00     0.105 A 
ENDROOT
BRANCH   5   6
ATOM      6  C   UNL d   1      53.163  33.632  54.109  0.00  0.00     0.019 A 
ATOM      7  C   UNL d   1      53.315  34.170  54.725  0.00  0.00     0.002 A 
ATOM      8  C   UNL d   1      54.045  34.147  55.115  0.00  0.00     0.011 A 
ATOM      9  C   UNL d   1      54.617  33.586  54.887  0.00  0.00     0.058 A 
ATOM     10  C   UNL d   1      54.452  33.058  54.273  0.00  0.00     0.011 A 
ATOM     11 CL   UNL d   1      55.359  33.565  55.286  0.00  0.00    -0.082 Cl
ATOM     12  C   UNL d   1      53.729  33.083  53.889  0.00  0.00     0.002 A 
ENDBRANCH   5   6
BRANCH   1  13
ATOM     13  C   UNL d   1      50.549  34.265  52.439  0.00  0.00     0.316 C 
ATOM     14  O   UNL d   1      50.564  34.180  51.651  0.00  0.00    -0.257 OA
BRANCH  13  15
ATOM     15  O   UNL d   1      49.883  34.566  52.818  0.00  0.00    -0.294 OA
ATOM     16  C   UNL d   1      49.231  34.848  52.358  0.00  0.00     0.185 C 
ENDBRANCH  13  15
ENDBRANCH   1  13
TORSDOF 3
ENDMDL
MODEL 3
REMARK VINA RESULT:      -7.8      2.656      4.176
REMARK  3 active torsions:
REMARK  status: ('A' for Active; 'I' for Inactive)
REMARK    1  A    between atoms: C_6  and  C_1 
REMARK    2  A    between atoms: C_7  and  C_5 
REMARK    3  A    between atoms: O_11  and  C_6 
ROOT
ATOM      1  C   UNL d   1      53.017  34.102  53.782  0.00  0.00     0.167 A 
ATOM      2  C   UNL d   1      52.483  33.567  53.993  0.00  0.00     0.047 A 
ATOM      3  N   UNL d   1      53.808  33.118  53.292  0.00  0.00    -0.148 NA
ATOM      4  N   UNL d   1      53.685  33.876  53.429  0.00  0.00    -0.143 NA
ATOM      5  C   UNL d   1      53.269  32.578  53.505  0.00  0.00     0.105 A 
ENDROOT
BRANCH   5   6
ATOM      6  C   UNL d   1      53.218  31.757  53.447  0.00  0.00     0.019 A 
ATOM      7  C   UNL d   1      52.662  31.425  52.925  0.00  0.00     0.002 A 
ATOM      8  C   UNL d   1      52.605  30.601  52.861  0.00  0.00     0.011 A 
ATOM      9  C   UNL d   1      53.103  30.116  53.320  0.00  0.00     0.058 A 
ATOM     10  C   UNL d   1      53.650  30.461  53.835  0.00  0.00     0.011 A 
ATOM     11 CL   UNL d   1      53.042  29.278  53.253  0.00  0.00    -0.082 Cl
ATOM     12  C   UNL d   1      53.705  31.275  53.896  0.00  0.00     0.002 A 
ENDBRANCH   5   6
BRANCH   1  13
ATOM     13  C   UNL d   1      52.886  34.869  53.924  0.00  0.00     0.316 C 
ATOM     14  O   UNL d   1      52.400  35.282  53.454  0.00  0.00    -0.257 OA
BRANCH  13  15
ATOM     15  O   UNL d   1      53.261  35.228  54.563  0.00  0.00    -0.294 OA
ATOM     16  C   UNL d   1      53.055  36.022  54.777  0.00  0.00     0.185 C 
ENDBRANCH  13  15
ENDBRANCH   1  13
TORSDOF 3
ENDMDL
MODEL 4
REMARK VINA RESULT:      -7.6      2.395      3.080
REMARK  3 active torsions:
REMARK  status: ('A' for Active; 'I' for Inactive)
REMARK    1  A    between atoms: C_6  and  C_1 
REMARK    2  A    between atoms: C_7  and  C_5 
REMARK    3  A    between atoms: O_11  and  C_6 
ROOT
ATOM      1  C   UNL d   1      53.564  33.268  54.379  0.00  0.00     0.167 A 
ATOM      2  C   UNL d   1      53.105  33.901  54.440  0.00  0.00     0.047 A 
ATOM      3  N   UNL d   1      52.788  32.803  53.372  0.00  0.00    -0.148 NA
ATOM      4  N   UNL d   1      53.405  32.714  53.841  0.00  0.00    -0.143 NA
ATOM      5  C   UNL d   1      52.324  33.442  53.434  0.00  0.00     0.105 A 
ENDROOT
BRANCH   5   6
ATOM      6  C   UNL d   1      51.649  33.707  53.041  0.00  0.00     0.019 A 
ATOM      7  C   UNL d   1      51.733  34.065  52.294  0.00  0.00     0.002 A 
ATOM      8  C   UNL d   1      51.060  34.334  51.894  0.00  0.00     0.011 A 
ATOM      9  C   UNL d   1      50.309  34.244  52.243  0.00  0.00     0.058 A 
ATOM     10  C   UNL d   1      50.241  33.887  52.986  0.00  0.00     0.011 A 
ATOM     11 CL   UNL d   1      49.625  34.519  51.833  0.00  0.00    -0.082 Cl
ATOM     12  C   UNL d   1      50.908  33.622  53.379  0.00  0.00     0.002 A 
ENDBRANCH   5   6
BRANCH   1  13
ATOM     13  C   UNL d   1      54.188  33.183  54.858  0.00  0.00     0.316 C 
ATOM     14  O   UNL d   1      54.159  32.670  55.460  0.00  0.00    -0.257 OA
BRANCH  13  15
ATOM     15  O   UNL d   1      54.863  33.634  54.719  0.00  0.00    -0.294 OA
ATOM     16  C   UNL d   1      55.429  33.742  55.341  0.00  0.00     0.185 C 
ENDBRANCH  13  15
ENDBRANCH   1  13
TORSDOF 3
ENDMDL
MODEL 5
REMARK VINA RESULT:      -7.6      2.777      4.076
REMARK  3 active torsions:
REMARK  status: ('A' for Active; 'I' for Inactive)
REMARK    1  A    between atoms: C_6  and  C_1 
REMARK    2  A    between atoms: C_7  and  C_5 
REMARK    3  A    between atoms: O_11  and  C_6 
ROOT
ATOM      1  C   UNL d   1      51.672  33.421  52.878  0.00  0.00     0.167 A 
ATOM      2  C   UNL d   1      51.472  32.883  53.412  0.00  0.00     0.047 A 
ATOM      3  N   UNL d   1      52.707  32.643  52.483  0.00  0.00    -0.148 NA
ATOM      4  N   UNL d   1      52.295  33.301  52.409  0.00  0.00    -0.143 NA
ATOM      5  C   UNL d   1      52.505  32.100  53.023  0.00  0.00     0.105 A 
ENDROOT
BRANCH   5   6
ATOM      6  C   UNL d   1      52.807  31.365  53.245  0.00  0.00     0.019 A 
ATOM      7  C   UNL d   1      53.488  31.339  53.723  0.00  0.00     0.002 A 
ATOM      8  C   UNL d   1      53.797  30.605  53.951  0.00  0.00     0.011 A 
ATOM      9  C   UNL d   1      53.424  29.904  53.700  0.00  0.00     0.058 A 
ATOM     10  C   UNL d   1      52.748  29.946  53.226  0.00  0.00     0.011 A 
ATOM     11 CL   UNL d   1      53.741  29.159  53.934  0.00  0.00    -0.082 Cl
ATOM     12  C   UNL d   1      52.444  30.672  53.002  0.00  0.00     0.002 A 
ENDBRANCH   5   6
BRANCH   1  13
ATOM     13  C   UNL d   1      51.249  34.086  52.808  0.00  0.00     0.316 C 
ATOM     14  O   UNL d   1      51.609  34.791  52.852  0.00  0.00    -0.257 OA
BRANCH  13  15
ATOM     15  O   UNL d   1      50.436  34.034  52.691  0.00  0.00    -0.294 OA
ATOM     16  C   UNL d   1      49.963  34.737  52.716  0.00  0.00     0.185 C 
ENDBRANCH  13  15
ENDBRANCH   1  13
TORSDOF 3
ENDMDL
MODEL 6
REMARK VINA RESULT:      -6.9      2.764      3.496
REMARK  3 active torsions:
REMARK  status: ('A' for Active; 'I' for Inactive)
REMARK    1  A    between atoms: C_6  and  C_1 
REMARK    2  A    between atoms: C_7  and  C_5 
REMARK    3  A    between atoms: O_11  and  C_6 
ROOT
ATOM      1  C   UNL d   1      53.226  34.166  54.346  0.00  0.00     0.167 A 
ATOM      2  C   UNL d   1      52.870  33.580  53.966  0.00  0.00     0.047 A 
ATOM      3  N   UNL d   1      52.370  35.052  53.783  0.00  0.00    -0.148 NA
ATOM      4  N   UNL d   1      52.975  34.908  54.255  0.00  0.00    -0.143 NA
ATOM      5  C   UNL d   1      52.011  34.460  53.399  0.00  0.00     0.105 A 
ENDROOT
BRANCH   5   6
ATOM      6  C   UNL d   1      51.376  34.412  52.874  0.00  0.00     0.019 A 
ATOM      7  C   UNL d   1      50.605  34.521  53.166  0.00  0.00     0.002 A 
ATOM      8  C   UNL d   1      49.963  34.474  52.645  0.00  0.00     0.011 A 
ATOM      9  C   UNL d   1      50.096  34.319  51.837  0.00  0.00     0.058 A 
ATOM     10  C   UNL d   1      50.868  34.213  51.562  0.00  0.00     0.011 A 
ATOM     11 CL   UNL d   1      49.440  34.272  51.310  0.00  0.00    -0.082 Cl
ATOM     12  C   UNL d   1      51.502  34.259  52.079  0.00  0.00     0.002 A 
ENDBRANCH   5   6
BRANCH   1  13
ATOM     13  C   UNL d   1      53.838  34.014  54.824  0.00  0.00     0.316 C 
ATOM     14  O   UNL d   1      54.374  34.578  54.973  0.00  0.00    -0.257 OA
BRANCH  13  15
ATOM     15  O   UNL d   1      53.909  33.266  55.159  0.00  0.00    -0.294 OA
ATOM     16  C   UNL d   1      54.591  33.079  55.626  0.00  0.00     0.185 C 
ENDBRANCH  13  15
ENDBRANCH   1  13
TORSDOF 3
ENDMDL
MODEL 7
REMARK VINA RESULT:      -6.0      3.064      3.721
REMARK  3 active torsions:
REMARK  status: ('A' for Active; 'I' for Inactive)
REMARK    1  A    between atoms: C_6  and  C_1 
REMARK    2  A    between atoms: C_7  and  C_5 
REMARK    3  A    between atoms: O_11  and  C_6 
ROOT
ATOM      1  C   UNL d   1      51.931  33.438  52.955  0.00  0.00     0.167 A 
ATOM      2  C   UNL d   1      51.793  33.975  52.401  0.00  0.00     0.047 A 
ATOM      3  N   UNL d   1      50.634  33.501  53.339  0.00  0.00    -0.148 NA
ATOM      4  N   UNL d   1      51.347  33.198  53.428  0.00  0.00    -0.143 NA
ATOM      5  C   UNL d   1      50.495  34.044  52.780  0.00  0.00     0.105 A 
ENDROOT
BRANCH   5   6
ATOM      6  C   UNL d   1      49.830  34.468  52.538  0.00  0.00     0.019 A 
ATOM      7  C   UNL d   1      49.476  34.999  53.072  0.00  0.00     0.002 A 
ATOM      8  C   UNL d   1      48.809  35.429  52.837  0.00  0.00     0.011 A 
ATOM      9  C   UNL d   1      48.500  35.325  52.071  0.00  0.00     0.058 A 
ATOM     10  C   UNL d   1      48.862  34.794  51.551  0.00  0.00     0.011 A 
ATOM     11 CL   UNL d   1      47.820  35.764  51.834  0.00  0.00    -0.082 Cl
ATOM     12  C   UNL d   1      49.522  34.370  51.785  0.00  0.00     0.002 A 
ENDBRANCH   5   6
BRANCH   1  13
ATOM     13  C   UNL d   1      52.657  33.134  53.040  0.00  0.00     0.316 C 
ATOM     14  O   UNL d   1      52.886  32.523  52.592  0.00  0.00    -0.257 OA
BRANCH  13  15
ATOM     15  O   UNL d   1      53.165  33.462  53.599  0.00  0.00    -0.294 OA
ATOM     16  C   UNL d   1      53.938  33.132  53.706  0.00  0.00     0.185 C 
ENDBRANCH  13  15
ENDBRANCH   1  13
TORSDOF 3
ENDMDL
MODEL 8
REMARK VINA RESULT:      -5.6     10.283     10.830
REMARK  3 active torsions:
REMARK  status: ('A' for Active; 'I' for Inactive)
REMARK    1  A    between atoms: C_6  and  C_1 
REMARK    2  A    between atoms: C_7  and  C_5 
REMARK    3  A    between atoms: O_11  and  C_6 
ROOT
ATOM      1  C   UNL d   1      44.816  30.179  59.583  0.00  0.00     0.167 A 
ATOM      2  C   UNL d   1      44.432  29.496  59.556  0.00  0.00     0.047 A 
ATOM      3  N   UNL d   1      45.520  29.825  58.482  0.00  0.00    -0.148 NA
ATOM      4  N   UNL d   1      45.365  30.345  59.041  0.00  0.00    -0.143 NA
ATOM      5  C   UNL d   1      45.132  29.135  58.455  0.00  0.00     0.105 A 
ENDROOT
BRANCH   5   6
ATOM      6  C   UNL d   1      45.154  28.477  57.957  0.00  0.00     0.019 A 
ATOM      7  C   UNL d   1      45.536  27.787  58.223  0.00  0.00     0.002 A 
ATOM      8  C   UNL d   1      45.562  27.122  57.729  0.00  0.00     0.011 A 
ATOM      9  C   UNL d   1      45.209  27.152  56.976  0.00  0.00     0.058 A 
ATOM     10  C   UNL d   1      44.833  27.846  56.726  0.00  0.00     0.011 A 
ATOM     11 CL   UNL d   1      45.237  26.474  56.476  0.00  0.00    -0.082 Cl
ATOM     12  C   UNL d   1      44.808  28.502  57.216  0.00  0.00     0.002 A 
ENDBRANCH   5   6
BRANCH   1  13
ATOM     13  C   UNL d   1      44.653  30.703  60.153  0.00  0.00     0.316 C 
ATOM     14  O   UNL d   1      44.315  31.395  59.970  0.00  0.00    -0.257 OA
BRANCH  13  15
ATOM     15  O   UNL d   1      44.841  30.517  60.933  0.00  0.00    -0.294 OA
ATOM     16  C   UNL d   1      44.631  31.055  61.553  0.00  0.00     0.185 C 
ENDBRANCH  13  15
ENDBRANCH   1  13
TORSDOF 3
ENDMDL
MODEL 9
REMARK VINA RESULT:      -5.4      9.843     10.743
REMARK  3 active torsions:
REMARK  status: ('A' for Active; 'I' for Inactive)
REMARK    1  A    between atoms: C_6  and  C_1 
REMARK    2  A    between atoms: C_7  and  C_5 
REMARK    3  A    between atoms: O_11  and  C_6 
ROOT
ATOM      1  C   UNL d   1      44.818  30.537  57.977  0.00  0.00     0.167 A 
ATOM      2  C   UNL d   1      44.431  29.943  57.642  0.00  0.00     0.047 A 
ATOM      3  N   UNL d   1      45.465  29.662  58.782  0.00  0.00    -0.148 NA
ATOM      4  N   UNL d   1      45.339  30.396  58.551  0.00  0.00    -0.143 NA
ATOM      5  C   UNL d   1      45.075  29.062  58.443  0.00  0.00     0.105 A 
ENDROOT
BRANCH   5   6
ATOM      6  C   UNL d   1      45.071  28.243  58.545  0.00  0.00     0.019 A 
ATOM      7  C   UNL d   1      45.420  27.764  57.961  0.00  0.00     0.002 A 
ATOM      8  C   UNL d   1      45.420  26.941  58.056  0.00  0.00     0.011 A 
ATOM      9  C   UNL d   1      45.072  26.604  58.733  0.00  0.00     0.058 A 
ATOM     10  C   UNL d   1      44.729  27.092  59.305  0.00  0.00     0.011 A 
ATOM     11 CL   UNL d   1      45.074  25.766  58.827  0.00  0.00    -0.082 Cl
ATOM     12  C   UNL d   1      44.730  27.906  59.209  0.00  0.00     0.002 A 
ENDBRANCH   5   6
BRANCH   1  13
ATOM     13  C   UNL d   1      44.685  31.280  57.739  0.00  0.00     0.316 C 
ATOM     14  O   UNL d   1      44.539  31.847  58.272  0.00  0.00    -0.257 OA
BRANCH  13  15
ATOM     15  O   UNL d   1      44.702  31.452  56.934  0.00  0.00    -0.294 OA
ATOM     16  C   UNL d   1      44.471  32.222  56.665  0.00  0.00     0.185 C 
ENDBRANCH  13  15
ENDBRANCH   1  13
TORSDOF 3
ENDMDL
