MODEL 1
REMARK VINA RESULT:      -0.4      0.000      0.000
REMARK  0 active torsions:
REMARK  status: ('A' for Active; 'I' for Inactive)
ROOT
ATOM      1  N   UNL d   1      46.615 -19.124  42.677  0.00  0.00    -0.187 N 
ATOM      2  C   UNL d   1      46.630 -19.948  42.720  0.00  0.00     0.200 A 
ATOM      3  N   UNL d   1      46.627 -20.330  43.451  0.00  0.00    -0.181 NA
ATOM      4  N   UNL d   1      46.596 -18.674  43.382  0.00  0.00    -0.157 NA
ATOM      5  C   UNL d   1      46.623 -18.910  41.879  0.00  0.00     0.194 A 
ATOM      6  C   UNL d   1      46.608 -19.889  44.147  0.00  0.00     0.300 A 
ATOM      7  C   UNL d   1      46.593 -19.056  44.113  0.00  0.00     0.159 A 
ATOM      8  S   UNL d   1      46.647 -20.241  41.948  0.00  0.00    -0.045 SA
ATOM      9  C   UNL d   1      46.642 -19.593  41.426  0.00  0.00     0.079 A 
ATOM     10  O   UNL d   1      46.605 -20.271  44.879  0.00  0.00    -0.263 OA
ATOM     11  N   UNL d   1      46.612 -18.138  41.590  0.00  0.00    -0.126 N 
ATOM     12  C   UNL d   1      46.574 -18.615  44.810  0.00  0.00     0.028 C 
ENDROOT
TORSDOF 0
ENDMDL
