MODEL 1
REMARK VINA RESULT:      10.6      0.000      0.000
REMARK  4 active torsions:
REMARK  status: ('A' for Active; 'I' for Inactive)
REMARK    1  A    between atoms: C_2  and  C_1 
REMARK    2  A    between atoms: C_4  and  C_3 
REMARK       I    between atoms: N_6  and  C_4 
REMARK    3  A    between atoms: C_5  and  C_10 
REMARK       I    between atoms: N_9  and  C_5 
REMARK    4  A    between atoms: C_10  and  N_6 
ROOT
ATOM      1  C   UNL d   1      44.999 -13.672  44.194  0.00  0.00     0.076 A 
ATOM      2  C   UNL d   1      45.261 -14.359  44.581  0.00  0.00     0.062 A 
ATOM      3  C   UNL d   1      44.201 -13.489  44.183  0.00  0.00     0.004 A 
ATOM      4  C   UNL d   1      44.707 -14.854  44.955  0.00  0.00     0.005 A 
ATOM      5  C   UNL d   1      43.894 -14.658  44.939  0.00  0.00     0.000 A 
ATOM      6  C   UNL d   1      43.654 -13.977  44.553  0.00  0.00    -0.000 A 
ENDROOT
BRANCH   2   7
ATOM      7  C   UNL d   1      46.063 -14.552  44.596  0.00  0.00     0.279 C 
ATOM      8  N   UNL d   1      46.303 -15.330  44.459  0.00  0.00    -0.201 NA
ATOM      9  O   UNL d   1      46.619 -13.961  44.750  0.00  0.00    -0.265 OA
BRANCH   8  10
ATOM     10  C   UNL d   1      45.743 -15.917  44.305  0.00  0.00     0.166 C 
BRANCH  10  11
ATOM     11  C   UNL d   1      45.987 -16.685  44.138  0.00  0.00     0.318 C 
ATOM     12  O   UNL d   1      46.200 -16.886  43.371  0.00  0.00    -0.262 OA
ATOM     13  N   UNL d   1      46.018 -17.250  44.741  0.00  0.00    -0.083 NA
ATOM     14  N   UNL d   1      46.263 -18.017  44.574  0.00  0.00    -0.019 N 
ENDBRANCH  10  11
ENDBRANCH   8  10
ENDBRANCH   2   7
BRANCH   1  15
ATOM     15  C   UNL d   1      45.552 -13.178  43.820  0.00  0.00     0.419 C 
ATOM     16  F   UNL d   1      46.057 -12.727  43.479  0.00  0.00    -0.166 F 
ATOM     17  F   UNL d   1      45.980 -12.500  44.152  0.00  0.00    -0.166 F 
ATOM     18  F   UNL d   1      45.845 -13.204  43.020  0.00  0.00    -0.166 F 
ENDBRANCH   1  15
TORSDOF 4
ENDMDL
MODEL 2
REMARK VINA RESULT:      11.8      1.643      2.023
REMARK  4 active torsions:
REMARK  status: ('A' for Active; 'I' for Inactive)
REMARK    1  A    between atoms: C_2  and  C_1 
REMARK    2  A    between atoms: C_4  and  C_3 
REMARK       I    between atoms: N_6  and  C_4 
REMARK    3  A    between atoms: C_5  and  C_10 
REMARK       I    between atoms: N_9  and  C_5 
REMARK    4  A    between atoms: C_10  and  N_6 
ROOT
ATOM      1  C   UNL d   1      45.348 -12.784  43.693  0.00  0.00     0.076 A 
ATOM      2  C   UNL d   1      45.893 -13.399  43.820  0.00  0.00     0.062 A 
ATOM      3  C   UNL d   1      45.343 -12.134  44.190  0.00  0.00     0.004 A 
ATOM      4  C   UNL d   1      46.429 -13.345  44.452  0.00  0.00     0.005 A 
ATOM      5  C   UNL d   1      46.417 -12.676  44.954  0.00  0.00     0.000 A 
ATOM      6  C   UNL d   1      45.873 -12.080  44.815  0.00  0.00    -0.000 A 
ENDROOT
BRANCH   2   7
ATOM      7  C   UNL d   1      45.904 -14.058  43.324  0.00  0.00     0.279 C 
ATOM      8  N   UNL d   1      45.680 -14.797  43.616  0.00  0.00    -0.201 NA
ATOM      9  O   UNL d   1      46.141 -13.970  42.537  0.00  0.00    -0.265 OA
BRANCH   8  10
ATOM     10  C   UNL d   1      45.444 -14.880  44.403  0.00  0.00     0.166 C 
BRANCH  10  11
ATOM     11  C   UNL d   1      45.031 -15.552  44.640  0.00  0.00     0.318 C 
ATOM     12  O   UNL d   1      45.440 -16.245  44.800  0.00  0.00    -0.262 OA
ATOM     13  N   UNL d   1      44.208 -15.524  44.716  0.00  0.00    -0.083 NA
ATOM     14  N   UNL d   1      43.796 -16.195  44.953  0.00  0.00    -0.019 N 
ENDBRANCH  10  11
ENDBRANCH   8  10
ENDBRANCH   2   7
BRANCH   1  15
ATOM     15  C   UNL d   1      44.811 -12.838  43.061  0.00  0.00     0.419 C 
ATOM     16  F   UNL d   1      44.322 -12.888  42.484  0.00  0.00    -0.166 F 
ATOM     17  F   UNL d   1      43.948 -12.916  43.091  0.00  0.00    -0.166 F 
ATOM     18  F   UNL d   1      44.964 -12.832  42.222  0.00  0.00    -0.166 F 
ENDBRANCH   1  15
TORSDOF 4
ENDMDL
