MODEL 1
REMARK VINA RESULT:      -5.8      0.000      0.000
REMARK  2 active torsions:
REMARK  status: ('A' for Active; 'I' for Inactive)
REMARK    1  A    between atoms: C_6  and  C_1 
REMARK    2  A    between atoms: O_12  and  C_9 
ROOT
ATOM      1  C   UNL d   1     -41.974-122.104 -54.758  0.00  0.00     0.128 A 
ATOM      2  C   UNL d   1     -42.019-121.467 -54.236  0.00  0.00     0.306 A 
ATOM      3  O   UNL d   1     -41.835-121.570 -53.456  0.00  0.00    -0.271 OA
ATOM      4  C   UNL d   1     -41.747-122.828 -54.486  0.00  0.00     0.013 A 
ATOM      5  C   UNL d   1     -41.595-122.321 -53.157  0.00  0.00     0.125 A 
ATOM      6  C   UNL d   1     -41.550-122.958 -53.679  0.00  0.00     0.025 A 
ATOM      7  O   UNL d   1     -42.247-120.740 -54.504  0.00  0.00    -0.259 OA
ATOM      8  C   UNL d   1     -41.404-122.437 -52.360  0.00  0.00     0.117 A 
ATOM      9  C   UNL d   1     -41.316-123.695 -53.391  0.00  0.00     0.002 A 
ATOM     10  C   UNL d   1     -41.124-123.817 -52.594  0.00  0.00     0.002 A 
ATOM     11  C   UNL d   1     -41.168-123.180 -52.072  0.00  0.00     0.026 A 
ENDROOT
BRANCH   1  12
ATOM     12  C   UNL d   1     -42.157-122.022 -55.554  0.00  0.00     0.216 C 
ATOM     13  O   UNL d   1     -42.950-122.125 -55.832  0.00  0.00    -0.644 OA
ATOM     14  O   UNL d   1     -41.535-121.840 -56.021  0.00  0.00    -0.644 OA
ENDBRANCH   1  12
BRANCH   8  15
ATOM     15  O   UNL d   1     -41.448-121.807 -51.844  0.00  0.00    -0.326 OA
ATOM     16  C   UNL d   1     -41.380-121.928 -51.047  0.00  0.00     0.181 C 
ENDBRANCH   8  15
TORSDOF 2
ENDMDL
MODEL 2
REMARK VINA RESULT:      -5.0      1.104      1.695
REMARK  2 active torsions:
REMARK  status: ('A' for Active; 'I' for Inactive)
REMARK    1  A    between atoms: C_6  and  C_1 
REMARK    2  A    between atoms: O_12  and  C_9 
ROOT
ATOM      1  C   UNL d   1     -41.843-122.334 -54.043  0.00  0.00     0.128 A 
ATOM      2  C   UNL d   1     -41.862-123.118 -53.787  0.00  0.00     0.306 A 
ATOM      3  O   UNL d   1     -41.698-123.295 -53.016  0.00  0.00    -0.271 OA
ATOM      4  C   UNL d   1     -41.661-121.747 -53.521  0.00  0.00     0.013 A 
ATOM      5  C   UNL d   1     -41.506-122.692 -52.458  0.00  0.00     0.125 A 
ATOM      6  C   UNL d   1     -41.487-121.908 -52.715  0.00  0.00     0.025 A 
ATOM      7  O   UNL d   1     -42.043-123.708 -54.307  0.00  0.00    -0.259 OA
ATOM      8  C   UNL d   1     -41.337-122.863 -51.667  0.00  0.00     0.117 A 
ATOM      9  C   UNL d   1     -41.300-121.315 -52.172  0.00  0.00     0.002 A 
ATOM     10  C   UNL d   1     -41.130-121.480 -51.378  0.00  0.00     0.002 A 
ATOM     11  C   UNL d   1     -41.148-122.264 -51.122  0.00  0.00     0.026 A 
ENDROOT
BRANCH   1  12
ATOM     12  C   UNL d   1     -42.006-122.131 -54.822  0.00  0.00     0.216 C 
ATOM     13  O   UNL d   1     -42.797-121.959 -55.071  0.00  0.00    -0.644 OA
ATOM     14  O   UNL d   1     -41.368-122.114 -55.302  0.00  0.00    -0.644 OA
ENDBRANCH   1  12
BRANCH   8  15
ATOM     15  O   UNL d   1     -41.355-123.638 -51.414  0.00  0.00    -0.326 OA
ATOM     16  C   UNL d   1     -41.352-123.809 -50.623  0.00  0.00     0.181 C 
ENDBRANCH   8  15
TORSDOF 2
ENDMDL
