MODEL 1
REMARK VINA RESULT:      -9.5      0.000      0.000
REMARK  4 active torsions:
REMARK  status: ('A' for Active; 'I' for Inactive)
REMARK    1  A    between atoms: C_6  and  C_1 
REMARK    2  A    between atoms: C_8  and  N_3 
REMARK    3  A    between atoms: C_9  and  C_6 
REMARK    4  A    between atoms: N_7  and  C_9 
ROOT
ATOM      1  C   UNL d   1      51.767  33.734  52.834  0.00  0.00     0.058 A 
ATOM      2  C   UNL d   1      52.354  34.064  53.281  0.00  0.00     0.067 A 
ATOM      3  N   UNL d   1      52.858  33.490  53.544  0.00  0.00    -0.306 N 
ATOM      4  C   UNL d   1      52.564  32.811  53.247  0.00  0.00     0.064 A 
ATOM      5  C   UNL d   1      51.865  32.987  52.795  0.00  0.00     0.022 A 
ATOM      6  C   UNL d   1      52.416  34.872  53.437  0.00  0.00     0.019 C 
ATOM      7  C   UNL d   1      52.884  32.100  53.365  0.00  0.00     0.019 C 
ENDROOT
BRANCH   1   8
ATOM      8  C   UNL d   1      51.120  34.137  52.449  0.00  0.00     0.214 C 
ATOM      9  O   UNL d   1      51.221  34.483  51.732  0.00  0.00    -0.285 OA
BRANCH   8  10
ATOM     10  C   UNL d   1      50.329  34.196  52.803  0.00  0.00     0.123 C 
BRANCH  10  11
ATOM     11  N   UNL d   1      49.673  34.499  52.400  0.00  0.00    -0.300 N 
ATOM     12  C   UNL d   1      49.466  34.262  51.648  0.00  0.00     0.080 A 
ATOM     13  C   UNL d   1      48.772  34.584  51.226  0.00  0.00     0.019 A 
ATOM     14  C   UNL d   1      48.349  35.107  51.583  0.00  0.00     0.003 A 
ATOM     15  C   UNL d   1      48.550  35.362  52.360  0.00  0.00     0.019 A 
ATOM     16  C   UNL d   1      47.677  35.414  51.164  0.00  0.00     0.000 C 
ATOM     17  C   UNL d   1      49.206  35.062  52.768  0.00  0.00     0.080 A 
ENDBRANCH  10  11
ENDBRANCH   8  10
ENDBRANCH   1   8
BRANCH   3  18
ATOM     18  C   UNL d   1      53.548  33.488  54.014  0.00  0.00     0.064 A 
ATOM     19  C   UNL d   1      54.272  33.435  53.722  0.00  0.00     0.020 A 
ATOM     20  C   UNL d   1      54.992  33.433  54.215  0.00  0.00     0.031 A 
ATOM     21  C   UNL d   1      54.920  33.486  54.989  0.00  0.00     0.140 A 
ATOM     22  C   UNL d   1      54.188  33.541  55.326  0.00  0.00     0.031 A 
ATOM     23  F   UNL d   1      55.637  33.484  55.486  0.00  0.00    -0.204 F 
ATOM     24  C   UNL d   1      53.517  33.540  54.821  0.00  0.00     0.020 A 
ENDBRANCH   3  18
TORSDOF 4
ENDMDL
MODEL 2
REMARK VINA RESULT:      -7.2      2.429      4.800
REMARK  4 active torsions:
REMARK  status: ('A' for Active; 'I' for Inactive)
REMARK    1  A    between atoms: C_6  and  C_1 
REMARK    2  A    between atoms: C_8  and  N_3 
REMARK    3  A    between atoms: C_9  and  C_6 
REMARK    4  A    between atoms: N_7  and  C_9 
ROOT
ATOM      1  C   UNL d   1      53.062  32.224  53.308  0.00  0.00     0.058 A 
ATOM      2  C   UNL d   1      53.393  32.845  53.705  0.00  0.00     0.067 A 
ATOM      3  N   UNL d   1      52.930  33.504  53.625  0.00  0.00    -0.306 N 
ATOM      4  C   UNL d   1      52.318  33.266  53.174  0.00  0.00     0.064 A 
ATOM      5  C   UNL d   1      52.419  32.444  52.980  0.00  0.00     0.022 A 
ATOM      6  C   UNL d   1      54.100  32.800  54.127  0.00  0.00     0.019 C 
ATOM      7  C   UNL d   1      51.722  33.733  52.952  0.00  0.00     0.019 C 
ENDROOT
BRANCH   1   8
ATOM      8  C   UNL d   1      53.366  31.428  53.247  0.00  0.00     0.214 C 
ATOM      9  O   UNL d   1      54.148  31.296  53.133  0.00  0.00    -0.285 OA
BRANCH   8  10
ATOM     10  C   UNL d   1      52.856  30.728  53.303  0.00  0.00     0.123 C 
BRANCH  10  11
ATOM     11  N   UNL d   1      53.047  30.062  53.755  0.00  0.00    -0.300 N 
ATOM     12  C   UNL d   1      52.912  30.017  54.558  0.00  0.00     0.080 A 
ATOM     13  C   UNL d   1      53.116  29.312  55.032  0.00  0.00     0.019 A 
ATOM     14  C   UNL d   1      53.433  28.720  54.672  0.00  0.00     0.003 A 
ATOM     15  C   UNL d   1      53.579  28.751  53.844  0.00  0.00     0.019 A 
ATOM     16  C   UNL d   1      53.627  28.040  55.143  0.00  0.00     0.000 C 
ATOM     17  C   UNL d   1      53.389  29.416  53.387  0.00  0.00     0.080 A 
ENDBRANCH  10  11
ENDBRANCH   8  10
ENDBRANCH   1   8
BRANCH   3  18
ATOM     18  C   UNL d   1      52.979  34.290  53.901  0.00  0.00     0.064 A 
ATOM     19  C   UNL d   1      53.185  34.896  53.449  0.00  0.00     0.020 A 
ATOM     20  C   UNL d   1      53.235  35.717  53.738  0.00  0.00     0.031 A 
ATOM     21  C   UNL d   1      53.068  35.867  54.484  0.00  0.00     0.140 A 
ATOM     22  C   UNL d   1      52.851  35.266  54.980  0.00  0.00     0.031 A 
ATOM     23  F   UNL d   1      53.117  36.686  54.778  0.00  0.00    -0.204 F 
ATOM     24  C   UNL d   1      52.813  34.487  54.668  0.00  0.00     0.020 A 
ENDBRANCH   3  18
TORSDOF 4
ENDMDL
MODEL 3
REMARK VINA RESULT:      -7.0      2.349      5.575
REMARK  4 active torsions:
REMARK  status: ('A' for Active; 'I' for Inactive)
REMARK    1  A    between atoms: C_6  and  C_1 
REMARK    2  A    between atoms: C_8  and  N_3 
REMARK    3  A    between atoms: C_9  and  C_6 
REMARK    4  A    between atoms: N_7  and  C_9 
ROOT
ATOM      1  C   UNL d   1      50.083  34.348  52.439  0.00  0.00     0.058 A 
ATOM      2  C   UNL d   1      49.474  34.803  52.711  0.00  0.00     0.067 A 
ATOM      3  N   UNL d   1      48.952  34.954  52.112  0.00  0.00    -0.306 N 
ATOM      4  C   UNL d   1      49.260  34.581  51.478  0.00  0.00     0.064 A 
ATOM      5  C   UNL d   1      49.985  34.199  51.706  0.00  0.00     0.022 A 
ATOM      6  C   UNL d   1      49.406  35.068  53.489  0.00  0.00     0.019 C 
ATOM      7  C   UNL d   1      48.931  34.579  50.761  0.00  0.00     0.019 C 
ENDROOT
BRANCH   1   8
ATOM      8  C   UNL d   1      50.754  34.061  52.884  0.00  0.00     0.214 C 
ATOM      9  O   UNL d   1      50.657  33.518  53.466  0.00  0.00    -0.285 OA
BRANCH   8  10
ATOM     10  C   UNL d   1      51.565  34.335  52.737  0.00  0.00     0.123 C 
BRANCH  10  11
ATOM     11  N   UNL d   1      52.218  34.073  53.171  0.00  0.00    -0.300 N 
ATOM     12  C   UNL d   1      52.539  33.328  53.084  0.00  0.00     0.080 A 
ATOM     13  C   UNL d   1      53.229  33.055  53.544  0.00  0.00     0.019 A 
ATOM     14  C   UNL d   1      53.538  33.539  54.045  0.00  0.00     0.003 A 
ATOM     15  C   UNL d   1      53.218  34.311  54.147  0.00  0.00     0.019 A 
ATOM     16  C   UNL d   1      54.209  33.263  54.487  0.00  0.00     0.000 C 
ATOM     17  C   UNL d   1      52.563  34.578  53.714  0.00  0.00     0.080 A 
ENDBRANCH  10  11
ENDBRANCH   8  10
ENDBRANCH   1   8
BRANCH   3  18
ATOM     18  C   UNL d   1      48.236  35.379  52.052  0.00  0.00     0.064 A 
ATOM     19  C   UNL d   1      47.607  35.117  51.667  0.00  0.00     0.020 A 
ATOM     20  C   UNL d   1      46.859  35.563  51.605  0.00  0.00     0.031 A 
ATOM     21  C   UNL d   1      46.805  36.260  51.949  0.00  0.00     0.140 A 
ATOM     22  C   UNL d   1      47.436  36.562  52.355  0.00  0.00     0.031 A 
ATOM     23  F   UNL d   1      46.061  36.709  51.890  0.00  0.00    -0.204 F 
ATOM     24  C   UNL d   1      48.139  36.106  52.394  0.00  0.00     0.020 A 
ENDBRANCH   3  18
TORSDOF 4
ENDMDL
MODEL 4
REMARK VINA RESULT:      -7.0      2.357      5.183
REMARK  4 active torsions:
REMARK  status: ('A' for Active; 'I' for Inactive)
REMARK    1  A    between atoms: C_6  and  C_1 
REMARK    2  A    between atoms: C_8  and  N_3 
REMARK    3  A    between atoms: C_9  and  C_6 
REMARK    4  A    between atoms: N_7  and  C_9 
ROOT
ATOM      1  C   UNL d   1      52.046  33.194  52.951  0.00  0.00     0.058 A 
ATOM      2  C   UNL d   1      51.271  33.356  53.110  0.00  0.00     0.067 A 
ATOM      3  N   UNL d   1      51.006  33.948  52.627  0.00  0.00    -0.306 N 
ATOM      4  C   UNL d   1      51.637  34.138  52.177  0.00  0.00     0.064 A 
ATOM      5  C   UNL d   1      52.293  33.644  52.399  0.00  0.00     0.022 A 
ATOM      6  C   UNL d   1      50.826  32.965  53.684  0.00  0.00     0.019 C 
ATOM      7  C   UNL d   1      51.632  34.696  51.621  0.00  0.00     0.019 C 
ENDROOT
BRANCH   1   8
ATOM      8  C   UNL d   1      52.542  32.610  53.330  0.00  0.00     0.214 C 
ATOM      9  O   UNL d   1      52.698  32.653  54.115  0.00  0.00    -0.285 OA
BRANCH   8  10
ATOM     10  C   UNL d   1      52.899  31.948  52.896  0.00  0.00     0.123 C 
BRANCH  10  11
ATOM     11  N   UNL d   1      53.044  31.209  53.237  0.00  0.00    -0.300 N 
ATOM     12  C   UNL d   1      53.594  31.092  53.828  0.00  0.00     0.080 A 
ATOM     13  C   UNL d   1      53.744  30.309  54.185  0.00  0.00     0.019 A 
ATOM     14  C   UNL d   1      53.341  29.716  53.927  0.00  0.00     0.003 A 
ATOM     15  C   UNL d   1      52.770  29.820  53.317  0.00  0.00     0.019 A 
ATOM     16  C   UNL d   1      53.496  28.960  54.281  0.00  0.00     0.000 C 
ATOM     17  C   UNL d   1      52.621  30.559  52.973  0.00  0.00     0.080 A 
ENDBRANCH  10  11
ENDBRANCH   8  10
ENDBRANCH   1   8
BRANCH   3  18
ATOM     18  C   UNL d   1      50.278  34.345  52.532  0.00  0.00     0.064 A 
ATOM     19  C   UNL d   1      49.987  34.849  53.057  0.00  0.00     0.020 A 
ATOM     20  C   UNL d   1      49.226  35.263  52.956  0.00  0.00     0.031 A 
ATOM     21  C   UNL d   1      48.805  35.130  52.313  0.00  0.00     0.140 A 
ATOM     22  C   UNL d   1      49.075  34.616  51.751  0.00  0.00     0.031 A 
ATOM     23  F   UNL d   1      48.044  35.541  52.208  0.00  0.00    -0.204 F 
ATOM     24  C   UNL d   1      49.812  34.235  51.880  0.00  0.00     0.020 A 
ENDBRANCH   3  18
TORSDOF 4
ENDMDL
