MODEL 1
REMARK VINA RESULT:      20.0      0.000      0.000
REMARK  3 active torsions:
REMARK  status: ('A' for Active; 'I' for Inactive)
REMARK    1  A    between atoms: S_2  and  N_1 
REMARK    2  A    between atoms: C_6  and  S_2 
REMARK    3  A    between atoms: O_17  and  C_11 
ROOT
ATOM      1  S   UNL d   1      45.981 -17.577  43.916  0.00  0.00     0.273 S 
ATOM      2  O   UNL d   1      46.590 -17.257  43.461  0.00  0.00    -0.200 OA
ATOM      3  O   UNL d   1      45.369 -17.899  44.373  0.00  0.00    -0.200 OA
ENDROOT
BRANCH   1   4
ATOM      4  N   UNL d   1      46.183 -18.334  43.658  0.00  0.00    -0.214 N 
ATOM      5  C   UNL d   1      46.302 -18.998  44.140  0.00  0.00     0.157 A 
ATOM      6  N   UNL d   1      46.495 -19.642  43.651  0.00  0.00    -0.226 NA
ATOM      7  C   UNL d   1      46.239 -19.015  44.955  0.00  0.00     0.041 C 
ATOM      8  C   UNL d   1      46.494 -19.369  42.866  0.00  0.00     0.100 A 
ATOM      9  C   UNL d   1      46.304 -18.570  42.869  0.00  0.00     0.094 A 
ATOM     10  C   UNL d   1      46.645 -19.757  42.154  0.00  0.00     0.021 A 
ATOM     11  C   UNL d   1      46.262 -18.150  42.153  0.00  0.00     0.020 A 
ATOM     12  C   UNL d   1      46.412 -18.536  41.444  0.00  0.00     0.002 A 
ATOM     13  C   UNL d   1      46.604 -19.337  41.438  0.00  0.00     0.002 A 
ENDBRANCH   1   4
BRANCH   1  14
ATOM     14  C   UNL d   1      45.777 -16.822  44.176  0.00  0.00     0.106 A 
ATOM     15  C   UNL d   1      46.232 -16.166  43.945  0.00  0.00     0.039 A 
ATOM     16  C   UNL d   1      46.028 -15.409  44.205  0.00  0.00     0.122 A 
ATOM     17  C   UNL d   1      45.368 -15.303  44.697  0.00  0.00     0.162 A 
ATOM     18  C   UNL d   1      44.916 -15.954  44.926  0.00  0.00     0.032 A 
ATOM     19  F   UNL d   1      45.170 -14.553  44.951  0.00  0.00    -0.202 F 
ATOM     20  C   UNL d   1      45.120 -16.710  44.667  0.00  0.00     0.015 A 
BRANCH  16  21
ATOM     21  O   UNL d   1      46.478 -14.766  43.976  0.00  0.00    -0.326 OA
ATOM     22  C   UNL d   1      46.132 -14.034  43.906  0.00  0.00     0.181 C 
ENDBRANCH  16  21
ENDBRANCH   1  14
TORSDOF 3
ENDMDL
MODEL 2
REMARK VINA RESULT:      22.4      1.878      4.115
REMARK  3 active torsions:
REMARK  status: ('A' for Active; 'I' for Inactive)
REMARK    1  A    between atoms: S_2  and  N_1 
REMARK    2  A    between atoms: C_6  and  S_2 
REMARK    3  A    between atoms: O_17  and  C_11 
ROOT
ATOM      1  S   UNL d   1      45.472 -16.234  44.371  0.00  0.00     0.273 S 
ATOM      2  O   UNL d   1      46.066 -16.146  44.936  0.00  0.00    -0.200 OA
ATOM      3  O   UNL d   1      44.874 -16.322  43.803  0.00  0.00    -0.200 OA
ENDROOT
BRANCH   1   4
ATOM      4  N   UNL d   1      45.181 -15.485  44.557  0.00  0.00    -0.214 N 
ATOM      5  C   UNL d   1      44.417 -15.312  44.827  0.00  0.00     0.157 A 
ATOM      6  N   UNL d   1      44.362 -14.491  44.945  0.00  0.00    -0.226 NA
ATOM      7  C   UNL d   1      43.820 -15.856  44.954  0.00  0.00     0.041 C 
ATOM      8  C   UNL d   1      45.099 -14.161  44.745  0.00  0.00     0.100 A 
ATOM      9  C   UNL d   1      45.600 -14.768  44.509  0.00  0.00     0.094 A 
ATOM     10  C   UNL d   1      45.366 -13.381  44.754  0.00  0.00     0.021 A 
ATOM     11  C   UNL d   1      46.379 -14.596  44.276  0.00  0.00     0.020 A 
ATOM     12  C   UNL d   1      46.646 -13.819  44.284  0.00  0.00     0.002 A 
ATOM     13  C   UNL d   1      46.146 -13.209  44.522  0.00  0.00     0.002 A 
ENDBRANCH   1   4
BRANCH   1  14
ATOM     14  C   UNL d   1      45.760 -16.983  44.182  0.00  0.00     0.106 A 
ATOM     15  C   UNL d   1      45.721 -17.258  43.399  0.00  0.00     0.039 A 
ATOM     16  C   UNL d   1      46.010 -18.007  43.209  0.00  0.00     0.122 A 
ATOM     17  C   UNL d   1      46.339 -18.488  43.800  0.00  0.00     0.162 A 
ATOM     18  C   UNL d   1      46.378 -18.216  44.578  0.00  0.00     0.032 A 
ATOM     19  F   UNL d   1      46.623 -19.229  43.607  0.00  0.00    -0.202 F 
ATOM     20  C   UNL d   1      46.090 -17.467  44.768  0.00  0.00     0.015 A 
BRANCH  16  21
ATOM     21  O   UNL d   1      45.970 -18.274  42.437  0.00  0.00    -0.326 OA
ATOM     22  C   UNL d   1      46.646 -18.323  41.989  0.00  0.00     0.181 C 
ENDBRANCH  16  21
ENDBRANCH   1  14
TORSDOF 3
ENDMDL
