MODEL 1
REMARK VINA RESULT:      -9.3      0.000      0.000
REMARK  4 active torsions:
REMARK  status: ('A' for Active; 'I' for Inactive)
REMARK    1  A    between atoms: C_2  and  C_1 
REMARK    2  A    between atoms: C_3  and  C_1 
REMARK       I    between atoms: N_7  and  C_2 
REMARK    3  A    between atoms: C_4  and  C_3 
REMARK    4  A    between atoms: C_13  and  N_7 
ROOT
ATOM      1  C   UNL d   1      53.640  32.435  53.895  0.00  0.00     0.128 C 
ATOM      2  C   UNL d   1      54.323  32.538  53.458  0.00  0.00     0.106 C 
ATOM      3  N   UNL d   1      55.021  32.645  53.014  0.00  0.00    -0.191 NA
ENDROOT
BRANCH   1   4
ATOM      4  C   UNL d   1      53.529  32.838  54.617  0.00  0.00     0.289 C 
ATOM      5  N   UNL d   1      53.025  33.487  54.646  0.00  0.00    -0.207 NA
ATOM      6  O   UNL d   1      53.928  32.578  55.291  0.00  0.00    -0.264 OA
BRANCH   5   7
ATOM      7  C   UNL d   1      52.626  33.747  53.973  0.00  0.00     0.085 A 
ATOM      8  C   UNL d   1      51.864  33.474  53.814  0.00  0.00     0.019 A 
ATOM      9  C   UNL d   1      51.465  33.734  53.140  0.00  0.00     0.002 A 
ATOM     10  C   UNL d   1      51.827  34.266  52.626  0.00  0.00     0.000 A 
ATOM     11  C   UNL d   1      52.589  34.540  52.784  0.00  0.00     0.002 A 
ATOM     12  C   UNL d   1      51.419  34.524  51.950  0.00  0.00     0.000 C 
ATOM     13  C   UNL d   1      52.988  34.280  53.457  0.00  0.00     0.019 A 
ENDBRANCH   5   7
ENDBRANCH   1   4
BRANCH   1  14
ATOM     14  C   UNL d   1      53.050  31.926  53.622  0.00  0.00     0.040 C 
BRANCH  14  15
ATOM     15  C   UNL d   1      53.155  31.105  53.652  0.00  0.00     0.101 A 
ATOM     16  O   UNL d   1      53.410  30.597  54.245  0.00  0.00    -0.307 OA
ATOM     17  C   UNL d   1      53.397  29.831  53.938  0.00  0.00     0.100 A 
ATOM     18  C   UNL d   1      53.613  29.134  54.349  0.00  0.00     0.027 C 
ATOM     19  C   UNL d   1      53.138  29.861  53.167  0.00  0.00     0.027 A 
ATOM     20  C   UNL d   1      52.986  30.655  52.984  0.00  0.00     0.027 A 
ENDBRANCH  14  15
ENDBRANCH   1  14
TORSDOF 4
ENDMDL
MODEL 2
REMARK VINA RESULT:      -8.3      1.212      3.666
REMARK  4 active torsions:
REMARK  status: ('A' for Active; 'I' for Inactive)
REMARK    1  A    between atoms: C_2  and  C_1 
REMARK    2  A    between atoms: C_3  and  C_1 
REMARK       I    between atoms: N_7  and  C_2 
REMARK    3  A    between atoms: C_4  and  C_3 
REMARK    4  A    between atoms: C_13  and  N_7 
ROOT
ATOM      1  C   UNL d   1      53.854  32.687  53.998  0.00  0.00     0.128 C 
ATOM      2  C   UNL d   1      53.934  32.566  54.803  0.00  0.00     0.106 C 
ATOM      3  N   UNL d   1      54.020  32.442  55.624  0.00  0.00    -0.191 NA
ENDROOT
BRANCH   1   4
ATOM      4  C   UNL d   1      54.477  32.505  53.474  0.00  0.00     0.289 C 
ATOM      5  N   UNL d   1      54.483  31.779  53.089  0.00  0.00    -0.207 NA
ATOM      6  O   UNL d   1      55.077  33.058  53.352  0.00  0.00    -0.264 OA
BRANCH   5   7
ATOM      7  C   UNL d   1      53.883  31.226  53.211  0.00  0.00     0.085 A 
ATOM      8  C   UNL d   1      53.209  31.238  52.736  0.00  0.00     0.019 A 
ATOM      9  C   UNL d   1      52.609  30.685  52.858  0.00  0.00     0.002 A 
ATOM     10  C   UNL d   1      52.682  30.121  53.455  0.00  0.00     0.000 A 
ATOM     11  C   UNL d   1      53.357  30.109  53.931  0.00  0.00     0.002 A 
ATOM     12  C   UNL d   1      52.075  29.568  53.573  0.00  0.00     0.000 C 
ATOM     13  C   UNL d   1      53.956  30.662  53.809  0.00  0.00     0.019 A 
ENDBRANCH   5   7
ENDBRANCH   1   4
BRANCH   1  14
ATOM     14  C   UNL d   1      53.149  32.993  53.698  0.00  0.00     0.040 C 
BRANCH  14  15
ATOM     15  C   UNL d   1      52.954  33.791  53.810  0.00  0.00     0.101 A 
ATOM     16  O   UNL d   1      53.295  34.390  54.255  0.00  0.00    -0.307 OA
ATOM     17  C   UNL d   1      52.844  35.072  54.140  0.00  0.00     0.100 A 
ATOM     18  C   UNL d   1      52.988  35.821  54.487  0.00  0.00     0.027 C 
ATOM     19  C   UNL d   1      52.232  34.900  53.631  0.00  0.00     0.027 A 
ATOM     20  C   UNL d   1      52.297  34.100  53.423  0.00  0.00     0.027 A 
ENDBRANCH  14  15
ENDBRANCH   1  14
TORSDOF 4
ENDMDL
MODEL 3
REMARK VINA RESULT:      -7.5      1.725      3.655
REMARK  4 active torsions:
REMARK  status: ('A' for Active; 'I' for Inactive)
REMARK    1  A    between atoms: C_2  and  C_1 
REMARK    2  A    between atoms: C_3  and  C_1 
REMARK       I    between atoms: N_7  and  C_2 
REMARK    3  A    between atoms: C_4  and  C_3 
REMARK    4  A    between atoms: C_13  and  N_7 
ROOT
ATOM      1  C   UNL d   1      52.690  33.075  53.027  0.00  0.00     0.128 C 
ATOM      2  C   UNL d   1      53.065  33.671  52.611  0.00  0.00     0.106 C 
ATOM      3  N   UNL d   1      53.449  34.276  52.183  0.00  0.00    -0.191 NA
ENDROOT
BRANCH   1   4
ATOM      4  C   UNL d   1      52.905  32.277  52.918  0.00  0.00     0.289 C 
ATOM      5  N   UNL d   1      53.503  31.951  53.378  0.00  0.00    -0.207 NA
ATOM      6  O   UNL d   1      52.512  31.826  52.349  0.00  0.00    -0.264 OA
BRANCH   5   7
ATOM      7  C   UNL d   1      53.896  32.401  53.947  0.00  0.00     0.085 A 
ATOM      8  C   UNL d   1      54.552  32.853  53.733  0.00  0.00     0.019 A 
ATOM      9  C   UNL d   1      54.945  33.304  54.302  0.00  0.00     0.002 A 
ATOM     10  C   UNL d   1      54.683  33.302  55.084  0.00  0.00     0.000 A 
ATOM     11  C   UNL d   1      54.028  32.849  55.297  0.00  0.00     0.002 A 
ATOM     12  C   UNL d   1      55.084  33.757  55.650  0.00  0.00     0.000 C 
ATOM     13  C   UNL d   1      53.634  32.399  54.729  0.00  0.00     0.019 A 
ENDBRANCH   5   7
ENDBRANCH   1   4
BRANCH   1  14
ATOM     14  C   UNL d   1      52.092  33.264  53.563  0.00  0.00     0.040 C 
BRANCH  14  15
ATOM     15  C   UNL d   1      51.405  33.651  53.309  0.00  0.00     0.101 A 
ATOM     16  O   UNL d   1      50.987  33.638  52.603  0.00  0.00    -0.307 OA
ATOM     17  C   UNL d   1      50.342  34.147  52.686  0.00  0.00     0.100 A 
ATOM     18  C   UNL d   1      49.763  34.306  52.102  0.00  0.00     0.027 C 
ATOM     19  C   UNL d   1      50.358  34.471  53.433  0.00  0.00     0.027 A 
ATOM     20  C   UNL d   1      51.020  34.164  53.825  0.00  0.00     0.027 A 
ENDBRANCH  14  15
ENDBRANCH   1  14
TORSDOF 4
ENDMDL
MODEL 4
REMARK VINA RESULT:      -6.5      1.923      2.758
REMARK  4 active torsions:
REMARK  status: ('A' for Active; 'I' for Inactive)
REMARK    1  A    between atoms: C_2  and  C_1 
REMARK    2  A    between atoms: C_3  and  C_1 
REMARK       I    between atoms: N_7  and  C_2 
REMARK    3  A    between atoms: C_4  and  C_3 
REMARK    4  A    between atoms: C_13  and  N_7 
ROOT
ATOM      1  C   UNL d   1      52.943  33.459  53.253  0.00  0.00     0.128 C 
ATOM      2  C   UNL d   1      53.168  34.170  52.919  0.00  0.00     0.106 C 
ATOM      3  N   UNL d   1      53.398  34.894  52.573  0.00  0.00    -0.191 NA
ENDROOT
BRANCH   1   4
ATOM      4  C   UNL d   1      52.757  32.800  52.776  0.00  0.00     0.289 C 
ATOM      5  N   UNL d   1      51.992  32.711  52.489  0.00  0.00    -0.207 NA
ATOM      6  O   UNL d   1      53.345  32.250  52.600  0.00  0.00    -0.264 OA
BRANCH   5   7
ATOM      7  C   UNL d   1      51.403  33.261  52.665  0.00  0.00     0.085 A 
ATOM      8  C   UNL d   1      51.271  33.899  52.159  0.00  0.00     0.019 A 
ATOM      9  C   UNL d   1      50.682  34.450  52.335  0.00  0.00     0.002 A 
ATOM     10  C   UNL d   1      50.227  34.364  53.016  0.00  0.00     0.000 A 
ATOM     11  C   UNL d   1      50.360  33.727  53.523  0.00  0.00     0.002 A 
ATOM     12  C   UNL d   1      49.637  34.922  53.187  0.00  0.00     0.000 C 
ATOM     13  C   UNL d   1      50.947  33.176  53.348  0.00  0.00     0.019 A 
ENDBRANCH   5   7
ENDBRANCH   1   4
BRANCH   1  14
ATOM     14  C   UNL d   1      52.898  33.388  54.074  0.00  0.00     0.040 C 
BRANCH  14  15
ATOM     15  C   UNL d   1      53.586  33.403  54.537  0.00  0.00     0.101 A 
ATOM     16  O   UNL d   1      54.256  33.877  54.523  0.00  0.00    -0.307 OA
ATOM     17  C   UNL d   1      54.754  33.620  55.130  0.00  0.00     0.100 A 
ATOM     18  C   UNL d   1      55.502  33.945  55.321  0.00  0.00     0.027 C 
ATOM     19  C   UNL d   1      54.400  32.996  55.514  0.00  0.00     0.027 A 
ATOM     20  C   UNL d   1      53.670  32.857  55.147  0.00  0.00     0.027 A 
ENDBRANCH  14  15
ENDBRANCH   1  14
TORSDOF 4
ENDMDL
MODEL 5
REMARK VINA RESULT:      -6.4      1.626      2.477
REMARK  4 active torsions:
REMARK  status: ('A' for Active; 'I' for Inactive)
REMARK    1  A    between atoms: C_2  and  C_1 
REMARK    2  A    between atoms: C_3  and  C_1 
REMARK       I    between atoms: N_7  and  C_2 
REMARK    3  A    between atoms: C_4  and  C_3 
REMARK    4  A    between atoms: C_13  and  N_7 
ROOT
ATOM      1  C   UNL d   1      52.081  33.195  52.933  0.00  0.00     0.128 C 
ATOM      2  C   UNL d   1      51.407  33.008  53.355  0.00  0.00     0.106 C 
ATOM      3  N   UNL d   1      50.716  32.820  53.784  0.00  0.00    -0.191 NA
ENDROOT
BRANCH   1   4
ATOM      4  C   UNL d   1      52.047  33.709  52.277  0.00  0.00     0.289 C 
ATOM      5  N   UNL d   1      52.259  34.498  52.367  0.00  0.00    -0.207 NA
ATOM      6  O   UNL d   1      51.800  33.415  51.546  0.00  0.00    -0.264 OA
BRANCH   5   7
ATOM      7  C   UNL d   1      52.506  34.791  53.098  0.00  0.00     0.085 A 
ATOM      8  C   UNL d   1      53.311  34.861  53.263  0.00  0.00     0.019 A 
ATOM      9  C   UNL d   1      53.558  35.155  53.994  0.00  0.00     0.002 A 
ATOM     10  C   UNL d   1      53.000  35.378  54.559  0.00  0.00     0.000 A 
ATOM     11  C   UNL d   1      52.195  35.308  54.393  0.00  0.00     0.002 A 
ATOM     12  C   UNL d   1      53.256  35.673  55.291  0.00  0.00     0.000 C 
ATOM     13  C   UNL d   1      51.948  35.015  53.664  0.00  0.00     0.019 A 
ENDBRANCH   5   7
ENDBRANCH   1   4
BRANCH   1  14
ATOM     14  C   UNL d   1      52.808  32.873  53.157  0.00  0.00     0.040 C 
BRANCH  14  15
ATOM     15  C   UNL d   1      52.931  32.054  53.133  0.00  0.00     0.101 A 
ATOM     16  O   UNL d   1      52.590  31.452  52.691  0.00  0.00    -0.307 OA
ATOM     17  C   UNL d   1      52.948  30.744  52.919  0.00  0.00     0.100 A 
ATOM     18  C   UNL d   1      52.773  29.984  52.612  0.00  0.00     0.027 C 
ATOM     19  C   UNL d   1      53.502  30.902  53.494  0.00  0.00     0.027 A 
ATOM     20  C   UNL d   1      53.494  31.719  53.631  0.00  0.00     0.027 A 
ENDBRANCH  14  15
ENDBRANCH   1  14
TORSDOF 4
ENDMDL
