MODEL 1
REMARK VINA RESULT:      11.7      0.000      0.000
REMARK  6 active torsions:
REMARK  status: ('A' for Active; 'I' for Inactive)
REMARK    1  A    between atoms: S_9  and  C_4 
REMARK    2  A    between atoms: C_15  and  S_9 
REMARK    3  A    between atoms: C_11  and  C_15 
REMARK    4  A    between atoms: O_14  and  C_11 
REMARK    5  A    between atoms: C_17  and  O_14 
REMARK    6  A    between atoms: C_18  and  C_17 
ROOT
ATOM      1  C   UNL d   1      46.447 -19.270  42.649  0.00  0.00     0.104 A 
ATOM      2  N   UNL d   1      46.311 -18.809  43.992  0.00  0.00    -0.251 N 
ATOM      3  C   UNL d   1      46.382 -19.432  43.444  0.00  0.00     0.274 A 
ATOM      4  C   UNL d   1      46.307 -18.029  43.723  0.00  0.00     0.182 A 
ATOM      5  C   UNL d   1      46.443 -18.490  42.381  0.00  0.00     0.095 A 
ATOM      6  N   UNL d   1      46.374 -17.872  42.907  0.00  0.00    -0.222 NA
ATOM      7  S   UNL d   1      46.522 -19.762  41.994  0.00  0.00    -0.081 SA
ATOM      8  C   UNL d   1      46.516 -18.501  41.560  0.00  0.00     0.026 A 
ATOM      9  O   UNL d   1      46.385 -20.213  43.713  0.00  0.00    -0.266 OA
ATOM     10  C   UNL d   1      46.565 -19.281  41.321  0.00  0.00     0.031 A 
ATOM     11  C   UNL d   1      46.244 -18.970  44.804  0.00  0.00     0.104 C 
ATOM     12  C   UNL d   1      46.644 -19.534  40.540  0.00  0.00     0.007 C 
ENDROOT
BRANCH   4  13
ATOM     13  S   UNL d   1      46.236 -17.397  44.262  0.00  0.00    -0.044 SA
BRANCH  13  14
ATOM     14  C   UNL d   1      45.927 -16.675  44.007  0.00  0.00     0.107 C 
BRANCH  14  15
ATOM     15  C   UNL d   1      45.965 -16.013  44.498  0.00  0.00     0.307 C 
ATOM     16  O   UNL d   1      46.640 -15.874  44.952  0.00  0.00    -0.258 OA
BRANCH  15  17
ATOM     17  O   UNL d   1      45.328 -15.490  44.536  0.00  0.00    -0.271 OA
BRANCH  17  18
ATOM     18  C   UNL d   1      45.435 -14.731  44.841  0.00  0.00     0.126 C 
BRANCH  18  19
ATOM     19  C   UNL d   1      45.284 -14.075  44.371  0.00  0.00     0.025 A 
ATOM     20  C   UNL d   1      44.512 -13.908  44.131  0.00  0.00     0.002 A 
ATOM     21  C   UNL d   1      44.361 -13.249  43.659  0.00  0.00     0.000 A 
ATOM     22  C   UNL d   1      44.981 -12.756  43.426  0.00  0.00     0.000 A 
ATOM     23  C   UNL d   1      45.744 -12.926  43.667  0.00  0.00     0.000 A 
ATOM     24  C   UNL d   1      45.896 -13.585  44.139  0.00  0.00     0.002 A 
ENDBRANCH  18  19
ENDBRANCH  17  18
ENDBRANCH  15  17
ENDBRANCH  14  15
ENDBRANCH  13  14
ENDBRANCH   4  13
TORSDOF 6
ENDMDL
