MODEL 1
REMARK VINA RESULT:      -0.7      0.000      0.000
REMARK  9 active torsions:
REMARK  status: ('A' for Active; 'I' for Inactive)
REMARK    1  A    between atoms: C_2  and  N_11 
REMARK    2  A    between atoms: S_3  and  N_22 
REMARK    3  A    between atoms: C_16  and  S_3 
REMARK    4  A    between atoms: C_21  and  C_5 
REMARK       I    between atoms: N_11  and  C_17 
REMARK    5  A    between atoms: S_23  and  C_12 
REMARK    6  A    between atoms: C_17  and  C_27 
REMARK    7  A    between atoms: C_28  and  C_21 
REMARK    8  A    between atoms: N_22  and  C_28 
REMARK    9  A    between atoms: C_27  and  S_23 
ROOT
ATOM      1  N   UNL d   1      59.564  -2.267  29.245  0.00  0.00    -0.191 N 
ATOM      2  C   UNL d   1      60.366  -2.072  29.170  0.00  0.00     0.187 A 
ATOM      3  C   UNL d   1      59.172  -1.620  29.571  0.00  0.00     0.188 A 
ATOM      4  N   UNL d   1      59.306  -3.013  29.004  0.00  0.00    -0.156 NA
ATOM      5  N   UNL d   1      60.457  -1.299  29.452  0.00  0.00    -0.127 NA
ATOM      6  N   UNL d   1      59.731  -1.025  29.696  0.00  0.00    -0.127 NA
ATOM      7  C   UNL d   1      59.837  -3.552  28.695  0.00  0.00     0.131 A 
ATOM      8  C   UNL d   1      60.897  -2.611  28.860  0.00  0.00     0.043 A 
ATOM      9  C   UNL d   1      60.633  -3.355  28.620  0.00  0.00     0.031 A 
ENDROOT
BRANCH   7  10
ATOM     10  S   UNL d   1      59.568  -4.296  28.457  0.00  0.00    -0.061 SA
BRANCH  10  11
ATOM     11  C   UNL d   1      58.788  -4.525  28.613  0.00  0.00     0.099 C 
BRANCH  11  12
ATOM     12  C   UNL d   1      58.586  -5.324  28.572  0.00  0.00     0.288 C 
ATOM     13  N   UNL d   1      57.806  -5.546  28.621  0.00  0.00    -0.182 NA
ATOM     14  O   UNL d   1      59.169  -5.896  28.483  0.00  0.00    -0.265 OA
BRANCH  13  15
ATOM     15  C   UNL d   1      57.591  -6.335  28.583  0.00  0.00     0.197 A 
ATOM     16  N   UNL d   1      56.812  -6.617  28.560  0.00  0.00    -0.221 NA
ATOM     17  C   UNL d   1      56.852  -7.442  28.523  0.00  0.00     0.090 A 
ATOM     18  C   UNL d   1      56.264  -8.008  28.490  0.00  0.00     0.020 A 
ATOM     19  C   UNL d   1      57.651  -7.665  28.523  0.00  0.00     0.050 A 
ATOM     20  C   UNL d   1      56.459  -8.812  28.456  0.00  0.00     0.002 A 
ATOM     21  C   UNL d   1      57.270  -9.033  28.455  0.00  0.00     0.001 A 
ATOM     22  C   UNL d   1      57.852  -8.462  28.488  0.00  0.00     0.008 A 
ATOM     23  S   UNL d   1      58.103  -6.996  28.559  0.00  0.00    -0.047 SA
ENDBRANCH  13  15
ENDBRANCH  11  12
ENDBRANCH  10  11
ENDBRANCH   7  10
BRANCH   3  24
ATOM     24  C   UNL d   1      58.366  -1.582  29.738  0.00  0.00     0.062 C 
BRANCH  24  25
ATOM     25  C   UNL d   1      58.103  -1.269  30.455  0.00  0.00     0.115 C 
BRANCH  25  26
ATOM     26  N   UNL d   1      57.397  -0.836  30.482  0.00  0.00    -0.157 NA
BRANCH  26  27
ATOM     27  S   UNL d   1      57.075  -0.616  31.213  0.00  0.00     0.285 S 
ATOM     28  O   UNL d   1      56.674  -1.341  31.255  0.00  0.00    -0.198 OA
ATOM     29  O   UNL d   1      57.476   0.109  31.172  0.00  0.00    -0.198 OA
BRANCH  27  30
ATOM     30  C   UNL d   1      56.762  -0.391  31.934  0.00  0.00     0.105 A 
ATOM     31  C   UNL d   1      56.819   0.391  32.190  0.00  0.00     0.013 A 
ATOM     32  C   UNL d   1      56.501   0.618  32.922  0.00  0.00     0.001 A 
ATOM     33  C   UNL d   1      56.124   0.061  33.398  0.00  0.00     0.000 A 
ATOM     34  C   UNL d   1      56.066  -0.729  33.139  0.00  0.00     0.001 A 
ATOM     35  C   UNL d   1      55.809   0.278  34.119  0.00  0.00     0.000 C 
ATOM     36  C   UNL d   1      56.387  -0.949  32.406  0.00  0.00     0.013 A 
ENDBRANCH  27  30
ENDBRANCH  26  27
ENDBRANCH  25  26
ENDBRANCH  24  25
ENDBRANCH   3  24
TORSDOF 9
ENDMDL
MODEL 2
REMARK VINA RESULT:      -0.5      1.016      6.678
REMARK  9 active torsions:
REMARK  status: ('A' for Active; 'I' for Inactive)
REMARK    1  A    between atoms: C_2  and  N_11 
REMARK    2  A    between atoms: S_3  and  N_22 
REMARK    3  A    between atoms: C_16  and  S_3 
REMARK    4  A    between atoms: C_21  and  C_5 
REMARK       I    between atoms: N_11  and  C_17 
REMARK    5  A    between atoms: S_23  and  C_12 
REMARK    6  A    between atoms: C_17  and  C_27 
REMARK    7  A    between atoms: C_28  and  C_21 
REMARK    8  A    between atoms: N_22  and  C_28 
REMARK    9  A    between atoms: C_27  and  S_23 
ROOT
ATOM      1  N   UNL d   1      59.709  -3.732  28.885  0.00  0.00    -0.191 N 
ATOM      2  C   UNL d   1      60.537  -3.726  28.894  0.00  0.00     0.187 A 
ATOM      3  C   UNL d   1      59.460  -4.472  28.622  0.00  0.00     0.188 A 
ATOM      4  N   UNL d   1      59.298  -3.056  29.120  0.00  0.00    -0.156 NA
ATOM      5  N   UNL d   1      60.790  -4.470  28.633  0.00  0.00    -0.127 NA
ATOM      6  N   UNL d   1      60.135  -4.923  28.468  0.00  0.00    -0.127 NA
ATOM      7  C   UNL d   1      59.707  -2.389  29.359  0.00  0.00     0.131 A 
ATOM      8  C   UNL d   1      60.946  -3.059  29.132  0.00  0.00     0.043 A 
ATOM      9  C   UNL d   1      60.530  -2.385  29.367  0.00  0.00     0.031 A 
ENDROOT
BRANCH   7  10
ATOM     10  S   UNL d   1      59.286  -1.718  29.592  0.00  0.00    -0.061 SA
BRANCH  10  11
ATOM     11  C   UNL d   1      58.461  -1.747  29.660  0.00  0.00     0.099 C 
BRANCH  11  12
ATOM     12  C   UNL d   1      58.085  -1.273  30.222  0.00  0.00     0.288 C 
ATOM     13  N   UNL d   1      57.574  -1.610  30.757  0.00  0.00    -0.182 NA
ATOM     14  O   UNL d   1      58.225  -0.464  30.244  0.00  0.00    -0.265 OA
BRANCH  13  15
ATOM     15  C   UNL d   1      57.194  -1.154  31.320  0.00  0.00     0.197 A 
ATOM     16  N   UNL d   1      56.875  -1.437  32.029  0.00  0.00    -0.221 NA
ATOM     17  C   UNL d   1      56.547  -0.790  32.426  0.00  0.00     0.090 A 
ATOM     18  C   UNL d   1      56.161  -0.739  33.144  0.00  0.00     0.020 A 
ATOM     19  C   UNL d   1      56.664  -0.112  31.962  0.00  0.00     0.050 A 
ATOM     20  C   UNL d   1      55.882  -0.008  33.417  0.00  0.00     0.002 A 
ATOM     21  C   UNL d   1      56.003   0.676  32.944  0.00  0.00     0.001 A 
ATOM     22  C   UNL d   1      56.390   0.616  32.228  0.00  0.00     0.008 A 
ATOM     23  S   UNL d   1      57.057  -0.328  31.289  0.00  0.00    -0.047 SA
ENDBRANCH  13  15
ENDBRANCH  11  12
ENDBRANCH  10  11
ENDBRANCH   7  10
BRANCH   3  24
ATOM     24  C   UNL d   1      58.677  -4.710  28.532  0.00  0.00     0.062 C 
BRANCH  24  25
ATOM     25  C   UNL d   1      58.490  -5.510  28.456  0.00  0.00     0.115 C 
BRANCH  25  26
ATOM     26  N   UNL d   1      57.697  -5.751  28.458  0.00  0.00    -0.157 NA
BRANCH  26  27
ATOM     27  S   UNL d   1      57.511  -6.558  28.489  0.00  0.00     0.285 S 
ATOM     28  O   UNL d   1      58.319  -6.744  28.522  0.00  0.00    -0.198 OA
ATOM     29  O   UNL d   1      56.704  -6.374  28.457  0.00  0.00    -0.198 OA
BRANCH  27  30
ATOM     30  C   UNL d   1      57.319  -7.352  28.519  0.00  0.00     0.105 A 
ATOM     31  C   UNL d   1      56.531  -7.591  28.562  0.00  0.00     0.013 A 
ATOM     32  C   UNL d   1      56.336  -8.398  28.592  0.00  0.00     0.001 A 
ATOM     33  C   UNL d   1      56.933  -8.965  28.580  0.00  0.00     0.000 A 
ATOM     34  C   UNL d   1      57.729  -8.724  28.536  0.00  0.00     0.001 A 
ATOM     35  C   UNL d   1      56.749  -9.760  28.609  0.00  0.00     0.000 C 
ATOM     36  C   UNL d   1      57.916  -7.916  28.506  0.00  0.00     0.013 A 
ENDBRANCH  27  30
ENDBRANCH  26  27
ENDBRANCH  25  26
ENDBRANCH  24  25
ENDBRANCH   3  24
TORSDOF 9
ENDMDL
