MODEL 1
REMARK VINA RESULT:      30.3      0.000      0.000
REMARK  5 active torsions:
REMARK  status: ('A' for Active; 'I' for Inactive)
REMARK       I    between atoms: N_2  and  C_1 
REMARK    1  A    between atoms: C_8  and  C_1 
REMARK    2  A    between atoms: C_4  and  N_2 
REMARK    3  A    between atoms: C_3  and  C_4 
REMARK    4  A    between atoms: C_5  and  C_3 
REMARK    5  A    between atoms: N_6  and  C_3 
ROOT
ATOM      1  C   UNL d   1      45.192 -14.404  44.271  0.00  0.00     0.088 C 
ENDROOT
BRANCH   1   2
ATOM      2  C   UNL d   1      45.773 -14.970  44.410  0.00  0.00     0.101 C 
ATOM      3  C   UNL d   1      46.363 -14.821  44.955  0.00  0.00     0.022 C 
BRANCH   2   4
ATOM      4  N   UNL d   1      45.752 -15.679  43.998  0.00  0.00    -0.206 NA
ATOM      5  C   UNL d   1      46.189 -16.328  44.270  0.00  0.00     0.279 C 
ATOM      6  O   UNL d   1      46.640 -16.253  44.952  0.00  0.00    -0.265 OA
BRANCH   5   7
ATOM      7  C   UNL d   1      46.168 -17.037  43.858  0.00  0.00     0.058 A 
ATOM      8  C   UNL d   1      46.291 -17.758  44.249  0.00  0.00     0.005 A 
ATOM      9  C   UNL d   1      46.269 -18.474  43.830  0.00  0.00     0.000 A 
ATOM     10  C   UNL d   1      46.391 -19.178  44.223  0.00  0.00     0.000 C 
ATOM     11  C   UNL d   1      46.123 -18.458  43.014  0.00  0.00     0.000 A 
ATOM     12  C   UNL d   1      45.999 -17.742  42.616  0.00  0.00     0.000 A 
ATOM     13  C   UNL d   1      46.023 -17.039  43.040  0.00  0.00     0.005 A 
ENDBRANCH   5   7
ENDBRANCH   2   4
ENDBRANCH   1   2
BRANCH   1  14
ATOM     14  C   UNL d   1      44.424 -14.528  44.535  0.00  0.00     0.047 A 
ATOM     15  S   UNL d   1      43.859 -13.948  44.699  0.00  0.00    -0.085 SA
ATOM     16  C   UNL d   1      43.170 -14.321  44.947  0.00  0.00     0.035 A 
ATOM     17  C   UNL d   1      43.294 -15.137  44.942  0.00  0.00     0.007 A 
ATOM     18  C   UNL d   1      44.075 -15.271  44.686  0.00  0.00     0.009 A 
ENDBRANCH   1  14
BRANCH   1  19
ATOM     19  N   UNL d   1      45.378 -13.706  43.866  0.00  0.00    -0.299 N 
ATOM     20  C   UNL d   1      45.729 -13.085  44.262  0.00  0.00     0.107 A 
ATOM     21  C   UNL d   1      45.916 -12.389  43.866  0.00  0.00     0.142 A 
ATOM     22  O   UNL d   1      45.751 -12.308  43.057  0.00  0.00    -0.300 OA
ATOM     23  C   UNL d   1      45.394 -12.943  42.657  0.00  0.00     0.142 A 
ATOM     24  C   UNL d   1      45.209 -13.638  43.061  0.00  0.00     0.107 A 
ENDBRANCH   1  19
TORSDOF 5
ENDMDL
