MODEL 1
REMARK VINA RESULT:      13.5      0.000      0.000
REMARK  1 active torsions:
REMARK  status: ('A' for Active; 'I' for Inactive)
REMARK    1  A    between atoms: C_11  and  C_3 
ROOT
ATOM      1  C   UNL d   1     -51.247  26.069  33.307  0.00  0.00     0.052 A 
ATOM      2  C   UNL d   1     -50.427  26.231  33.307  0.00  0.00     0.115 A 
ATOM      3  C   UNL d   1     -51.356  25.258  33.307  0.00  0.00     0.011 A 
ATOM      4  C   UNL d   1     -51.809  26.722  33.307  0.00  0.00     0.139 A 
ATOM      5  N   UNL d   1     -50.155  27.048  33.307  0.00  0.00    -0.217 NA
ATOM      6  S   UNL d   1     -50.019  25.521  33.307  0.00  0.00    -0.067 SA
ATOM      7  C   UNL d   1     -50.601  24.912  33.307  0.00  0.00     0.037 A 
ATOM      8  N   UNL d   1     -51.529  27.498  33.307  0.00  0.00    -0.213 NA
ATOM      9  C   UNL d   1     -50.676  27.666  33.307  0.00  0.00     0.200 A 
ATOM     10  S   UNL d   1     -52.643  26.591  33.307  0.00  0.00    -0.057 SA
ENDROOT
BRANCH   3  11
ATOM     11  C   UNL d   1     -51.819  24.610  33.307  0.00  0.00     0.001 A 
ATOM     12  C   UNL d   1     -52.643  24.663  33.306  0.00  0.00     0.000 A 
ATOM     13  C   UNL d   1     -53.115  23.979  33.306  0.00  0.00     0.000 A 
ATOM     14  C   UNL d   1     -52.750  23.239  33.307  0.00  0.00     0.000 A 
ATOM     15  C   UNL d   1     -51.927  23.188  33.308  0.00  0.00     0.000 A 
ATOM     16  C   UNL d   1     -51.468  23.876  33.308  0.00  0.00     0.000 A 
ENDBRANCH   3  11
TORSDOF 1
ENDMDL
MODEL 2
REMARK VINA RESULT:      14.5      1.746      3.114
REMARK  1 active torsions:
REMARK  status: ('A' for Active; 'I' for Inactive)
REMARK    1  A    between atoms: C_11  and  C_3 
ROOT
ATOM      1  C   UNL d   1     -52.526  24.469  33.348  0.00  0.00     0.052 A 
ATOM      2  C   UNL d   1     -52.512  23.633  33.327  0.00  0.00     0.115 A 
ATOM      3  C   UNL d   1     -51.756  24.745  33.340  0.00  0.00     0.011 A 
ATOM      4  C   UNL d   1     -53.282  24.881  33.372  0.00  0.00     0.139 A 
ATOM      5  N   UNL d   1     -53.254  23.196  33.330  0.00  0.00    -0.217 NA
ATOM      6  S   UNL d   1     -51.733  23.384  33.307  0.00  0.00    -0.067 SA
ATOM      7  C   UNL d   1     -51.260  24.080  33.315  0.00  0.00     0.037 A 
ATOM      8  N   UNL d   1     -53.982  24.444  33.374  0.00  0.00    -0.213 NA
ATOM      9  C   UNL d   1     -53.967  23.576  33.352  0.00  0.00     0.200 A 
ATOM     10  S   UNL d   1     -53.329  25.723  33.393  0.00  0.00    -0.057 SA
ENDROOT
BRANCH   3  11
ATOM     11  C   UNL d   1     -51.220  25.334  33.345  0.00  0.00     0.001 A 
ATOM     12  C   UNL d   1     -50.408  25.186  33.351  0.00  0.00     0.000 A 
ATOM     13  C   UNL d   1     -49.858  25.809  33.356  0.00  0.00     0.000 A 
ATOM     14  C   UNL d   1     -50.134  26.586  33.355  0.00  0.00     0.000 A 
ATOM     15  C   UNL d   1     -50.946  26.734  33.349  0.00  0.00     0.000 A 
ATOM     16  C   UNL d   1     -51.483  26.105  33.344  0.00  0.00     0.000 A 
ENDBRANCH   3  11
TORSDOF 1
ENDMDL
