MODEL 1
REMARK VINA RESULT:      -8.9      0.000      0.000
REMARK  4 active torsions:
REMARK  status: ('A' for Active; 'I' for Inactive)
REMARK    1  A    between atoms: C_2  and  C_1 
REMARK    2  A    between atoms: C_3  and  C_1 
REMARK       I    between atoms: N_7  and  C_2 
REMARK    3  A    between atoms: C_4  and  C_3 
REMARK    4  A    between atoms: C_13  and  N_7 
ROOT
ATOM      1  C   UNL d   1      53.645  32.425  53.901  0.00  0.00     0.128 C 
ATOM      2  C   UNL d   1      54.323  32.529  53.456  0.00  0.00     0.106 C 
ATOM      3  N   UNL d   1      55.017  32.638  53.005  0.00  0.00    -0.191 NA
ENDROOT
BRANCH   1   4
ATOM      4  C   UNL d   1      53.542  32.827  54.625  0.00  0.00     0.289 C 
ATOM      5  N   UNL d   1      53.037  33.474  54.661  0.00  0.00    -0.207 NA
ATOM      6  O   UNL d   1      53.951  32.568  55.293  0.00  0.00    -0.264 OA
BRANCH   5   7
ATOM      7  C   UNL d   1      52.628  33.734  53.993  0.00  0.00     0.085 A 
ATOM      8  C   UNL d   1      51.866  33.457  53.843  0.00  0.00     0.020 A 
ATOM      9  C   UNL d   1      51.457  33.716  53.174  0.00  0.00     0.008 A 
ATOM     10  C   UNL d   1      51.810  34.252  52.657  0.00  0.00     0.035 A 
ATOM     11  C   UNL d   1      52.573  34.529  52.807  0.00  0.00     0.008 A 
ATOM     12 BR   UNL d   1      51.393  34.508  51.987  0.00  0.00    -0.049 Br
ATOM     13  C   UNL d   1      52.981  34.270  53.474  0.00  0.00     0.020 A 
ENDBRANCH   5   7
ENDBRANCH   1   4
BRANCH   1  14
ATOM     14  C   UNL d   1      53.053  31.917  53.634  0.00  0.00     0.040 C 
BRANCH  14  15
ATOM     15  C   UNL d   1      53.159  31.095  53.663  0.00  0.00     0.101 A 
ATOM     16  O   UNL d   1      53.418  30.588  54.253  0.00  0.00    -0.307 OA
ATOM     17  C   UNL d   1      53.403  29.821  53.946  0.00  0.00     0.100 A 
ATOM     18  C   UNL d   1      53.622  29.124  54.356  0.00  0.00     0.027 C 
ATOM     19  C   UNL d   1      53.138  29.851  53.177  0.00  0.00     0.027 A 
ATOM     20  C   UNL d   1      52.985  30.645  52.996  0.00  0.00     0.027 A 
ENDBRANCH  14  15
ENDBRANCH   1  14
TORSDOF 4
ENDMDL
MODEL 2
REMARK VINA RESULT:      -7.9      1.641      3.667
REMARK  4 active torsions:
REMARK  status: ('A' for Active; 'I' for Inactive)
REMARK    1  A    between atoms: C_2  and  C_1 
REMARK    2  A    between atoms: C_3  and  C_1 
REMARK       I    between atoms: N_7  and  C_2 
REMARK    3  A    between atoms: C_4  and  C_3 
REMARK    4  A    between atoms: C_13  and  N_7 
ROOT
ATOM      1  C   UNL d   1      53.860  32.700  54.003  0.00  0.00     0.128 C 
ATOM      2  C   UNL d   1      53.945  32.580  54.807  0.00  0.00     0.106 C 
ATOM      3  N   UNL d   1      54.037  32.455  55.628  0.00  0.00    -0.191 NA
ENDROOT
BRANCH   1   4
ATOM      4  C   UNL d   1      54.480  32.521  53.475  0.00  0.00     0.289 C 
ATOM      5  N   UNL d   1      54.487  31.795  53.089  0.00  0.00    -0.207 NA
ATOM      6  O   UNL d   1      55.077  33.076  53.349  0.00  0.00    -0.264 OA
BRANCH   5   7
ATOM      7  C   UNL d   1      53.890  31.240  53.215  0.00  0.00     0.085 A 
ATOM      8  C   UNL d   1      53.213  31.248  52.743  0.00  0.00     0.020 A 
ATOM      9  C   UNL d   1      52.616  30.693  52.869  0.00  0.00     0.008 A 
ATOM     10  C   UNL d   1      52.695  30.130  53.466  0.00  0.00     0.035 A 
ATOM     11  C   UNL d   1      53.372  30.121  53.938  0.00  0.00     0.008 A 
ATOM     12 BR   UNL d   1      52.090  29.574  53.587  0.00  0.00    -0.049 Br
ATOM     13  C   UNL d   1      53.968  30.676  53.812  0.00  0.00     0.020 A 
ENDBRANCH   5   7
ENDBRANCH   1   4
BRANCH   1  14
ATOM     14  C   UNL d   1      53.152  33.003  53.707  0.00  0.00     0.040 C 
BRANCH  14  15
ATOM     15  C   UNL d   1      52.955  33.801  53.820  0.00  0.00     0.101 A 
ATOM     16  O   UNL d   1      53.297  34.402  54.261  0.00  0.00    -0.307 OA
ATOM     17  C   UNL d   1      52.842  35.082  54.148  0.00  0.00     0.100 A 
ATOM     18  C   UNL d   1      52.987  35.832  54.493  0.00  0.00     0.027 C 
ATOM     19  C   UNL d   1      52.227  34.907  53.644  0.00  0.00     0.027 A 
ATOM     20  C   UNL d   1      52.294  34.107  53.436  0.00  0.00     0.027 A 
ENDBRANCH  14  15
ENDBRANCH   1  14
TORSDOF 4
ENDMDL
MODEL 3
REMARK VINA RESULT:      -7.0      2.069      3.660
REMARK  4 active torsions:
REMARK  status: ('A' for Active; 'I' for Inactive)
REMARK    1  A    between atoms: C_2  and  C_1 
REMARK    2  A    between atoms: C_3  and  C_1 
REMARK       I    between atoms: N_7  and  C_2 
REMARK    3  A    between atoms: C_4  and  C_3 
REMARK    4  A    between atoms: C_13  and  N_7 
ROOT
ATOM      1  C   UNL d   1      52.658  33.068  53.007  0.00  0.00     0.128 C 
ATOM      2  C   UNL d   1      53.030  33.664  52.590  0.00  0.00     0.106 C 
ATOM      3  N   UNL d   1      53.411  34.270  52.161  0.00  0.00    -0.191 NA
ENDROOT
BRANCH   1   4
ATOM      4  C   UNL d   1      52.875  32.270  52.900  0.00  0.00     0.289 C 
ATOM      5  N   UNL d   1      53.476  31.947  53.359  0.00  0.00    -0.207 NA
ATOM      6  O   UNL d   1      52.483  31.817  52.332  0.00  0.00    -0.264 OA
BRANCH   5   7
ATOM      7  C   UNL d   1      53.868  32.400  53.926  0.00  0.00     0.085 A 
ATOM      8  C   UNL d   1      54.523  32.853  53.711  0.00  0.00     0.020 A 
ATOM      9  C   UNL d   1      54.916  33.306  54.278  0.00  0.00     0.008 A 
ATOM     10  C   UNL d   1      54.654  33.306  55.060  0.00  0.00     0.035 A 
ATOM     11  C   UNL d   1      53.999  32.853  55.275  0.00  0.00     0.008 A 
ATOM     12 BR   UNL d   1      55.054  33.764  55.625  0.00  0.00    -0.049 Br
ATOM     13  C   UNL d   1      53.607  32.400  54.709  0.00  0.00     0.020 A 
ENDBRANCH   5   7
ENDBRANCH   1   4
BRANCH   1  14
ATOM     14  C   UNL d   1      52.059  33.255  53.544  0.00  0.00     0.040 C 
BRANCH  14  15
ATOM     15  C   UNL d   1      51.374  33.647  53.291  0.00  0.00     0.101 A 
ATOM     16  O   UNL d   1      50.959  33.642  52.584  0.00  0.00    -0.307 OA
ATOM     17  C   UNL d   1      50.315  34.153  52.670  0.00  0.00     0.100 A 
ATOM     18  C   UNL d   1      49.739  34.320  52.086  0.00  0.00     0.027 C 
ATOM     19  C   UNL d   1      50.331  34.471  53.420  0.00  0.00     0.027 A 
ATOM     20  C   UNL d   1      50.991  34.158  53.811  0.00  0.00     0.027 A 
ENDBRANCH  14  15
ENDBRANCH   1  14
TORSDOF 4
ENDMDL
MODEL 4
REMARK VINA RESULT:      -6.6      2.220      3.755
REMARK  4 active torsions:
REMARK  status: ('A' for Active; 'I' for Inactive)
REMARK    1  A    between atoms: C_2  and  C_1 
REMARK    2  A    between atoms: C_3  and  C_1 
REMARK       I    between atoms: N_7  and  C_2 
REMARK    3  A    between atoms: C_4  and  C_3 
REMARK    4  A    between atoms: C_13  and  N_7 
ROOT
ATOM      1  C   UNL d   1      52.424  34.517  53.424  0.00  0.00     0.128 C 
ATOM      2  C   UNL d   1      52.675  34.658  52.659  0.00  0.00     0.106 C 
ATOM      3  N   UNL d   1      52.935  34.804  51.879  0.00  0.00    -0.191 NA
ENDROOT
BRANCH   1   4
ATOM      4  C   UNL d   1      52.815  34.865  54.074  0.00  0.00     0.289 C 
ATOM      5  N   UNL d   1      53.383  34.434  54.483  0.00  0.00    -0.207 NA
ATOM      6  O   UNL d   1      52.624  35.636  54.295  0.00  0.00    -0.264 OA
BRANCH   5   7
ATOM      7  C   UNL d   1      53.574  33.663  54.261  0.00  0.00     0.085 A 
ATOM      8  C   UNL d   1      53.203  33.025  54.630  0.00  0.00     0.020 A 
ATOM      9  C   UNL d   1      53.395  32.253  54.409  0.00  0.00     0.008 A 
ATOM     10  C   UNL d   1      53.956  32.119  53.820  0.00  0.00     0.035 A 
ATOM     11  C   UNL d   1      54.327  32.757  53.451  0.00  0.00     0.008 A 
ATOM     12 BR   UNL d   1      54.143  31.341  53.603  0.00  0.00    -0.049 Br
ATOM     13  C   UNL d   1      54.136  33.528  53.672  0.00  0.00     0.020 A 
ENDBRANCH   5   7
ENDBRANCH   1   4
BRANCH   1  14
ATOM     14  C   UNL d   1      51.775  34.025  53.558  0.00  0.00     0.040 C 
BRANCH  14  15
ATOM     15  C   UNL d   1      51.025  34.230  53.273  0.00  0.00     0.101 A 
ATOM     16  O   UNL d   1      50.541  34.881  53.396  0.00  0.00    -0.307 OA
ATOM     17  C   UNL d   1      49.852  34.765  52.955  0.00  0.00     0.100 A 
ATOM     18  C   UNL d   1      49.201  35.291  52.914  0.00  0.00     0.027 C 
ATOM     19  C   UNL d   1      49.907  34.053  52.563  0.00  0.00     0.027 A 
ATOM     20  C   UNL d   1      50.638  33.716  52.759  0.00  0.00     0.027 A 
ENDBRANCH  14  15
ENDBRANCH   1  14
TORSDOF 4
ENDMDL
MODEL 5
REMARK VINA RESULT:      -6.1      1.981      2.759
REMARK  4 active torsions:
REMARK  status: ('A' for Active; 'I' for Inactive)
REMARK    1  A    between atoms: C_2  and  C_1 
REMARK    2  A    between atoms: C_3  and  C_1 
REMARK       I    between atoms: N_7  and  C_2 
REMARK    3  A    between atoms: C_4  and  C_3 
REMARK    4  A    between atoms: C_13  and  N_7 
ROOT
ATOM      1  C   UNL d   1      52.951  33.453  53.254  0.00  0.00     0.128 C 
ATOM      2  C   UNL d   1      53.171  34.167  52.922  0.00  0.00     0.106 C 
ATOM      3  N   UNL d   1      53.396  34.894  52.579  0.00  0.00    -0.191 NA
ENDROOT
BRANCH   1   4
ATOM      4  C   UNL d   1      52.774  32.794  52.775  0.00  0.00     0.289 C 
ATOM      5  N   UNL d   1      52.012  32.699  52.482  0.00  0.00    -0.207 NA
ATOM      6  O   UNL d   1      53.369  32.249  52.602  0.00  0.00    -0.264 OA
BRANCH   5   7
ATOM      7  C   UNL d   1      51.418  33.244  52.655  0.00  0.00     0.085 A 
ATOM      8  C   UNL d   1      51.286  33.883  52.150  0.00  0.00     0.020 A 
ATOM      9  C   UNL d   1      50.691  34.429  52.322  0.00  0.00     0.008 A 
ATOM     10  C   UNL d   1      50.229  34.336  52.999  0.00  0.00     0.035 A 
ATOM     11  C   UNL d   1      50.361  33.697  53.504  0.00  0.00     0.008 A 
ATOM     12 BR   UNL d   1      49.633  34.888  53.166  0.00  0.00    -0.049 Br
ATOM     13  C   UNL d   1      50.955  33.152  53.332  0.00  0.00     0.020 A 
ENDBRANCH   5   7
ENDBRANCH   1   4
BRANCH   1  14
ATOM     14  C   UNL d   1      52.902  33.381  54.075  0.00  0.00     0.040 C 
BRANCH  14  15
ATOM     15  C   UNL d   1      53.588  33.398  54.541  0.00  0.00     0.101 A 
ATOM     16  O   UNL d   1      54.254  33.877  54.534  0.00  0.00    -0.307 OA
ATOM     17  C   UNL d   1      54.751  33.619  55.142  0.00  0.00     0.100 A 
ATOM     18  C   UNL d   1      55.496  33.949  55.339  0.00  0.00     0.027 C 
ATOM     19  C   UNL d   1      54.400  32.990  55.520  0.00  0.00     0.027 A 
ATOM     20  C   UNL d   1      53.673  32.848  55.148  0.00  0.00     0.027 A 
ENDBRANCH  14  15
ENDBRANCH   1  14
TORSDOF 4
ENDMDL
