MODEL 1
REMARK VINA RESULT:      60.1      0.000      0.000
REMARK  6 active torsions:
REMARK  status: ('A' for Active; 'I' for Inactive)
REMARK    1  A    between atoms: C_6  and  N_1 
REMARK    2  A    between atoms: C_12  and  C_6 
REMARK    3  A    between atoms: O_18  and  C_7 
REMARK    4  A    between atoms: O_19  and  C_10 
REMARK    5  A    between atoms: C_21  and  O_19 
REMARK    6  A    between atoms: C_23  and  C_21 
ROOT
ATOM      1  C   UNL d   1      60.790  47.601  50.640  0.00  0.00     0.117 A 
ATOM      2  C   UNL d   1      61.414  47.604  50.095  0.00  0.00     0.122 A 
ATOM      3  C   UNL d   1      60.394  48.301  50.804  0.00  0.00     0.028 A 
ATOM      4  C   UNL d   1      60.614  48.995  50.434  0.00  0.00     0.020 A 
ATOM      5  C   UNL d   1      61.633  48.304  49.724  0.00  0.00     0.027 A 
ATOM      6  C   UNL d   1      61.230  49.004  49.896  0.00  0.00     0.004 A 
ENDROOT
BRANCH   4   7
ATOM      7  C   UNL d   1      60.211  49.694  50.605  0.00  0.00     0.085 C 
BRANCH   7   8
ATOM      8  N   UNL d   1      59.626  49.697  51.187  0.00  0.00    -0.251 N 
ATOM      9  C   UNL d   1      59.712  49.700  52.018  0.00  0.00     0.378 A 
ATOM     10  O   UNL d   1      58.957  49.703  52.355  0.00  0.00    -0.258 OA
ATOM     11  O   UNL d   1      60.429  49.701  52.422  0.00  0.00    -0.237 OA
ATOM     12  C   UNL d   1      58.402  49.701  51.738  0.00  0.00     0.121 A 
ATOM     13  C   UNL d   1      58.815  49.698  51.017  0.00  0.00     0.092 A 
ATOM     14  C   UNL d   1      57.575  49.703  51.731  0.00  0.00     0.026 A 
ATOM     15  C   UNL d   1      58.410  49.696  50.303  0.00  0.00     0.020 A 
ATOM     16  C   UNL d   1      57.584  49.697  50.307  0.00  0.00     0.002 A 
ATOM     17  C   UNL d   1      57.169  49.701  51.017  0.00  0.00     0.002 A 
ATOM     18  C   UNL d   1      57.179  49.695  49.583  0.00  0.00     0.000 C 
ENDBRANCH   7   8
ENDBRANCH   4   7
BRANCH   1  19
ATOM     19  O   UNL d   1      60.573  46.904  51.007  0.00  0.00    -0.326 OA
ATOM     20  C   UNL d   1      59.944  47.112  51.500  0.00  0.00     0.181 C 
ENDBRANCH   1  19
BRANCH   2  21
ATOM     21  O   UNL d   1      61.813  46.905  49.927  0.00  0.00    -0.303 OA
BRANCH  21  22
ATOM     22  C   UNL d   1      62.336  46.877  49.300  0.00  0.00     0.123 C 
BRANCH  22  23
ATOM     23  C   UNL d   1      62.550  46.151  48.971  0.00  0.00     0.027 C 
ATOM     24  C   UNL d   1      62.112  45.475  49.140  0.00  0.00     0.002 C 
ENDBRANCH  22  23
ENDBRANCH  21  22
ENDBRANCH   2  21
TORSDOF 6
ENDMDL
MODEL 2
REMARK VINA RESULT:      61.2      1.173      3.955
REMARK  6 active torsions:
REMARK  status: ('A' for Active; 'I' for Inactive)
REMARK    1  A    between atoms: C_6  and  N_1 
REMARK    2  A    between atoms: C_12  and  C_6 
REMARK    3  A    between atoms: O_18  and  C_7 
REMARK    4  A    between atoms: O_19  and  C_10 
REMARK    5  A    between atoms: C_21  and  O_19 
REMARK    6  A    between atoms: C_23  and  C_21 
ROOT
ATOM      1  C   UNL d   1      58.475  49.657  50.628  0.00  0.00     0.117 A 
ATOM      2  C   UNL d   1      58.277  49.664  49.824  0.00  0.00     0.122 A 
ATOM      3  C   UNL d   1      59.264  49.615  50.849  0.00  0.00     0.028 A 
ATOM      4  C   UNL d   1      59.849  49.580  50.281  0.00  0.00     0.020 A 
ATOM      5  C   UNL d   1      58.868  49.629  49.254  0.00  0.00     0.027 A 
ATOM      6  C   UNL d   1      59.659  49.586  49.486  0.00  0.00     0.004 A 
ENDROOT
BRANCH   4   7
ATOM      7  C   UNL d   1      60.640  49.538  50.512  0.00  0.00     0.085 C 
BRANCH   7   8
ATOM      8  N   UNL d   1      60.873  48.982  51.076  0.00  0.00    -0.251 N 
ATOM      9  C   UNL d   1      60.870  49.048  51.908  0.00  0.00     0.378 A 
ATOM     10  O   UNL d   1      61.157  48.338  52.223  0.00  0.00    -0.258 OA
ATOM     11  O   UNL d   1      60.623  49.708  52.333  0.00  0.00    -0.237 OA
ATOM     12  C   UNL d   1      61.338  47.833  51.590  0.00  0.00     0.121 A 
ATOM     13  C   UNL d   1      61.163  48.230  50.881  0.00  0.00     0.092 A 
ATOM     14  C   UNL d   1      61.639  47.063  51.558  0.00  0.00     0.026 A 
ATOM     15  C   UNL d   1      61.286  47.866  50.156  0.00  0.00     0.020 A 
ATOM     16  C   UNL d   1      61.587  47.098  50.135  0.00  0.00     0.002 A 
ATOM     17  C   UNL d   1      61.762  46.698  50.833  0.00  0.00     0.002 A 
ATOM     18  C   UNL d   1      61.710  46.734  49.401  0.00  0.00     0.000 C 
ENDBRANCH   7   8
ENDBRANCH   4   7
BRANCH   1  19
ATOM     19  O   UNL d   1      57.886  49.692  51.194  0.00  0.00    -0.326 OA
ATOM     20  C   UNL d   1      57.629  48.913  51.282  0.00  0.00     0.181 C 
ENDBRANCH   1  19
BRANCH   2  21
ATOM     21  O   UNL d   1      57.488  49.706  49.598  0.00  0.00    -0.303 OA
BRANCH  21  22
ATOM     22  C   UNL d   1      56.906  49.430  50.102  0.00  0.00     0.123 C 
BRANCH  22  23
ATOM     23  C   UNL d   1      56.217  49.095  49.795  0.00  0.00     0.027 C 
ATOM     24  C   UNL d   1      56.041  49.172  48.996  0.00  0.00     0.002 C 
ENDBRANCH  22  23
ENDBRANCH  21  22
ENDBRANCH   2  21
TORSDOF 6
ENDMDL
