MODEL 1
REMARK VINA RESULT:      -5.1      0.000      0.000
REMARK  8 active torsions:
REMARK  status: ('A' for Active; 'I' for Inactive)
REMARK    1  A    between atoms: N_6  and  C_1 
REMARK    2  A    between atoms: N_8  and  C_2 
REMARK    3  A    between atoms: N_15  and  C_7 
REMARK    4  A    between atoms: C_12  and  N_8 
REMARK    5  A    between atoms: N_10  and  C_19 
REMARK    6  A    between atoms: C_24  and  N_15 
REMARK    7  A    between atoms: C_19  and  C_20 
REMARK    8  A    between atoms: C_20  and  C_24 
ROOT
ATOM      1  C   UNL d   1     -45.556  12.876  22.491  0.00  0.00     0.201 A 
ATOM      2  C   UNL d   1     -46.319  12.756  22.793  0.00  0.00     0.206 A 
ATOM      3  N   UNL d   1     -46.777  13.417  22.954  0.00  0.00    -0.038 NA
ATOM      4  N   UNL d   1     -45.746  14.276  22.527  0.00  0.00    -0.036 NA
ATOM      5  C   UNL d   1     -45.270  13.634  22.358  0.00  0.00     0.227 A 
ATOM      6  C   UNL d   1     -46.491  14.175  22.821  0.00  0.00     0.753 A 
ATOM      7  N   UNL d   1     -44.510  13.733  22.058  0.00  0.00    -0.125 N 
ENDROOT
BRANCH   6   8
ATOM      8  N   UNL d   1     -46.962  14.829  22.988  0.00  0.00    -0.058 NA
BRANCH   8   9
ATOM      9  C   UNL d   1     -47.520  15.083  22.437  0.00  0.00     0.120 C 
BRANCH   9  10
ATOM     10  C   UNL d   1     -48.174  15.517  22.687  0.00  0.00     0.040 C 
BRANCH  10  11
ATOM     11  C   UNL d   1     -48.841  15.573  22.206  0.00  0.00     0.082 C 
BRANCH  11  12
ATOM     12  N   UNL d   1     -49.584  15.357  22.496  0.00  0.00    -0.299 N 
ATOM     13  C   UNL d   1     -50.047  14.827  22.065  0.00  0.00     0.107 A 
ATOM     14  C   UNL d   1     -50.788  14.609  22.350  0.00  0.00     0.142 A 
ATOM     15  O   UNL d   1     -51.064  14.920  23.063  0.00  0.00    -0.300 OA
ATOM     16  C   UNL d   1     -50.598  15.448  23.491  0.00  0.00     0.142 A 
ATOM     17  C   UNL d   1     -49.850  15.670  23.205  0.00  0.00     0.107 A 
ENDBRANCH  11  12
ENDBRANCH  10  11
ENDBRANCH   9  10
ENDBRANCH   8   9
ENDBRANCH   6   8
BRANCH   2  18
ATOM     18  N   UNL d   1     -46.606  11.994  22.926  0.00  0.00    -0.225 NA
BRANCH  18  19
ATOM     19  C   UNL d   1     -47.420  11.854  22.956  0.00  0.00     0.085 A 
ATOM     20  C   UNL d   1     -47.833  11.650  22.262  0.00  0.00     0.049 A 
ATOM     21  C   UNL d   1     -48.637  11.512  22.291  0.00  0.00     0.142 A 
ATOM     22  F   UNL d   1     -49.046  11.310  21.604  0.00  0.00    -0.204 F 
ATOM     23  C   UNL d   1     -49.044  11.574  23.010  0.00  0.00     0.030 A 
ATOM     24  C   UNL d   1     -48.634  11.776  23.697  0.00  0.00     0.004 A 
ATOM     25  C   UNL d   1     -47.822  11.916  23.668  0.00  0.00     0.019 A 
ENDBRANCH  18  19
ENDBRANCH   2  18
BRANCH   1  26
ATOM     26  N   UNL d   1     -45.074  12.204  22.321  0.00  0.00    -0.107 N 
ATOM     27  O   UNL d   1     -44.964  11.972  21.525  0.00  0.00    -0.531 OA
ATOM     28  O   UNL d   1     -44.712  11.777  22.943  0.00  0.00    -0.531 OA
ENDBRANCH   1  26
TORSDOF 8
ENDMDL
MODEL 2
REMARK VINA RESULT:      -4.9      1.471      4.565
REMARK  8 active torsions:
REMARK  status: ('A' for Active; 'I' for Inactive)
REMARK    1  A    between atoms: N_6  and  C_1 
REMARK    2  A    between atoms: N_8  and  C_2 
REMARK    3  A    between atoms: N_15  and  C_7 
REMARK    4  A    between atoms: C_12  and  N_8 
REMARK    5  A    between atoms: N_10  and  C_19 
REMARK    6  A    between atoms: C_24  and  N_15 
REMARK    7  A    between atoms: C_19  and  C_20 
REMARK    8  A    between atoms: C_20  and  C_24 
ROOT
ATOM      1  C   UNL d   1     -48.643  14.879  22.719  0.00  0.00     0.201 A 
ATOM      2  C   UNL d   1     -48.762  14.118  23.026  0.00  0.00     0.206 A 
ATOM      3  N   UNL d   1     -48.105  13.639  23.131  0.00  0.00    -0.038 NA
ATOM      4  N   UNL d   1     -47.251  14.645  22.640  0.00  0.00    -0.036 NA
ATOM      5  C   UNL d   1     -47.889  15.142  22.526  0.00  0.00     0.227 A 
ATOM      6  C   UNL d   1     -47.352  13.902  22.938  0.00  0.00     0.753 A 
ATOM      7  N   UNL d   1     -47.792  15.900  22.223  0.00  0.00    -0.125 N 
ENDROOT
BRANCH   6   8
ATOM      8  N   UNL d   1     -46.702  13.409  23.048  0.00  0.00    -0.058 NA
BRANCH   8   9
ATOM      9  C   UNL d   1     -46.204  13.239  22.414  0.00  0.00     0.120 C 
BRANCH   9  10
ATOM     10  C   UNL d   1     -45.424  13.014  22.554  0.00  0.00     0.040 C 
BRANCH  10  11
ATOM     11  C   UNL d   1     -45.089  12.395  22.124  0.00  0.00     0.082 C 
BRANCH  11  12
ATOM     12  N   UNL d   1     -44.285  12.406  21.936  0.00  0.00    -0.299 N 
ATOM     13  C   UNL d   1     -43.788  11.828  22.253  0.00  0.00     0.107 A 
ATOM     14  C   UNL d   1     -42.985  11.836  22.068  0.00  0.00     0.142 A 
ATOM     15  O   UNL d   1     -42.682  12.418  21.567  0.00  0.00    -0.300 OA
ATOM     16  C   UNL d   1     -43.182  12.992  21.252  0.00  0.00     0.142 A 
ATOM     17  C   UNL d   1     -43.992  12.988  21.438  0.00  0.00     0.107 A 
ENDBRANCH  11  12
ENDBRANCH  10  11
ENDBRANCH   9  10
ENDBRANCH   8   9
ENDBRANCH   6   8
BRANCH   2  18
ATOM     18  N   UNL d   1     -49.519  13.854  23.220  0.00  0.00    -0.225 NA
BRANCH  18  19
ATOM     19  C   UNL d   1     -49.733  13.067  23.089  0.00  0.00     0.085 A 
ATOM     20  C   UNL d   1     -50.002  12.828  22.337  0.00  0.00     0.049 A 
ATOM     21  C   UNL d   1     -50.213  12.051  22.207  0.00  0.00     0.142 A 
ATOM     22  F   UNL d   1     -50.479  11.815  21.462  0.00  0.00    -0.204 F 
ATOM     23  C   UNL d   1     -50.161  11.497  22.820  0.00  0.00     0.030 A 
ATOM     24  C   UNL d   1     -49.895  11.734  23.565  0.00  0.00     0.004 A 
ATOM     25  C   UNL d   1     -49.681  12.520  23.697  0.00  0.00     0.019 A 
ENDBRANCH  18  19
ENDBRANCH   2  18
BRANCH   1  26
ATOM     26  N   UNL d   1     -49.310  15.383  22.607  0.00  0.00    -0.107 N 
ATOM     27  O   UNL d   1     -49.628  15.793  23.264  0.00  0.00    -0.531 OA
ATOM     28  O   UNL d   1     -49.649  15.471  21.847  0.00  0.00    -0.531 OA
ENDBRANCH   1  26
TORSDOF 8
ENDMDL
MODEL 3
REMARK VINA RESULT:      -4.2      2.039      4.911
REMARK  8 active torsions:
REMARK  status: ('A' for Active; 'I' for Inactive)
REMARK    1  A    between atoms: N_6  and  C_1 
REMARK    2  A    between atoms: N_8  and  C_2 
REMARK    3  A    between atoms: N_15  and  C_7 
REMARK    4  A    between atoms: C_12  and  N_8 
REMARK    5  A    between atoms: N_10  and  C_19 
REMARK    6  A    between atoms: C_24  and  N_15 
REMARK    7  A    between atoms: C_19  and  C_20 
REMARK    8  A    between atoms: C_20  and  C_24 
ROOT
ATOM      1  C   UNL d   1     -48.580  12.156  22.922  0.00  0.00     0.201 A 
ATOM      2  C   UNL d   1     -48.456  12.899  22.575  0.00  0.00     0.206 A 
ATOM      3  N   UNL d   1     -47.688  13.183  22.541  0.00  0.00    -0.038 NA
ATOM      4  N   UNL d   1     -47.195  12.027  23.175  0.00  0.00    -0.036 NA
ATOM      5  C   UNL d   1     -47.951  11.721  23.221  0.00  0.00     0.227 A 
ATOM      6  C   UNL d   1     -47.059  12.748  22.840  0.00  0.00     0.753 A 
ATOM      7  N   UNL d   1     -48.094  10.985  23.562  0.00  0.00    -0.125 N 
ENDROOT
BRANCH   6   8
ATOM      8  N   UNL d   1     -46.294  13.048  22.798  0.00  0.00    -0.058 NA
BRANCH   8   9
ATOM      9  C   UNL d   1     -45.734  12.676  22.322  0.00  0.00     0.120 C 
BRANCH   9  10
ATOM     10  C   UNL d   1     -44.987  13.010  22.230  0.00  0.00     0.040 C 
BRANCH  10  11
ATOM     11  C   UNL d   1     -44.577  12.918  21.520  0.00  0.00     0.082 C 
BRANCH  11  12
ATOM     12  N   UNL d   1     -43.752  12.952  21.508  0.00  0.00    -0.299 N 
ATOM     13  C   UNL d   1     -43.379  13.624  21.208  0.00  0.00     0.107 A 
ATOM     14  C   UNL d   1     -42.556  13.661  21.194  0.00  0.00     0.142 A 
ATOM     15  O   UNL d   1     -42.110  13.028  21.479  0.00  0.00    -0.300 OA
ATOM     16  C   UNL d   1     -42.486  12.359  21.778  0.00  0.00     0.142 A 
ATOM     17  C   UNL d   1     -43.316  12.319  21.793  0.00  0.00     0.107 A 
ENDBRANCH  11  12
ENDBRANCH  10  11
ENDBRANCH   9  10
ENDBRANCH   8   9
ENDBRANCH   6   8
BRANCH   2  18
ATOM     18  N   UNL d   1     -49.088  13.336  22.275  0.00  0.00    -0.225 NA
BRANCH  18  19
ATOM     19  C   UNL d   1     -49.116  14.154  22.379  0.00  0.00     0.085 A 
ATOM     20  C   UNL d   1     -49.581  14.482  22.988  0.00  0.00     0.049 A 
ATOM     21  C   UNL d   1     -49.608  15.291  23.090  0.00  0.00     0.142 A 
ATOM     22  F   UNL d   1     -50.068  15.615  23.693  0.00  0.00    -0.204 F 
ATOM     23  C   UNL d   1     -49.174  15.789  22.591  0.00  0.00     0.030 A 
ATOM     24  C   UNL d   1     -48.714  15.464  21.988  0.00  0.00     0.004 A 
ATOM     25  C   UNL d   1     -48.686  14.646  21.883  0.00  0.00     0.019 A 
ENDBRANCH  18  19
ENDBRANCH   2  18
BRANCH   1  26
ATOM     26  N   UNL d   1     -49.366  11.851  22.964  0.00  0.00    -0.107 N 
ATOM     27  O   UNL d   1     -49.713  11.519  22.278  0.00  0.00    -0.531 OA
ATOM     28  O   UNL d   1     -49.792  11.880  23.684  0.00  0.00    -0.531 OA
ENDBRANCH   1  26
TORSDOF 8
ENDMDL
MODEL 4
REMARK VINA RESULT:      -4.1      5.399      7.601
REMARK  8 active torsions:
REMARK  status: ('A' for Active; 'I' for Inactive)
REMARK    1  A    between atoms: N_6  and  C_1 
REMARK    2  A    between atoms: N_8  and  C_2 
REMARK    3  A    between atoms: N_15  and  C_7 
REMARK    4  A    between atoms: C_12  and  N_8 
REMARK    5  A    between atoms: N_10  and  C_19 
REMARK    6  A    between atoms: C_24  and  N_15 
REMARK    7  A    between atoms: C_19  and  C_20 
REMARK    8  A    between atoms: C_20  and  C_24 
ROOT
ATOM      1  C   UNL d   1     -39.632  14.512  19.615  0.00  0.00     0.201 A 
ATOM      2  C   UNL d   1     -39.548  14.363  20.426  0.00  0.00     0.206 A 
ATOM      3  N   UNL d   1     -40.230  14.264  20.871  0.00  0.00    -0.038 NA
ATOM      4  N   UNL d   1     -41.039  14.455  19.735  0.00  0.00    -0.036 NA
ATOM      5  C   UNL d   1     -40.375  14.558  19.270  0.00  0.00     0.227 A 
ATOM      6  C   UNL d   1     -40.973  14.309  20.526  0.00  0.00     0.753 A 
ATOM      7  N   UNL d   1     -40.438  14.707  18.463  0.00  0.00    -0.125 N 
ENDROOT
BRANCH   6   8
ATOM      8  N   UNL d   1     -41.649  14.207  20.985  0.00  0.00    -0.058 NA
BRANCH   8   9
ATOM      9  C   UNL d   1     -42.109  13.530  20.893  0.00  0.00     0.120 C 
BRANCH   9  10
ATOM     10  C   UNL d   1     -42.748  13.397  21.394  0.00  0.00     0.040 C 
BRANCH  10  11
ATOM     11  C   UNL d   1     -43.306  12.818  21.210  0.00  0.00     0.082 C 
BRANCH  11  12
ATOM     12  N   UNL d   1     -43.954  12.691  21.705  0.00  0.00    -0.299 N 
ATOM     13  C   UNL d   1     -44.605  13.195  21.655  0.00  0.00     0.107 A 
ATOM     14  C   UNL d   1     -45.254  13.072  22.147  0.00  0.00     0.142 A 
ATOM     15  O   UNL d   1     -45.251  12.447  22.686  0.00  0.00    -0.300 OA
ATOM     16  C   UNL d   1     -44.599  11.946  22.732  0.00  0.00     0.142 A 
ATOM     17  C   UNL d   1     -43.943  12.067  22.237  0.00  0.00     0.107 A 
ENDBRANCH  11  12
ENDBRANCH  10  11
ENDBRANCH   9  10
ENDBRANCH   8   9
ENDBRANCH   6   8
BRANCH   2  18
ATOM     18  N   UNL d   1     -38.801  14.318  20.773  0.00  0.00    -0.225 NA
BRANCH  18  19
ATOM     19  C   UNL d   1     -38.725  14.252  21.593  0.00  0.00     0.085 A 
ATOM     20  C   UNL d   1     -38.637  13.503  21.945  0.00  0.00     0.049 A 
ATOM     21  C   UNL d   1     -38.562  13.438  22.755  0.00  0.00     0.142 A 
ATOM     22  F   UNL d   1     -38.476  12.696  23.104  0.00  0.00    -0.204 F 
ATOM     23  C   UNL d   1     -38.572  14.117  23.229  0.00  0.00     0.030 A 
ATOM     24  C   UNL d   1     -38.659  14.860  22.880  0.00  0.00     0.004 A 
ATOM     25  C   UNL d   1     -38.735  14.925  22.061  0.00  0.00     0.019 A 
ENDBRANCH  18  19
ENDBRANCH   2  18
BRANCH   1  26
ATOM     26  N   UNL d   1     -38.938  14.617  19.146  0.00  0.00    -0.107 N 
ATOM     27  O   UNL d   1     -38.559  13.945  18.822  0.00  0.00    -0.531 OA
ATOM     28  O   UNL d   1     -38.635  15.385  19.007  0.00  0.00    -0.531 OA
ENDBRANCH   1  26
TORSDOF 8
ENDMDL
MODEL 5
REMARK VINA RESULT:      -2.5      2.853      5.472
REMARK  8 active torsions:
REMARK  status: ('A' for Active; 'I' for Inactive)
REMARK    1  A    between atoms: N_6  and  C_1 
REMARK    2  A    between atoms: N_8  and  C_2 
REMARK    3  A    between atoms: N_15  and  C_7 
REMARK    4  A    between atoms: C_12  and  N_8 
REMARK    5  A    between atoms: N_10  and  C_19 
REMARK    6  A    between atoms: C_24  and  N_15 
REMARK    7  A    between atoms: C_19  and  C_20 
REMARK    8  A    between atoms: C_20  and  C_24 
ROOT
ATOM      1  C   UNL d   1     -44.745  11.484  22.937  0.00  0.00     0.201 A 
ATOM      2  C   UNL d   1     -45.192  12.127  22.664  0.00  0.00     0.206 A 
ATOM      3  N   UNL d   1     -44.825  12.668  22.169  0.00  0.00    -0.038 NA
ATOM      4  N   UNL d   1     -43.616  11.947  22.224  0.00  0.00    -0.036 NA
ATOM      5  C   UNL d   1     -43.959  11.395  22.718  0.00  0.00     0.227 A 
ATOM      6  C   UNL d   1     -44.039  12.578  21.950  0.00  0.00     0.753 A 
ATOM      7  N   UNL d   1     -43.532  10.750  23.000  0.00  0.00    -0.125 N 
ENDROOT
BRANCH   6   8
ATOM      8  N   UNL d   1     -43.683  13.129  21.453  0.00  0.00    -0.058 NA
BRANCH   8   9
ATOM      9  C   UNL d   1     -42.898  13.028  21.223  0.00  0.00     0.120 C 
BRANCH   9  10
ATOM     10  C   UNL d   1     -42.414  13.685  21.120  0.00  0.00     0.040 C 
BRANCH  10  11
ATOM     11  C   UNL d   1     -41.651  13.594  20.820  0.00  0.00     0.082 C 
BRANCH  11  12
ATOM     12  N   UNL d   1     -41.190  14.257  20.645  0.00  0.00    -0.299 N 
ATOM     13  C   UNL d   1     -41.018  14.432  19.857  0.00  0.00     0.107 A 
ATOM     14  C   UNL d   1     -40.559  15.091  19.677  0.00  0.00     0.142 A 
ATOM     15  O   UNL d   1     -40.273  15.573  20.283  0.00  0.00    -0.300 OA
ATOM     16  C   UNL d   1     -40.447  15.395  21.069  0.00  0.00     0.142 A 
ATOM     17  C   UNL d   1     -40.910  14.730  21.253  0.00  0.00     0.107 A 
ENDBRANCH  11  12
ENDBRANCH  10  11
ENDBRANCH   9  10
ENDBRANCH   8   9
ENDBRANCH   6   8
BRANCH   2  18
ATOM     18  N   UNL d   1     -45.982  12.217  22.884  0.00  0.00    -0.225 NA
BRANCH  18  19
ATOM     19  C   UNL d   1     -46.365  12.941  22.779  0.00  0.00     0.085 A 
ATOM     20  C   UNL d   1     -46.962  13.018  22.204  0.00  0.00     0.049 A 
ATOM     21  C   UNL d   1     -47.340  13.733  22.100  0.00  0.00     0.142 A 
ATOM     22  F   UNL d   1     -47.932  13.809  21.530  0.00  0.00    -0.204 F 
ATOM     23  C   UNL d   1     -47.131  14.386  22.565  0.00  0.00     0.030 A 
ATOM     24  C   UNL d   1     -46.539  14.310  23.134  0.00  0.00     0.004 A 
ATOM     25  C   UNL d   1     -46.156  13.587  23.240  0.00  0.00     0.019 A 
ENDBRANCH  18  19
ENDBRANCH   2  18
BRANCH   1  26
ATOM     26  N   UNL d   1     -45.111  10.920  23.447  0.00  0.00    -0.107 N 
ATOM     27  O   UNL d   1     -45.900  11.046  23.698  0.00  0.00    -0.531 OA
ATOM     28  O   UNL d   1     -44.689  10.242  23.698  0.00  0.00    -0.531 OA
ENDBRANCH   1  26
TORSDOF 8
ENDMDL
MODEL 6
REMARK VINA RESULT:      -2.4      8.727     10.286
REMARK  8 active torsions:
REMARK  status: ('A' for Active; 'I' for Inactive)
REMARK    1  A    between atoms: N_6  and  C_1 
REMARK    2  A    between atoms: N_8  and  C_2 
REMARK    3  A    between atoms: N_15  and  C_7 
REMARK    4  A    between atoms: C_12  and  N_8 
REMARK    5  A    between atoms: N_10  and  C_19 
REMARK    6  A    between atoms: C_24  and  N_15 
REMARK    7  A    between atoms: C_19  and  C_20 
REMARK    8  A    between atoms: C_20  and  C_24 
ROOT
ATOM      1  C   UNL d   1     -40.441  15.456  17.690  0.00  0.00     0.201 A 
ATOM      2  C   UNL d   1     -39.659  15.387  17.422  0.00  0.00     0.206 A 
ATOM      3  N   UNL d   1     -39.056  15.515  17.961  0.00  0.00    -0.038 NA
ATOM      4  N   UNL d   1     -39.983  15.768  18.990  0.00  0.00    -0.036 NA
ATOM      5  C   UNL d   1     -40.603  15.646  18.472  0.00  0.00     0.227 A 
ATOM      6  C   UNL d   1     -39.217  15.705  18.744  0.00  0.00     0.753 A 
ATOM      7  N   UNL d   1     -41.385  15.710  18.719  0.00  0.00    -0.125 N 
ENDROOT
BRANCH   6   8
ATOM      8  N   UNL d   1     -38.601  15.831  19.274  0.00  0.00    -0.058 NA
BRANCH   8   9
ATOM      9  C   UNL d   1     -38.239  15.188  19.642  0.00  0.00     0.120 C 
BRANCH   9  10
ATOM     10  C   UNL d   1     -38.004  15.246  20.429  0.00  0.00     0.040 C 
BRANCH  10  11
ATOM     11  C   UNL d   1     -37.991  14.573  20.907  0.00  0.00     0.082 C 
BRANCH  11  12
ATOM     12  N   UNL d   1     -38.181  14.628  21.709  0.00  0.00    -0.299 N 
ATOM     13  C   UNL d   1     -38.165  15.366  22.078  0.00  0.00     0.107 A 
ATOM     14  C   UNL d   1     -38.353  15.425  22.878  0.00  0.00     0.142 A 
ATOM     15  O   UNL d   1     -38.557  14.749  23.305  0.00  0.00    -0.300 OA
ATOM     16  C   UNL d   1     -38.572  14.014  22.932  0.00  0.00     0.142 A 
ATOM     17  C   UNL d   1     -38.382  13.951  22.126  0.00  0.00     0.107 A 
ENDBRANCH  11  12
ENDBRANCH  10  11
ENDBRANCH   9  10
ENDBRANCH   8   9
ENDBRANCH   6   8
BRANCH   2  18
ATOM     18  N   UNL d   1     -39.497  15.196  16.636  0.00  0.00    -0.225 NA
BRANCH  18  19
ATOM     19  C   UNL d   1     -38.977  14.580  16.455  0.00  0.00     0.085 A 
ATOM     20  C   UNL d   1     -38.977  13.885  16.915  0.00  0.00     0.049 A 
ATOM     21  C   UNL d   1     -38.464  13.277  16.737  0.00  0.00     0.142 A 
ATOM     22  F   UNL d   1     -38.464  12.589  17.193  0.00  0.00    -0.204 F 
ATOM     23  C   UNL d   1     -37.940  13.348  16.099  0.00  0.00     0.030 A 
ATOM     24  C   UNL d   1     -37.940  14.036  15.644  0.00  0.00     0.004 A 
ATOM     25  C   UNL d   1     -38.459  14.651  15.823  0.00  0.00     0.019 A 
ENDBRANCH  18  19
ENDBRANCH   2  18
BRANCH   1  26
ATOM     26  N   UNL d   1     -41.072  15.327  17.145  0.00  0.00    -0.107 N 
ATOM     27  O   UNL d   1     -41.249  15.915  16.576  0.00  0.00    -0.531 OA
ATOM     28  O   UNL d   1     -41.516  14.617  17.174  0.00  0.00    -0.531 OA
ENDBRANCH   1  26
TORSDOF 8
ENDMDL
