MODEL 1
REMARK VINA RESULT:      -4.9      0.000      0.000
REMARK  5 active torsions:
REMARK  status: ('A' for Active; 'I' for Inactive)
REMARK    1  A    between atoms: C_10  and  N_2 
REMARK       I    between atoms: N_3  and  C_6 
REMARK    2  A    between atoms: C_6  and  C_14 
REMARK    3  A    between atoms: C_17  and  C_10 
REMARK    4  A    between atoms: O_13  and  C_12 
REMARK    5  A    between atoms: C_14  and  O_13 
ROOT
ATOM      1  C   UNL d   1     -43.695  11.932  22.213  0.00  0.00     0.265 A 
ATOM      2  N   UNL d   1     -43.471  12.508  21.653  0.00  0.00    -0.272 N 
ATOM      3  C   UNL d   1     -44.455  11.977  22.548  0.00  0.00     0.059 A 
ATOM      4  C   UNL d   1     -44.977  12.582  22.330  0.00  0.00     0.029 A 
ATOM      5  C   UNL d   1     -44.748  13.147  21.776  0.00  0.00     0.021 A 
ATOM      6  C   UNL d   1     -43.994  13.113  21.435  0.00  0.00     0.083 A 
ATOM      7  O   UNL d   1     -43.178  11.332  22.429  0.00  0.00    -0.267 OA
ATOM      8  C   UNL d   1     -45.734  12.624  22.667  0.00  0.00     0.100 A 
ATOM      9  C   UNL d   1     -44.681  11.404  23.107  0.00  0.00     0.005 A 
ATOM     10  C   UNL d   1     -45.441  11.449  23.443  0.00  0.00     0.002 A 
ATOM     11  C   UNL d   1     -45.966  12.057  23.223  0.00  0.00     0.025 A 
ENDROOT
BRANCH   8  12
ATOM     12  O   UNL d   1     -46.254  13.227  22.449  0.00  0.00    -0.300 OA
BRANCH  12  13
ATOM     13  C   UNL d   1     -47.053  13.018  22.147  0.00  0.00     0.184 C 
BRANCH  13  14
ATOM     14  C   UNL d   1     -47.635  13.695  22.375  0.00  0.00     0.290 C 
ATOM     15  N   UNL d   1     -48.401  13.668  22.121  0.00  0.00    -0.272 N 
ATOM     16  C   UNL d   1     -48.907  14.263  22.324  0.00  0.00     0.067 A 
ATOM     17  C   UNL d   1     -48.653  13.053  21.672  0.00  0.00     0.083 A 
ATOM     18  C   UNL d   1     -49.690  14.249  22.073  0.00  0.00     0.016 A 
ATOM     19  C   UNL d   1     -48.665  14.887  22.775  0.00  0.00     0.018 A 
ATOM     20  C   UNL d   1     -50.204  14.837  22.269  0.00  0.00     0.001 A 
ATOM     21  C   UNL d   1     -49.931  13.616  21.616  0.00  0.00     0.003 A 
ATOM     22  C   UNL d   1     -49.937  15.454  22.723  0.00  0.00     0.000 A 
ATOM     23  C   UNL d   1     -49.160  15.486  22.983  0.00  0.00     0.002 A 
ATOM     24  C   UNL d   1     -49.420  13.025  21.418  0.00  0.00     0.019 A 
ATOM     25  O   UNL d   1     -47.333  14.388  22.887  0.00  0.00    -0.264 OA
ENDBRANCH  13  14
ENDBRANCH  12  13
ENDBRANCH   8  12
BRANCH   2  26
ATOM     26  C   UNL d   1     -42.722  12.475  21.313  0.00  0.00     0.083 C 
BRANCH  26  27
ATOM     27  C   UNL d   1     -42.288  13.167  21.198  0.00  0.00     0.018 A 
ATOM     28  C   UNL d   1     -42.418  13.613  20.531  0.00  0.00     0.002 A 
ATOM     29  C   UNL d   1     -41.989  14.301  20.413  0.00  0.00     0.007 A 
ATOM     30  C   UNL d   1     -41.425  14.544  20.968  0.00  0.00     0.035 A 
ATOM     31  C   UNL d   1     -41.294  14.089  21.647  0.00  0.00     0.007 A 
ATOM     32 BR   UNL d   1     -40.989  15.235  20.857  0.00  0.00    -0.049 Br
ATOM     33  C   UNL d   1     -41.726  13.392  21.770  0.00  0.00     0.002 A 
ENDBRANCH  26  27
ENDBRANCH   2  26
TORSDOF 5
ENDMDL
MODEL 2
REMARK VINA RESULT:      -4.6      1.961      6.170
REMARK  5 active torsions:
REMARK  status: ('A' for Active; 'I' for Inactive)
REMARK    1  A    between atoms: C_10  and  N_2 
REMARK       I    between atoms: N_3  and  C_6 
REMARK    2  A    between atoms: C_6  and  C_14 
REMARK    3  A    between atoms: C_17  and  C_10 
REMARK    4  A    between atoms: O_13  and  C_12 
REMARK    5  A    between atoms: C_14  and  O_13 
ROOT
ATOM      1  C   UNL d   1     -45.185  11.984  22.900  0.00  0.00     0.265 A 
ATOM      2  N   UNL d   1     -45.684  12.592  22.624  0.00  0.00    -0.272 N 
ATOM      3  C   UNL d   1     -44.400  11.958  22.627  0.00  0.00     0.059 A 
ATOM      4  C   UNL d   1     -44.121  12.526  22.092  0.00  0.00     0.029 A 
ATOM      5  C   UNL d   1     -44.621  13.124  21.824  0.00  0.00     0.021 A 
ATOM      6  C   UNL d   1     -45.405  13.160  22.089  0.00  0.00     0.083 A 
ATOM      7  O   UNL d   1     -45.461  11.421  23.430  0.00  0.00    -0.267 OA
ATOM      8  C   UNL d   1     -43.337  12.498  21.821  0.00  0.00     0.100 A 
ATOM      9  C   UNL d   1     -43.899  11.353  22.900  0.00  0.00     0.005 A 
ATOM     10  C   UNL d   1     -43.114  11.327  22.627  0.00  0.00     0.002 A 
ATOM     11  C   UNL d   1     -42.834  11.898  22.089  0.00  0.00     0.025 A 
ENDROOT
BRANCH   8  12
ATOM     12  O   UNL d   1     -43.060  13.063  21.288  0.00  0.00    -0.300 OA
BRANCH  12  13
ATOM     13  C   UNL d   1     -42.309  13.487  21.462  0.00  0.00     0.184 C 
BRANCH  13  14
ATOM     14  C   UNL d   1     -41.916  13.720  20.662  0.00  0.00     0.290 C 
ATOM     15  N   UNL d   1     -41.373  14.317  20.640  0.00  0.00    -0.272 N 
ATOM     16  C   UNL d   1     -41.031  14.517  19.937  0.00  0.00     0.067 A 
ATOM     17  C   UNL d   1     -41.177  14.705  21.315  0.00  0.00     0.083 A 
ATOM     18  C   UNL d   1     -40.476  15.122  19.900  0.00  0.00     0.016 A 
ATOM     19  C   UNL d   1     -41.220  14.133  19.253  0.00  0.00     0.018 A 
ATOM     20  C   UNL d   1     -40.128  15.330  19.204  0.00  0.00     0.001 A 
ATOM     21  C   UNL d   1     -40.287  15.508  20.596  0.00  0.00     0.003 A 
ATOM     22  C   UNL d   1     -40.334  14.931  18.529  0.00  0.00     0.000 A 
ATOM     23  C   UNL d   1     -40.886  14.324  18.545  0.00  0.00     0.002 A 
ATOM     24  C   UNL d   1     -40.632  15.302  21.293  0.00  0.00     0.019 A 
ATOM     25  O   UNL d   1     -42.149  13.269  19.903  0.00  0.00    -0.264 OA
ENDBRANCH  13  14
ENDBRANCH  12  13
ENDBRANCH   8  12
BRANCH   2  26
ATOM     26  C   UNL d   1     -46.464  12.628  22.887  0.00  0.00     0.083 C 
BRANCH  26  27
ATOM     27  C   UNL d   1     -46.928  13.289  22.717  0.00  0.00     0.018 A 
ATOM     28  C   UNL d   1     -46.796  13.983  23.116  0.00  0.00     0.002 A 
ATOM     29  C   UNL d   1     -47.256  14.641  22.950  0.00  0.00     0.007 A 
ATOM     30  C   UNL d   1     -47.852  14.602  22.378  0.00  0.00     0.035 A 
ATOM     31  C   UNL d   1     -47.986  13.893  21.971  0.00  0.00     0.007 A 
ATOM     32 BR   UNL d   1     -48.319  15.260  22.205  0.00  0.00    -0.049 Br
ATOM     33  C   UNL d   1     -47.524  13.226  22.137  0.00  0.00     0.002 A 
ENDBRANCH  26  27
ENDBRANCH   2  26
TORSDOF 5
ENDMDL
MODEL 3
REMARK VINA RESULT:      -2.5      2.770      5.152
REMARK  5 active torsions:
REMARK  status: ('A' for Active; 'I' for Inactive)
REMARK    1  A    between atoms: C_10  and  N_2 
REMARK       I    between atoms: N_3  and  C_6 
REMARK    2  A    between atoms: C_6  and  C_14 
REMARK    3  A    between atoms: C_17  and  C_10 
REMARK    4  A    between atoms: O_13  and  C_12 
REMARK    5  A    between atoms: C_14  and  O_13 
ROOT
ATOM      1  C   UNL d   1     -39.455  14.873  20.127  0.00  0.00     0.265 A 
ATOM      2  N   UNL d   1     -39.815  15.055  19.398  0.00  0.00    -0.272 N 
ATOM      3  C   UNL d   1     -39.904  14.479  20.705  0.00  0.00     0.059 A 
ATOM      4  C   UNL d   1     -40.693  14.272  20.558  0.00  0.00     0.029 A 
ATOM      5  C   UNL d   1     -41.042  14.456  19.835  0.00  0.00     0.021 A 
ATOM      6  C   UNL d   1     -40.605  14.849  19.250  0.00  0.00     0.083 A 
ATOM      7  O   UNL d   1     -38.674  15.078  20.273  0.00  0.00    -0.267 OA
ATOM      8  C   UNL d   1     -41.139  13.879  21.137  0.00  0.00     0.100 A 
ATOM      9  C   UNL d   1     -39.548  14.295  21.434  0.00  0.00     0.005 A 
ATOM     10  C   UNL d   1     -39.997  13.901  22.012  0.00  0.00     0.002 A 
ATOM     11  C   UNL d   1     -40.790  13.693  21.864  0.00  0.00     0.025 A 
ENDROOT
BRANCH   8  12
ATOM     12  O   UNL d   1     -41.924  13.673  20.991  0.00  0.00    -0.300 OA
BRANCH  12  13
ATOM     13  C   UNL d   1     -42.245  12.929  21.330  0.00  0.00     0.184 C 
BRANCH  13  14
ATOM     14  C   UNL d   1     -43.138  13.057  21.516  0.00  0.00     0.290 C 
ATOM     15  N   UNL d   1     -43.537  12.515  21.962  0.00  0.00    -0.272 N 
ATOM     16  C   UNL d   1     -44.319  12.631  22.122  0.00  0.00     0.067 A 
ATOM     17  C   UNL d   1     -43.155  11.867  22.243  0.00  0.00     0.083 A 
ATOM     18  C   UNL d   1     -44.738  12.088  22.576  0.00  0.00     0.016 A 
ATOM     19  C   UNL d   1     -44.714  13.278  21.846  0.00  0.00     0.018 A 
ATOM     20  C   UNL d   1     -45.519  12.193  22.742  0.00  0.00     0.001 A 
ATOM     21  C   UNL d   1     -44.335  11.433  22.854  0.00  0.00     0.003 A 
ATOM     22  C   UNL d   1     -45.895  12.852  22.453  0.00  0.00     0.000 A 
ATOM     23  C   UNL d   1     -45.495  13.405  21.999  0.00  0.00     0.002 A 
ATOM     24  C   UNL d   1     -43.554  11.324  22.690  0.00  0.00     0.019 A 
ATOM     25  O   UNL d   1     -43.559  13.798  21.190  0.00  0.00    -0.264 OA
ENDBRANCH  13  14
ENDBRANCH  12  13
ENDBRANCH   8  12
BRANCH   2  26
ATOM     26  C   UNL d   1     -39.382  15.446  18.816  0.00  0.00     0.083 C 
BRANCH  26  27
ATOM     27  C   UNL d   1     -39.229  15.076  18.095  0.00  0.00     0.018 A 
ATOM     28  C   UNL d   1     -39.732  15.198  17.470  0.00  0.00     0.002 A 
ATOM     29  C   UNL d   1     -39.584  14.832  16.751  0.00  0.00     0.007 A 
ATOM     30  C   UNL d   1     -38.924  14.341  16.660  0.00  0.00     0.035 A 
ATOM     31  C   UNL d   1     -38.411  14.218  17.298  0.00  0.00     0.007 A 
ATOM     32 BR   UNL d   1     -38.767  13.969  15.940  0.00  0.00    -0.049 Br
ATOM     33  C   UNL d   1     -38.558  14.586  18.026  0.00  0.00     0.002 A 
ENDBRANCH  26  27
ENDBRANCH   2  26
TORSDOF 5
ENDMDL
MODEL 4
REMARK VINA RESULT:      -2.1      1.481      2.409
REMARK  5 active torsions:
REMARK  status: ('A' for Active; 'I' for Inactive)
REMARK    1  A    between atoms: C_10  and  N_2 
REMARK       I    between atoms: N_3  and  C_6 
REMARK    2  A    between atoms: C_6  and  C_14 
REMARK    3  A    between atoms: C_17  and  C_10 
REMARK    4  A    between atoms: O_13  and  C_12 
REMARK    5  A    between atoms: C_14  and  O_13 
ROOT
ATOM      1  C   UNL d   1     -41.569  13.389  21.305  0.00  0.00     0.265 A 
ATOM      2  N   UNL d   1     -41.638  14.177  21.041  0.00  0.00    -0.272 N 
ATOM      3  C   UNL d   1     -42.255  12.993  21.560  0.00  0.00     0.059 A 
ATOM      4  C   UNL d   1     -42.990  13.375  21.550  0.00  0.00     0.029 A 
ATOM      5  C   UNL d   1     -43.049  14.154  21.288  0.00  0.00     0.021 A 
ATOM      6  C   UNL d   1     -42.373  14.559  21.032  0.00  0.00     0.083 A 
ATOM      7  O   UNL d   1     -40.841  13.011  21.315  0.00  0.00    -0.267 OA
ATOM      8  C   UNL d   1     -43.672  12.977  21.805  0.00  0.00     0.100 A 
ATOM      9  C   UNL d   1     -42.190  12.207  21.824  0.00  0.00     0.005 A 
ATOM     10  C   UNL d   1     -42.875  11.811  22.078  0.00  0.00     0.002 A 
ATOM     11  C   UNL d   1     -43.614  12.195  22.068  0.00  0.00     0.025 A 
ENDROOT
BRANCH   8  12
ATOM     12  O   UNL d   1     -44.405  13.357  21.795  0.00  0.00    -0.300 OA
BRANCH  12  13
ATOM     13  C   UNL d   1     -45.103  12.956  22.146  0.00  0.00     0.184 C 
BRANCH  13  14
ATOM     14  C   UNL d   1     -45.775  13.578  22.248  0.00  0.00     0.290 C 
ATOM     15  N   UNL d   1     -46.509  13.341  22.485  0.00  0.00    -0.272 N 
ATOM     16  C   UNL d   1     -47.094  13.890  22.573  0.00  0.00     0.067 A 
ATOM     17  C   UNL d   1     -46.652  12.565  22.631  0.00  0.00     0.083 A 
ATOM     18  C   UNL d   1     -47.847  13.663  22.814  0.00  0.00     0.016 A 
ATOM     19  C   UNL d   1     -46.962  14.673  22.429  0.00  0.00     0.018 A 
ATOM     20  C   UNL d   1     -48.438  14.202  22.905  0.00  0.00     0.001 A 
ATOM     21  C   UNL d   1     -47.976  12.869  22.958  0.00  0.00     0.003 A 
ATOM     22  C   UNL d   1     -48.282  14.984  22.755  0.00  0.00     0.000 A 
ATOM     23  C   UNL d   1     -47.537  15.230  22.514  0.00  0.00     0.002 A 
ATOM     24  C   UNL d   1     -47.388  12.327  22.868  0.00  0.00     0.019 A 
ATOM     25  O   UNL d   1     -45.597  14.457  22.078  0.00  0.00    -0.264 OA
ENDBRANCH  13  14
ENDBRANCH  12  13
ENDBRANCH   8  12
BRANCH   2  26
ATOM     26  C   UNL d   1     -40.966  14.580  20.787  0.00  0.00     0.083 C 
BRANCH  26  27
ATOM     27  C   UNL d   1     -40.918  14.858  20.011  0.00  0.00     0.018 A 
ATOM     28  C   UNL d   1     -41.059  15.643  19.859  0.00  0.00     0.002 A 
ATOM     29  C   UNL d   1     -41.012  15.922  19.089  0.00  0.00     0.007 A 
ATOM     30  C   UNL d   1     -40.823  15.408  18.468  0.00  0.00     0.035 A 
ATOM     31  C   UNL d   1     -40.680  14.609  18.625  0.00  0.00     0.007 A 
ATOM     32 BR   UNL d   1     -40.773  15.681  17.691  0.00  0.00    -0.049 Br
ATOM     33  C   UNL d   1     -40.726  14.322  19.402  0.00  0.00     0.002 A 
ENDBRANCH  26  27
ENDBRANCH   2  26
TORSDOF 5
ENDMDL
