MODEL 1
REMARK VINA RESULT:      -8.1      0.000      0.000
REMARK  5 active torsions:
REMARK  status: ('A' for Active; 'I' for Inactive)
REMARK    1  A    between atoms: C_2  and  C_3 
REMARK    2  A    between atoms: S_14  and  C_6 
REMARK    3  A    between atoms: C_7  and  N_12 
REMARK       I    between atoms: N_12  and  C_13 
REMARK    4  A    between atoms: C_13  and  C_20 
REMARK    5  A    between atoms: C_20  and  S_14 
ROOT
ATOM      1  N   UNL d   1     -49.204  13.366  22.823  0.00  0.00    -0.208 NA
ATOM      2  C   UNL d   1     -48.462  13.668  23.029  0.00  0.00     0.286 C 
ATOM      3  O   UNL d   1     -48.348  14.489  23.026  0.00  0.00    -0.265 OA
ENDROOT
BRANCH   2   4
ATOM      4  C   UNL d   1     -47.858  13.162  23.230  0.00  0.00     0.099 C 
BRANCH   4   5
ATOM      5  S   UNL d   1     -47.096  13.293  22.951  0.00  0.00    -0.061 SA
BRANCH   5   6
ATOM      6  C   UNL d   1     -46.504  12.731  23.071  0.00  0.00     0.133 A 
ATOM      7  C   UNL d   1     -45.780  12.806  22.679  0.00  0.00     0.143 A 
ATOM      8  C   UNL d   1     -45.188  12.243  22.799  0.00  0.00     0.185 A 
ATOM      9  N   UNL d   1     -45.496  13.370  22.146  0.00  0.00    -0.219 NA
ATOM     10  N   UNL d   1     -44.544  12.465  22.340  0.00  0.00    -0.203 NA
ATOM     11  N   UNL d   1     -45.316  11.610  23.307  0.00  0.00    -0.203 NA
ATOM     12  C   UNL d   1     -44.734  13.157  21.940  0.00  0.00     0.201 A 
ATOM     13  C   UNL d   1     -46.033  11.534  23.697  0.00  0.00     0.201 A 
ATOM     14  N   UNL d   1     -46.633  12.091  23.584  0.00  0.00    -0.216 NA
ENDBRANCH   5   6
ENDBRANCH   4   5
ENDBRANCH   2   4
BRANCH   1  15
ATOM     15  C   UNL d   1     -49.826  13.875  22.617  0.00  0.00     0.088 A 
ATOM     16  C   UNL d   1     -50.425  13.611  22.122  0.00  0.00     0.089 A 
ATOM     17  C   UNL d   1     -51.039  14.120  21.921  0.00  0.00     0.005 A 
ATOM     18  C   UNL d   1     -51.054  14.891  22.213  0.00  0.00     0.000 A 
ATOM     19  C   UNL d   1     -50.451  15.155  22.711  0.00  0.00     0.002 A 
ATOM     20  C   UNL d   1     -49.832  14.643  22.914  0.00  0.00     0.019 A 
BRANCH  16  21
ATOM     21  C   UNL d   1     -50.413  12.839  21.827  0.00  0.00     0.420 C 
ATOM     22  F   UNL d   1     -50.400  12.136  21.553  0.00  0.00    -0.166 F 
ATOM     23  F   UNL d   1     -50.734  12.120  22.167  0.00  0.00    -0.166 F 
ATOM     24  F   UNL d   1     -50.074  12.551  21.094  0.00  0.00    -0.166 F 
ENDBRANCH  16  21
ENDBRANCH   1  15
TORSDOF 5
ENDMDL
MODEL 2
REMARK VINA RESULT:      -7.6      2.151      4.813
REMARK  5 active torsions:
REMARK  status: ('A' for Active; 'I' for Inactive)
REMARK    1  A    between atoms: C_2  and  C_3 
REMARK    2  A    between atoms: S_14  and  C_6 
REMARK    3  A    between atoms: C_7  and  N_12 
REMARK       I    between atoms: N_12  and  C_13 
REMARK    4  A    between atoms: C_13  and  C_20 
REMARK    5  A    between atoms: C_20  and  S_14 
ROOT
ATOM      1  N   UNL d   1     -47.627  12.498  22.674  0.00  0.00    -0.208 NA
ATOM      2  C   UNL d   1     -48.420  12.362  22.866  0.00  0.00     0.286 C 
ATOM      3  O   UNL d   1     -48.607  11.743  23.386  0.00  0.00    -0.265 OA
ENDROOT
BRANCH   2   4
ATOM      4  C   UNL d   1     -49.004  12.830  22.547  0.00  0.00     0.099 C 
BRANCH   4   5
ATOM      5  S   UNL d   1     -49.311  13.460  22.974  0.00  0.00    -0.061 SA
BRANCH   5   6
ATOM      6  C   UNL d   1     -49.888  13.948  22.643  0.00  0.00     0.133 A 
ATOM      7  C   UNL d   1     -50.042  14.690  22.976  0.00  0.00     0.143 A 
ATOM      8  C   UNL d   1     -50.619  15.178  22.645  0.00  0.00     0.185 A 
ATOM      9  N   UNL d   1     -49.714  15.082  23.626  0.00  0.00    -0.219 NA
ATOM     10  N   UNL d   1     -50.642  15.866  23.092  0.00  0.00    -0.203 NA
ATOM     11  N   UNL d   1     -51.041  14.929  21.985  0.00  0.00    -0.203 NA
ATOM     12  C   UNL d   1     -50.086  15.806  23.694  0.00  0.00     0.201 A 
ATOM     13  C   UNL d   1     -50.891  14.195  21.652  0.00  0.00     0.201 A 
ATOM     14  N   UNL d   1     -50.316  13.698  21.976  0.00  0.00    -0.216 NA
ENDBRANCH   5   6
ENDBRANCH   4   5
ENDBRANCH   2   4
BRANCH   1  15
ATOM     15  C   UNL d   1     -47.027  12.025  22.996  0.00  0.00     0.088 A 
ATOM     16  C   UNL d   1     -46.246  12.279  22.968  0.00  0.00     0.089 A 
ATOM     17  C   UNL d   1     -45.655  11.806  23.288  0.00  0.00     0.005 A 
ATOM     18  C   UNL d   1     -45.842  11.082  23.635  0.00  0.00     0.000 A 
ATOM     19  C   UNL d   1     -46.627  10.828  23.662  0.00  0.00     0.002 A 
ATOM     20  C   UNL d   1     -47.223  11.304  23.339  0.00  0.00     0.019 A 
BRANCH  16  21
ATOM     21  C   UNL d   1     -46.055  13.005  22.621  0.00  0.00     0.420 C 
ATOM     22  F   UNL d   1     -45.880  13.669  22.310  0.00  0.00    -0.166 F 
ATOM     23  F   UNL d   1     -45.942  13.201  21.794  0.00  0.00    -0.166 F 
ATOM     24  F   UNL d   1     -45.916  13.760  23.002  0.00  0.00    -0.166 F 
ENDBRANCH  16  21
ENDBRANCH   1  15
TORSDOF 5
ENDMDL
MODEL 3
REMARK VINA RESULT:      -7.2      1.504      2.053
REMARK  5 active torsions:
REMARK  status: ('A' for Active; 'I' for Inactive)
REMARK    1  A    between atoms: C_2  and  C_3 
REMARK    2  A    between atoms: S_14  and  C_6 
REMARK    3  A    between atoms: C_7  and  N_12 
REMARK       I    between atoms: N_12  and  C_13 
REMARK    4  A    between atoms: C_13  and  C_20 
REMARK    5  A    between atoms: C_20  and  S_14 
ROOT
ATOM      1  N   UNL d   1     -48.717  13.380  22.865  0.00  0.00    -0.208 NA
ATOM      2  C   UNL d   1     -48.109  12.906  23.163  0.00  0.00     0.286 C 
ATOM      3  O   UNL d   1     -48.297  12.301  23.698  0.00  0.00    -0.265 OA
ENDROOT
BRANCH   2   4
ATOM      4  C   UNL d   1     -47.340  13.034  22.932  0.00  0.00     0.099 C 
BRANCH   4   5
ATOM      5  S   UNL d   1     -46.737  12.549  23.206  0.00  0.00    -0.061 SA
BRANCH   5   6
ATOM      6  C   UNL d   1     -45.985  12.583  22.866  0.00  0.00     0.133 A 
ATOM      7  C   UNL d   1     -45.440  11.978  23.011  0.00  0.00     0.143 A 
ATOM      8  C   UNL d   1     -44.688  12.012  22.672  0.00  0.00     0.185 A 
ATOM      9  N   UNL d   1     -45.489  11.287  23.462  0.00  0.00    -0.219 NA
ATOM     10  N   UNL d   1     -44.280  11.343  22.915  0.00  0.00    -0.203 NA
ATOM     11  N   UNL d   1     -44.481  12.645  22.190  0.00  0.00    -0.203 NA
ATOM     12  C   UNL d   1     -44.772  10.898  23.400  0.00  0.00     0.201 A 
ATOM     13  C   UNL d   1     -45.019  13.246  22.045  0.00  0.00     0.201 A 
ATOM     14  N   UNL d   1     -45.774  13.223  22.380  0.00  0.00    -0.216 NA
ENDBRANCH   5   6
ENDBRANCH   4   5
ENDBRANCH   2   4
BRANCH   1  15
ATOM     15  C   UNL d   1     -49.503  13.255  23.096  0.00  0.00     0.088 A 
ATOM     16  C   UNL d   1     -50.019  13.891  23.156  0.00  0.00     0.089 A 
ATOM     17  C   UNL d   1     -50.798  13.761  23.385  0.00  0.00     0.005 A 
ATOM     18  C   UNL d   1     -51.062  12.998  23.554  0.00  0.00     0.000 A 
ATOM     19  C   UNL d   1     -50.542  12.360  23.493  0.00  0.00     0.002 A 
ATOM     20  C   UNL d   1     -49.757  12.490  23.262  0.00  0.00     0.019 A 
BRANCH  16  21
ATOM     21  C   UNL d   1     -49.759  14.658  22.987  0.00  0.00     0.420 C 
ATOM     22  F   UNL d   1     -49.521  15.357  22.839  0.00  0.00    -0.166 F 
ATOM     23  F   UNL d   1     -49.723  15.068  22.235  0.00  0.00    -0.166 F 
ATOM     24  F   UNL d   1     -49.454  15.250  23.527  0.00  0.00    -0.166 F 
ENDBRANCH  16  21
ENDBRANCH   1  15
TORSDOF 5
ENDMDL
MODEL 4
REMARK VINA RESULT:      -5.9      1.918      4.697
REMARK  5 active torsions:
REMARK  status: ('A' for Active; 'I' for Inactive)
REMARK    1  A    between atoms: C_2  and  C_3 
REMARK    2  A    between atoms: S_14  and  C_6 
REMARK    3  A    between atoms: C_7  and  N_12 
REMARK       I    between atoms: N_12  and  C_13 
REMARK    4  A    between atoms: C_13  and  C_20 
REMARK    5  A    between atoms: C_20  and  S_14 
ROOT
ATOM      1  N   UNL d   1     -46.909  13.280  22.761  0.00  0.00    -0.208 NA
ATOM      2  C   UNL d   1     -47.132  14.076  22.783  0.00  0.00     0.286 C 
ATOM      3  O   UNL d   1     -46.572  14.656  22.588  0.00  0.00    -0.265 OA
ENDROOT
BRANCH   2   4
ATOM      4  C   UNL d   1     -47.891  14.282  22.992  0.00  0.00     0.099 C 
BRANCH   4   5
ATOM      5  S   UNL d   1     -48.362  14.713  22.476  0.00  0.00    -0.061 SA
BRANCH   5   6
ATOM      6  C   UNL d   1     -49.107  14.979  22.712  0.00  0.00     0.133 A 
ATOM      7  C   UNL d   1     -49.775  14.781  22.266  0.00  0.00     0.143 A 
ATOM      8  C   UNL d   1     -50.520  15.047  22.503  0.00  0.00     0.185 A 
ATOM      9  N   UNL d   1     -49.867  14.338  21.575  0.00  0.00    -0.219 NA
ATOM     10  N   UNL d   1     -51.064  14.765  21.956  0.00  0.00    -0.203 NA
ATOM     11  N   UNL d   1     -50.599  15.507  23.180  0.00  0.00    -0.203 NA
ATOM     12  C   UNL d   1     -50.662  14.330  21.387  0.00  0.00     0.201 A 
ATOM     13  C   UNL d   1     -49.939  15.703  23.624  0.00  0.00     0.201 A 
ATOM     14  N   UNL d   1     -49.188  15.443  23.396  0.00  0.00    -0.216 NA
ENDBRANCH   5   6
ENDBRANCH   4   5
ENDBRANCH   2   4
BRANCH   1  15
ATOM     15  C   UNL d   1     -46.137  13.063  22.549  0.00  0.00     0.088 A 
ATOM     16  C   UNL d   1     -45.885  12.289  22.655  0.00  0.00     0.089 A 
ATOM     17  C   UNL d   1     -45.119  12.079  22.443  0.00  0.00     0.005 A 
ATOM     18  C   UNL d   1     -44.605  12.640  22.125  0.00  0.00     0.000 A 
ATOM     19  C   UNL d   1     -44.860  13.419  22.019  0.00  0.00     0.002 A 
ATOM     20  C   UNL d   1     -45.632  13.630  22.233  0.00  0.00     0.019 A 
BRANCH  16  21
ATOM     21  C   UNL d   1     -46.397  11.723  22.973  0.00  0.00     0.420 C 
ATOM     22  F   UNL d   1     -46.867  11.207  23.259  0.00  0.00    -0.166 F 
ATOM     23  F   UNL d   1     -46.325  11.267  23.696  0.00  0.00    -0.166 F 
ATOM     24  F   UNL d   1     -47.143  11.439  22.660  0.00  0.00    -0.166 F 
ENDBRANCH  16  21
ENDBRANCH   1  15
TORSDOF 5
ENDMDL
MODEL 5
REMARK VINA RESULT:      -5.8      9.176      9.586
REMARK  5 active torsions:
REMARK  status: ('A' for Active; 'I' for Inactive)
REMARK    1  A    between atoms: C_2  and  C_3 
REMARK    2  A    between atoms: S_14  and  C_6 
REMARK    3  A    between atoms: C_7  and  N_12 
REMARK       I    between atoms: N_12  and  C_13 
REMARK    4  A    between atoms: C_13  and  C_20 
REMARK    5  A    between atoms: C_20  and  S_14 
ROOT
ATOM      1  N   UNL d   1     -39.668  14.362  19.051  0.00  0.00    -0.208 NA
ATOM      2  C   UNL d   1     -39.931  14.585  19.803  0.00  0.00     0.286 C 
ATOM      3  O   UNL d   1     -40.567  15.113  19.865  0.00  0.00    -0.265 OA
ENDROOT
BRANCH   2   4
ATOM      4  C   UNL d   1     -39.567  14.290  20.467  0.00  0.00     0.099 C 
BRANCH   4   5
ATOM      5  S   UNL d   1     -39.577  14.714  21.170  0.00  0.00    -0.061 SA
BRANCH   5   6
ATOM      6  C   UNL d   1     -39.209  14.413  21.845  0.00  0.00     0.133 A 
ATOM      7  C   UNL d   1     -39.041  14.915  22.481  0.00  0.00     0.143 A 
ATOM      8  C   UNL d   1     -38.673  14.615  23.156  0.00  0.00     0.185 A 
ATOM      9  N   UNL d   1     -39.174  15.723  22.597  0.00  0.00    -0.219 NA
ATOM     10  N   UNL d   1     -38.582  15.239  23.682  0.00  0.00    -0.203 NA
ATOM     11  N   UNL d   1     -38.474  13.819  23.198  0.00  0.00    -0.203 NA
ATOM     12  C   UNL d   1     -38.889  15.918  23.338  0.00  0.00     0.201 A 
ATOM     13  C   UNL d   1     -38.639  13.319  22.570  0.00  0.00     0.201 A 
ATOM     14  N   UNL d   1     -39.007  13.608  21.889  0.00  0.00    -0.216 NA
ENDBRANCH   5   6
ENDBRANCH   4   5
ENDBRANCH   2   4
BRANCH   1  15
ATOM     15  C   UNL d   1     -40.034  14.659  18.369  0.00  0.00     0.088 A 
ATOM     16  C   UNL d   1     -39.843  14.350  17.633  0.00  0.00     0.089 A 
ATOM     17  C   UNL d   1     -40.209  14.649  16.960  0.00  0.00     0.005 A 
ATOM     18  C   UNL d   1     -40.765  15.255  17.021  0.00  0.00     0.000 A 
ATOM     19  C   UNL d   1     -40.957  15.564  17.763  0.00  0.00     0.002 A 
ATOM     20  C   UNL d   1     -40.588  15.263  18.441  0.00  0.00     0.019 A 
BRANCH  16  21
ATOM     21  C   UNL d   1     -39.286  13.743  17.567  0.00  0.00     0.420 C 
ATOM     22  F   UNL d   1     -38.782  13.185  17.507  0.00  0.00    -0.166 F 
ATOM     23  F   UNL d   1     -38.438  13.791  17.445  0.00  0.00    -0.166 F 
ATOM     24  F   UNL d   1     -39.411  12.895  17.603  0.00  0.00    -0.166 F 
ENDBRANCH  16  21
ENDBRANCH   1  15
TORSDOF 5
ENDMDL
MODEL 6
REMARK VINA RESULT:      -5.5      8.534     10.541
REMARK  5 active torsions:
REMARK  status: ('A' for Active; 'I' for Inactive)
REMARK    1  A    between atoms: C_2  and  C_3 
REMARK    2  A    between atoms: S_14  and  C_6 
REMARK    3  A    between atoms: C_7  and  N_12 
REMARK       I    between atoms: N_12  and  C_13 
REMARK    4  A    between atoms: C_13  and  C_20 
REMARK    5  A    between atoms: C_20  and  S_14 
ROOT
ATOM      1  N   UNL d   1     -39.288  14.491  17.627  0.00  0.00    -0.208 NA
ATOM      2  C   UNL d   1     -39.601  15.226  17.843  0.00  0.00     0.286 C 
ATOM      3  O   UNL d   1     -39.470  15.879  17.348  0.00  0.00    -0.265 OA
ENDROOT
BRANCH   2   4
ATOM      4  C   UNL d   1     -40.029  15.302  18.530  0.00  0.00     0.099 C 
BRANCH   4   5
ATOM      5  S   UNL d   1     -39.709  15.691  19.178  0.00  0.00    -0.061 SA
BRANCH   5   6
ATOM      6  C   UNL d   1     -40.119  15.717  19.895  0.00  0.00     0.133 A 
ATOM      7  C   UNL d   1     -39.702  15.795  20.605  0.00  0.00     0.143 A 
ATOM      8  C   UNL d   1     -40.111  15.820  21.321  0.00  0.00     0.185 A 
ATOM      9  N   UNL d   1     -38.894  15.858  20.767  0.00  0.00    -0.219 NA
ATOM     10  N   UNL d   1     -39.553  15.899  21.918  0.00  0.00    -0.203 NA
ATOM     11  N   UNL d   1     -40.932  15.769  21.330  0.00  0.00    -0.203 NA
ATOM     12  C   UNL d   1     -38.806  15.922  21.577  0.00  0.00     0.201 A 
ATOM     13  C   UNL d   1     -41.347  15.691  20.628  0.00  0.00     0.201 A 
ATOM     14  N   UNL d   1     -40.948  15.665  19.905  0.00  0.00    -0.216 NA
ENDBRANCH   5   6
ENDBRANCH   4   5
ENDBRANCH   2   4
BRANCH   1  15
ATOM     15  C   UNL d   1     -38.850  14.406  16.928  0.00  0.00     0.088 A 
ATOM     16  C   UNL d   1     -38.507  13.683  16.745  0.00  0.00     0.089 A 
ATOM     17  C   UNL d   1     -38.074  13.604  16.051  0.00  0.00     0.005 A 
ATOM     18  C   UNL d   1     -37.983  14.246  15.540  0.00  0.00     0.000 A 
ATOM     19  C   UNL d   1     -38.329  14.973  15.726  0.00  0.00     0.002 A 
ATOM     20  C   UNL d   1     -38.765  15.052  16.426  0.00  0.00     0.019 A 
BRANCH  16  21
ATOM     21  C   UNL d   1     -38.595  13.038  17.254  0.00  0.00     0.420 C 
ATOM     22  F   UNL d   1     -38.671  12.450  17.720  0.00  0.00    -0.166 F 
ATOM     23  F   UNL d   1     -39.241  12.477  17.317  0.00  0.00    -0.166 F 
ATOM     24  F   UNL d   1     -38.057  12.756  17.859  0.00  0.00    -0.166 F 
ENDBRANCH  16  21
ENDBRANCH   1  15
TORSDOF 5
ENDMDL
