MODEL 1
REMARK VINA RESULT:      91.2      0.000      0.000
REMARK  6 active torsions:
REMARK  status: ('A' for Active; 'I' for Inactive)
REMARK    1  A    between atoms: C_8  and  C_1 
REMARK    2  A    between atoms: C_13  and  N_2 
REMARK    3  A    between atoms: C_7  and  C_4 
REMARK    4  A    between atoms: C_6  and  C_8 
REMARK    5  A    between atoms: C_22  and  C_13 
REMARK    6  A    between atoms: N_18  and  C_22 
ROOT
ATOM      1  C   UNL d   1     -51.430  25.476  33.457  0.00  0.00     0.103 A 
ATOM      2  N   UNL d   1     -50.899  26.702  33.370  0.00  0.00    -0.267 N 
ATOM      3  C   UNL d   1     -52.053  26.019  33.416  0.00  0.00     0.256 A 
ATOM      4  C   UNL d   1     -50.724  25.898  33.429  0.00  0.00     0.096 A 
ATOM      5  C   UNL d   1     -51.725  26.776  33.363  0.00  0.00     0.304 A 
ATOM      6  O   UNL d   1     -52.149  27.485  33.310  0.00  0.00    -0.263 OA
ATOM      7  O   UNL d   1     -52.857  25.849  33.427  0.00  0.00    -0.281 OA
ENDROOT
BRANCH   1   8
ATOM      8  C   UNL d   1     -51.511  24.658  33.516  0.00  0.00     0.223 C 
ATOM      9  O   UNL d   1     -50.878  24.165  33.308  0.00  0.00    -0.284 OA
BRANCH   8  10
ATOM     10  C   UNL d   1     -52.220  24.325  33.782  0.00  0.00     0.139 A 
ATOM     11  O   UNL d   1     -52.442  24.220  34.571  0.00  0.00    -0.304 OA
ATOM     12  C   UNL d   1     -53.184  23.873  34.582  0.00  0.00     0.100 A 
ATOM     13  C   UNL d   1     -53.675  23.641  35.179  0.00  0.00     0.025 A 
ATOM     14  C   UNL d   1     -53.424  23.762  33.799  0.00  0.00     0.025 A 
ATOM     15  C   UNL d   1     -54.399  23.303  35.026  0.00  0.00     0.002 A 
ATOM     16  C   UNL d   1     -54.642  23.191  34.247  0.00  0.00     0.000 A 
ATOM     17  C   UNL d   1     -54.145  23.425  33.639  0.00  0.00     0.002 A 
ATOM     18  C   UNL d   1     -52.822  24.045  33.307  0.00  0.00     0.030 A 
ENDBRANCH   8  10
ENDBRANCH   1   8
BRANCH   4  19
ATOM     19  C   UNL d   1     -49.961  25.567  33.454  0.00  0.00     0.116 A 
ATOM     20  O   UNL d   1     -49.221  25.910  33.416  0.00  0.00    -0.306 OA
ATOM     21  C   UNL d   1     -48.662  25.317  33.469  0.00  0.00     0.100 A 
ATOM     22  C   UNL d   1     -47.845  25.429  33.452  0.00  0.00     0.027 C 
ATOM     23  C   UNL d   1     -49.058  24.596  33.540  0.00  0.00     0.027 A 
ATOM     24  C   UNL d   1     -49.863  24.751  33.531  0.00  0.00     0.028 A 
ENDBRANCH   4  19
BRANCH   2  25
ATOM     25  C   UNL d   1     -50.361  27.315  33.327  0.00  0.00     0.102 C 
BRANCH  25  26
ATOM     26  C   UNL d   1     -50.476  27.999  33.773  0.00  0.00     0.100 C 
BRANCH  26  27
ATOM     27  N   UNL d   1     -49.828  28.443  34.025  0.00  0.00    -0.298 N 
ATOM     28  C   UNL d   1     -49.114  28.390  33.627  0.00  0.00     0.107 A 
ATOM     29  C   UNL d   1     -48.463  28.831  33.873  0.00  0.00     0.142 A 
ATOM     30  O   UNL d   1     -48.530  29.328  34.521  0.00  0.00    -0.300 OA
ATOM     31  C   UNL d   1     -49.246  29.388  34.928  0.00  0.00     0.142 A 
ATOM     32  C   UNL d   1     -49.897  28.941  34.674  0.00  0.00     0.107 A 
ENDBRANCH  26  27
ENDBRANCH  25  26
ENDBRANCH   2  25
TORSDOF 6
ENDMDL
MODEL 2
REMARK VINA RESULT:      91.9      2.566      4.836
REMARK  6 active torsions:
REMARK  status: ('A' for Active; 'I' for Inactive)
REMARK    1  A    between atoms: C_8  and  C_1 
REMARK    2  A    between atoms: C_13  and  N_2 
REMARK    3  A    between atoms: C_7  and  C_4 
REMARK    4  A    between atoms: C_6  and  C_8 
REMARK    5  A    between atoms: C_22  and  C_13 
REMARK    6  A    between atoms: N_18  and  C_22 
ROOT
ATOM      1  C   UNL d   1     -48.806  29.089  34.770  0.00  0.00     0.103 A 
ATOM      2  N   UNL d   1     -48.382  30.325  34.478  0.00  0.00    -0.267 N 
ATOM      3  C   UNL d   1     -49.261  29.370  34.139  0.00  0.00     0.256 A 
ATOM      4  C   UNL d   1     -48.268  29.677  34.976  0.00  0.00     0.096 A 
ATOM      5  C   UNL d   1     -48.999  30.134  33.959  0.00  0.00     0.304 A 
ATOM      6  O   UNL d   1     -49.301  30.621  33.363  0.00  0.00    -0.263 OA
ATOM      7  O   UNL d   1     -49.867  28.972  33.752  0.00  0.00    -0.281 OA
ENDROOT
BRANCH   1   8
ATOM      8  C   UNL d   1     -48.884  28.349  35.125  0.00  0.00     0.223 C 
ATOM      9  O   UNL d   1     -48.577  28.222  35.885  0.00  0.00    -0.284 OA
BRANCH   8  10
ATOM     10  C   UNL d   1     -49.267  27.733  34.728  0.00  0.00     0.139 A 
ATOM     11  O   UNL d   1     -50.083  27.599  34.710  0.00  0.00    -0.304 OA
ATOM     12  C   UNL d   1     -50.220  26.933  34.255  0.00  0.00     0.100 A 
ATOM     13  C   UNL d   1     -50.893  26.540  34.042  0.00  0.00     0.025 A 
ATOM     14  C   UNL d   1     -49.490  26.651  33.989  0.00  0.00     0.025 A 
ATOM     15  C   UNL d   1     -50.866  25.876  33.573  0.00  0.00     0.002 A 
ATOM     16  C   UNL d   1     -50.140  25.592  33.306  0.00  0.00     0.000 A 
ATOM     17  C   UNL d   1     -49.456  25.989  33.521  0.00  0.00     0.002 A 
ATOM     18  C   UNL d   1     -48.902  27.153  34.286  0.00  0.00     0.030 A 
ENDBRANCH   8  10
ENDBRANCH   1   8
BRANCH   4  19
ATOM     19  C   UNL d   1     -47.704  29.625  35.586  0.00  0.00     0.116 A 
ATOM     20  O   UNL d   1     -47.728  29.861  36.366  0.00  0.00    -0.306 OA
ATOM     21  C   UNL d   1     -47.012  29.672  36.712  0.00  0.00     0.100 A 
ATOM     22  C   UNL d   1     -46.809  29.818  37.498  0.00  0.00     0.027 C 
ATOM     23  C   UNL d   1     -46.537  29.313  36.140  0.00  0.00     0.027 A 
ATOM     24  C   UNL d   1     -46.965  29.284  35.442  0.00  0.00     0.028 A 
ENDBRANCH   4  19
BRANCH   2  25
ATOM     25  C   UNL d   1     -47.966  31.028  34.493  0.00  0.00     0.102 C 
BRANCH  25  26
ATOM     26  C   UNL d   1     -48.366  31.747  34.440  0.00  0.00     0.100 C 
BRANCH  26  27
ATOM     27  N   UNL d   1     -48.013  32.391  34.064  0.00  0.00    -0.298 N 
ATOM     28  C   UNL d   1     -48.477  32.957  33.695  0.00  0.00     0.107 A 
ATOM     29  C   UNL d   1     -48.130  33.602  33.318  0.00  0.00     0.142 A 
ATOM     30  O   UNL d   1     -47.314  33.680  33.312  0.00  0.00    -0.300 OA
ATOM     31  C   UNL d   1     -46.839  33.114  33.682  0.00  0.00     0.142 A 
ATOM     32  C   UNL d   1     -47.196  32.467  34.059  0.00  0.00     0.107 A 
ENDBRANCH  26  27
ENDBRANCH  25  26
ENDBRANCH   2  25
TORSDOF 6
ENDMDL
