MODEL 1
REMARK VINA RESULT:      40.0      0.000      0.000
REMARK  2 active torsions:
REMARK  status: ('A' for Active; 'I' for Inactive)
REMARK    1  A    between atoms: N_5  and  C_1 
REMARK    2  A    between atoms: C_8  and  C_4 
ROOT
ATOM      1  C   UNL d   1     -51.334  25.528  33.509  0.00  0.00     0.166 A 
ATOM      2  N   UNL d   1     -51.645  26.274  33.524  0.00  0.00    -0.225 NA
ATOM      3  N   UNL d   1     -50.047  26.123  33.355  0.00  0.00    -0.241 NA
ATOM      4  C   UNL d   1     -50.520  25.451  33.423  0.00  0.00     0.116 A 
ATOM      5  C   UNL d   1     -51.205  26.951  33.460  0.00  0.00     0.101 A 
ATOM      6  C   UNL d   1     -50.391  26.874  33.374  0.00  0.00     0.099 A 
ATOM      7  C   UNL d   1     -51.516  27.698  33.475  0.00  0.00     0.021 A 
ATOM      8  C   UNL d   1     -49.918  27.548  33.306  0.00  0.00     0.021 A 
ATOM      9  C   UNL d   1     -50.264  28.269  33.326  0.00  0.00     0.002 A 
ATOM     10  C   UNL d   1     -51.078  28.346  33.412  0.00  0.00     0.002 A 
ENDROOT
BRANCH   1  11
ATOM     11  N   UNL d   1     -51.774  24.854  33.573  0.00  0.00    -0.284 N 
ATOM     12  C   UNL d   1     -52.530  24.914  33.907  0.00  0.00     0.108 A 
ATOM     13  C   UNL d   1     -52.993  24.217  33.977  0.00  0.00     0.142 A 
ATOM     14  O   UNL d   1     -52.690  23.501  33.716  0.00  0.00    -0.300 OA
ATOM     15  C   UNL d   1     -51.942  23.459  33.389  0.00  0.00     0.142 A 
ATOM     16  C   UNL d   1     -51.464  24.129  33.308  0.00  0.00     0.108 A 
ENDBRANCH   1  11
BRANCH   4  17
ATOM     17  C   UNL d   1     -50.176  24.703  33.404  0.00  0.00     0.021 A 
ATOM     18  C   UNL d   1     -49.356  24.626  33.349  0.00  0.00     0.002 A 
ATOM     19  C   UNL d   1     -49.010  23.876  33.330  0.00  0.00     0.000 A 
ATOM     20  C   UNL d   1     -49.485  23.203  33.367  0.00  0.00     0.000 A 
ATOM     21  C   UNL d   1     -50.307  23.279  33.422  0.00  0.00     0.000 A 
ATOM     22  C   UNL d   1     -50.651  24.029  33.440  0.00  0.00     0.002 A 
ENDBRANCH   4  17
TORSDOF 2
ENDMDL
