MODEL 1
REMARK VINA RESULT:      53.9      0.000      0.000
REMARK  2 active torsions:
REMARK  status: ('A' for Active; 'I' for Inactive)
REMARK    1  A    between atoms: C_10  and  N_1 
REMARK    2  A    between atoms: N_11  and  C_10 
ROOT
ATOM      1  N   UNL d   1     -51.548  24.982  33.369  0.00  0.00    -0.175 N 
ATOM      2  N   UNL d   1     -51.848  26.072  33.354  0.00  0.00    -0.161 NA
ATOM      3  C   UNL d   1     -51.173  26.542  33.344  0.00  0.00     0.102 A 
ATOM      4  C   UNL d   1     -50.427  26.198  33.346  0.00  0.00     0.024 A 
ATOM      5  C   UNL d   1     -50.745  24.810  33.368  0.00  0.00     0.282 A 
ATOM      6  C   UNL d   1     -50.187  25.416  33.357  0.00  0.00     0.059 A 
ATOM      7  C   UNL d   1     -49.862  26.811  33.335  0.00  0.00     0.002 A 
ATOM      8  C   UNL d   1     -51.073  27.359  33.332  0.00  0.00     0.019 A 
ATOM      9  C   UNL d   1     -50.267  27.526  33.326  0.00  0.00     0.002 A 
ATOM     10  O   UNL d   1     -50.504  24.009  33.379  0.00  0.00    -0.265 OA
ATOM     11  C   UNL d   1     -49.378  25.231  33.356  0.00  0.00     0.005 A 
ATOM     12  C   UNL d   1     -49.066  26.632  33.334  0.00  0.00     0.000 A 
ATOM     13  C   UNL d   1     -51.616  27.981  33.325  0.00  0.00     0.002 A 
ATOM     14  C   UNL d   1     -50.010  28.308  33.313  0.00  0.00     0.000 A 
ATOM     15  C   UNL d   1     -48.813  25.844  33.345  0.00  0.00     0.000 A 
ATOM     16  C   UNL d   1     -51.354  28.768  33.312  0.00  0.00     0.000 A 
ATOM     17  C   UNL d   1     -50.553  28.930  33.306  0.00  0.00     0.000 A 
ENDROOT
BRANCH   1  18
ATOM     18  C   UNL d   1     -51.956  24.260  33.382  0.00  0.00     0.188 C 
BRANCH  18  19
ATOM     19  N   UNL d   1     -52.736  24.233  33.659  0.00  0.00    -0.283 N 
ATOM     20  C   UNL d   1     -52.934  23.724  34.272  0.00  0.00     0.108 A 
ATOM     21  C   UNL d   1     -53.713  23.695  34.551  0.00  0.00     0.142 A 
ATOM     22  O   UNL d   1     -54.289  24.184  34.207  0.00  0.00    -0.300 OA
ATOM     23  C   UNL d   1     -54.087  24.695  33.591  0.00  0.00     0.142 A 
ATOM     24  C   UNL d   1     -53.297  24.720  33.313  0.00  0.00     0.108 A 
ENDBRANCH  18  19
ENDBRANCH   1  18
TORSDOF 2
ENDMDL
