MODEL 1
REMARK VINA RESULT:      52.5      0.000      0.000
REMARK  3 active torsions:
REMARK  status: ('A' for Active; 'I' for Inactive)
REMARK    1  A    between atoms: C_4  and  C_1 
REMARK       I    between atoms: C_5  and  N_6 
REMARK    2  A    between atoms: C_8  and  C_5 
REMARK    3  A    between atoms: N_6  and  C_7 
ROOT
ATOM      1  C   UNL d   1     -51.543  26.488  33.417  0.00  0.00     0.042 A 
ATOM      2  C   UNL d   1     -50.723  26.397  33.361  0.00  0.00     0.087 A 
ATOM      3  C   UNL d   1     -51.863  27.247  33.469  0.00  0.00     0.004 A 
ATOM      4  C   UNL d   1     -50.226  27.054  33.357  0.00  0.00     0.019 A 
ATOM      5  C   UNL d   1     -51.377  27.909  33.466  0.00  0.00     0.000 A 
ATOM      6  C   UNL d   1     -50.551  27.811  33.409  0.00  0.00     0.002 A 
ENDROOT
BRANCH   1   7
ATOM      7  C   UNL d   1     -52.038  25.827  33.421  0.00  0.00     0.112 A 
ATOM      8  N   UNL d   1     -51.869  25.030  33.473  0.00  0.00    -0.238 NA
ATOM      9  C   UNL d   1     -52.584  24.621  33.450  0.00  0.00     0.088 A 
ATOM     10  C   UNL d   1     -52.761  23.821  33.480  0.00  0.00     0.020 A 
ATOM     11  C   UNL d   1     -53.186  25.171  33.384  0.00  0.00     0.049 A 
ATOM     12  C   UNL d   1     -53.548  23.571  33.445  0.00  0.00     0.002 A 
ATOM     13  C   UNL d   1     -54.151  24.122  33.379  0.00  0.00     0.001 A 
ATOM     14  C   UNL d   1     -53.973  24.921  33.348  0.00  0.00     0.008 A 
ATOM     15  S   UNL d   1     -52.842  25.924  33.366  0.00  0.00    -0.066 SA
ENDBRANCH   1   7
BRANCH   2  16
ATOM     16  N   UNL d   1     -50.402  25.639  33.308  0.00  0.00    -0.206 NA
ATOM     17  C   UNL d   1     -49.666  25.473  33.662  0.00  0.00     0.302 C 
ATOM     18  O   UNL d   1     -49.262  26.068  34.062  0.00  0.00    -0.263 OA
BRANCH  17  19
ATOM     19  C   UNL d   1     -49.342  24.716  33.611  0.00  0.00     0.158 A 
ATOM     20  O   UNL d   1     -49.688  23.968  33.534  0.00  0.00    -0.300 OA
ATOM     21  C   UNL d   1     -49.086  23.418  33.512  0.00  0.00     0.123 A 
ATOM     22  C   UNL d   1     -48.362  23.806  33.575  0.00  0.00     0.029 A 
ATOM     23  C   UNL d   1     -48.524  24.613  33.637  0.00  0.00     0.032 A 
ENDBRANCH  17  19
ENDBRANCH   2  16
TORSDOF 3
ENDMDL
