MODEL 1
REMARK VINA RESULT:     -11.7      0.000      0.000
REMARK  1 active torsions:
REMARK  status: ('A' for Active; 'I' for Inactive)
REMARK    1  A    between atoms: C_10  and  N_2 
ROOT
ATOM      1  C   UNL d   1      53.617  32.606  54.021  0.00  0.00     0.166 A 
ATOM      2  N   UNL d   1      53.872  33.323  54.354  0.00  0.00    -0.291 N 
ATOM      3  C   UNL d   1      52.971  32.789  53.545  0.00  0.00     0.117 A 
ATOM      4  C   UNL d   1      53.392  33.920  54.084  0.00  0.00     0.067 A 
ATOM      5  N   UNL d   1      53.893  31.822  54.096  0.00  0.00    -0.225 NA
ATOM      6  C   UNL d   1      52.830  33.588  53.579  0.00  0.00     0.037 A 
ATOM      7  N   UNL d   1      52.605  32.162  53.141  0.00  0.00    -0.241 NA
ATOM      8  C   UNL d   1      53.524  31.224  53.695  0.00  0.00     0.101 A 
ATOM      9  C   UNL d   1      52.871  31.403  53.212  0.00  0.00     0.099 A 
ATOM     10  C   UNL d   1      53.387  34.738  54.229  0.00  0.00     0.018 A 
ATOM     11  C   UNL d   1      52.264  34.072  53.220  0.00  0.00     0.003 A 
ATOM     12  C   UNL d   1      52.494  30.802  52.805  0.00  0.00     0.021 A 
ATOM     13  C   UNL d   1      53.783  30.464  53.762  0.00  0.00     0.021 A 
ATOM     14  C   UNL d   1      52.817  35.220  53.867  0.00  0.00     0.002 A 
ATOM     15  C   UNL d   1      52.255  34.888  53.362  0.00  0.00     0.000 A 
ATOM     16  C   UNL d   1      53.388  29.850  53.337  0.00  0.00     0.002 A 
ATOM     17  C   UNL d   1      52.750  30.007  52.862  0.00  0.00     0.002 A 
ENDROOT
BRANCH   2  18
ATOM     18  C   UNL d   1      54.496  33.408  54.863  0.00  0.00     0.066 C 
ATOM     19  C   UNL d   1      55.255  33.601  54.543  0.00  0.00     0.019 C 
ATOM     20  C   UNL d   1      54.381  33.307  55.669  0.00  0.00     0.019 C 
ENDBRANCH   2  18
TORSDOF 1
ENDMDL
MODEL 2
REMARK VINA RESULT:     -11.4      0.747      2.107
REMARK  1 active torsions:
REMARK  status: ('A' for Active; 'I' for Inactive)
REMARK    1  A    between atoms: C_10  and  N_2 
ROOT
ATOM      1  C   UNL d   1      52.507  32.953  53.255  0.00  0.00     0.166 A 
ATOM      2  N   UNL d   1      52.185  33.715  53.177  0.00  0.00    -0.291 N 
ATOM      3  C   UNL d   1      53.115  33.014  53.806  0.00  0.00     0.117 A 
ATOM      4  C   UNL d   1      52.591  34.219  53.668  0.00  0.00     0.067 A 
ATOM      5  N   UNL d   1      52.318  32.224  52.895  0.00  0.00    -0.225 NA
ATOM      6  C   UNL d   1      53.171  33.783  54.061  0.00  0.00     0.037 A 
ATOM      7  N   UNL d   1      53.534  32.320  53.989  0.00  0.00    -0.241 NA
ATOM      8  C   UNL d   1      52.738  31.559  53.086  0.00  0.00     0.101 A 
ATOM      9  C   UNL d   1      53.353  31.615  53.642  0.00  0.00     0.099 A 
ATOM     10  C   UNL d   1      52.513  35.033  53.817  0.00  0.00     0.018 A 
ATOM     11  C   UNL d   1      53.672  34.159  54.601  0.00  0.00     0.003 A 
ATOM     12  C   UNL d   1      53.780  30.945  53.838  0.00  0.00     0.021 A 
ATOM     13  C   UNL d   1      52.563  30.851  52.743  0.00  0.00     0.021 A 
ATOM     14  C   UNL d   1      53.018  35.406  54.360  0.00  0.00     0.002 A 
ATOM     15  C   UNL d   1      53.597  34.969  54.752  0.00  0.00     0.000 A 
ATOM     16  C   UNL d   1      53.009  30.165  52.952  0.00  0.00     0.002 A 
ATOM     17  C   UNL d   1      53.613  30.201  53.492  0.00  0.00     0.002 A 
ENDROOT
BRANCH   2  18
ATOM     18  C   UNL d   1      51.571  33.918  52.691  0.00  0.00     0.066 C 
ATOM     19  C   UNL d   1      50.781  33.844  52.986  0.00  0.00     0.019 C 
ATOM     20  C   UNL d   1      51.724  34.186  51.931  0.00  0.00     0.019 C 
ENDBRANCH   2  18
TORSDOF 1
ENDMDL
MODEL 3
REMARK VINA RESULT:     -11.0      0.891      3.178
REMARK  1 active torsions:
REMARK  status: ('A' for Active; 'I' for Inactive)
REMARK    1  A    between atoms: C_10  and  N_2 
ROOT
ATOM      1  C   UNL d   1      52.953  32.810  53.563  0.00  0.00     0.166 A 
ATOM      2  N   UNL d   1      53.623  32.394  53.825  0.00  0.00    -0.291 N 
ATOM      3  C   UNL d   1      52.462  32.255  53.204  0.00  0.00     0.117 A 
ATOM      4  C   UNL d   1      53.535  31.610  53.628  0.00  0.00     0.067 A 
ATOM      5  N   UNL d   1      52.739  33.615  53.609  0.00  0.00    -0.225 NA
ATOM      6  C   UNL d   1      52.811  31.524  53.241  0.00  0.00     0.037 A 
ATOM      7  N   UNL d   1      51.743  32.529  52.890  0.00  0.00    -0.241 NA
ATOM      8  C   UNL d   1      52.035  33.864  53.297  0.00  0.00     0.101 A 
ATOM      9  C   UNL d   1      51.535  33.308  52.933  0.00  0.00     0.099 A 
ATOM     10  C   UNL d   1      54.022  30.949  53.749  0.00  0.00     0.018 A 
ATOM     11  C   UNL d   1      52.575  30.776  52.976  0.00  0.00     0.003 A 
ATOM     12  C   UNL d   1      50.822  33.554  52.616  0.00  0.00     0.021 A 
ATOM     13  C   UNL d   1      51.819  34.639  53.336  0.00  0.00     0.021 A 
ATOM     14  C   UNL d   1      53.781  30.201  53.482  0.00  0.00     0.002 A 
ATOM     15  C   UNL d   1      53.058  30.115  53.095  0.00  0.00     0.000 A 
ATOM     16  C   UNL d   1      51.081  34.884  53.006  0.00  0.00     0.002 A 
ATOM     17  C   UNL d   1      50.581  34.355  52.648  0.00  0.00     0.002 A 
ENDROOT
BRANCH   2  18
ATOM     18  C   UNL d   1      54.256  32.719  54.211  0.00  0.00     0.066 C 
ATOM     19  C   UNL d   1      54.230  32.773  55.055  0.00  0.00     0.019 C 
ATOM     20  C   UNL d   1      54.902  32.986  53.782  0.00  0.00     0.019 C 
ENDBRANCH   2  18
TORSDOF 1
ENDMDL
MODEL 4
REMARK VINA RESULT:      -9.6      1.089      2.951
REMARK  1 active torsions:
REMARK  status: ('A' for Active; 'I' for Inactive)
REMARK    1  A    between atoms: C_10  and  N_2 
ROOT
ATOM      1  C   UNL d   1      52.806  33.002  53.655  0.00  0.00     0.166 A 
ATOM      2  N   UNL d   1      53.463  32.557  53.902  0.00  0.00    -0.291 N 
ATOM      3  C   UNL d   1      52.886  33.744  54.001  0.00  0.00     0.117 A 
ATOM      4  C   UNL d   1      53.924  33.022  54.384  0.00  0.00     0.067 A 
ATOM      5  N   UNL d   1      52.156  32.818  53.165  0.00  0.00    -0.225 NA
ATOM      6  C   UNL d   1      53.565  33.762  54.445  0.00  0.00     0.037 A 
ATOM      7  N   UNL d   1      52.293  34.305  53.841  0.00  0.00    -0.241 NA
ATOM      8  C   UNL d   1      51.589  33.377  53.021  0.00  0.00     0.101 A 
ATOM      9  C   UNL d   1      51.664  34.129  53.367  0.00  0.00     0.099 A 
ATOM     10  C   UNL d   1      54.637  32.873  54.783  0.00  0.00     0.018 A 
ATOM     11  C   UNL d   1      53.917  34.353  54.906  0.00  0.00     0.003 A 
ATOM     12  C   UNL d   1      51.094  34.697  53.225  0.00  0.00     0.021 A 
ATOM     13  C   UNL d   1      50.958  33.209  52.548  0.00  0.00     0.021 A 
ATOM     14  C   UNL d   1      54.987  33.467  55.244  0.00  0.00     0.002 A 
ATOM     15  C   UNL d   1      54.627  34.207  55.305  0.00  0.00     0.000 A 
ATOM     16  C   UNL d   1      50.373  33.802  52.407  0.00  0.00     0.002 A 
ATOM     17  C   UNL d   1      50.431  34.541  52.736  0.00  0.00     0.002 A 
ENDROOT
BRANCH   2  18
ATOM     18  C   UNL d   1      53.615  31.789  53.696  0.00  0.00     0.066 C 
ATOM     19  C   UNL d   1      53.310  31.171  54.187  0.00  0.00     0.019 C 
ATOM     20  C   UNL d   1      54.055  31.628  53.023  0.00  0.00     0.019 C 
ENDBRANCH   2  18
TORSDOF 1
ENDMDL
MODEL 5
REMARK VINA RESULT:      -9.5      0.821      3.593
REMARK  1 active torsions:
REMARK  status: ('A' for Active; 'I' for Inactive)
REMARK    1  A    between atoms: C_10  and  N_2 
ROOT
ATOM      1  C   UNL d   1      53.091  32.856  53.784  0.00  0.00     0.166 A 
ATOM      2  N   UNL d   1      52.504  32.518  53.303  0.00  0.00    -0.291 N 
ATOM      3  C   UNL d   1      53.621  32.252  53.962  0.00  0.00     0.117 A 
ATOM      4  C   UNL d   1      52.679  31.731  53.196  0.00  0.00     0.067 A 
ATOM      5  N   UNL d   1      53.201  33.631  54.074  0.00  0.00    -0.225 NA
ATOM      6  C   UNL d   1      53.375  31.565  53.606  0.00  0.00     0.037 A 
ATOM      7  N   UNL d   1      54.271  32.445  54.442  0.00  0.00    -0.241 NA
ATOM      8  C   UNL d   1      53.840  33.800  54.541  0.00  0.00     0.101 A 
ATOM      9  C   UNL d   1      54.379  33.194  54.724  0.00  0.00     0.099 A 
ATOM     10  C   UNL d   1      52.293  31.129  52.773  0.00  0.00     0.018 A 
ATOM     11  C   UNL d   1      53.686  30.798  53.594  0.00  0.00     0.003 A 
ATOM     12  C   UNL d   1      55.026  33.359  55.196  0.00  0.00     0.021 A 
ATOM     13  C   UNL d   1      53.955  34.545  54.826  0.00  0.00     0.021 A 
ATOM     14  C   UNL d   1      52.608  30.361  52.764  0.00  0.00     0.002 A 
ATOM     15  C   UNL d   1      53.304  30.196  53.174  0.00  0.00     0.000 A 
ATOM     16  C   UNL d   1      54.626  34.707  55.312  0.00  0.00     0.002 A 
ATOM     17  C   UNL d   1      55.162  34.127  55.501  0.00  0.00     0.002 A 
ENDROOT
BRANCH   2  18
ATOM     18  C   UNL d   1      51.866  32.909  52.994  0.00  0.00     0.066 C 
ATOM     19  C   UNL d   1      51.132  32.877  53.412  0.00  0.00     0.019 C 
ATOM     20  C   UNL d   1      51.945  33.325  52.291  0.00  0.00     0.019 C 
ENDBRANCH   2  18
TORSDOF 1
ENDMDL
