MODEL 1
REMARK VINA RESULT:      -0.4      0.000      0.000
REMARK  4 active torsions:
REMARK  status: ('A' for Active; 'I' for Inactive)
REMARK    1  A    between atoms: C_10  and  C_1 
REMARK    2  A    between atoms: C_18  and  N_6 
REMARK       I    between atoms: N_13  and  C_10 
REMARK    3  A    between atoms: C_12  and  C_20 
REMARK    4  A    between atoms: C_20  and  N_13 
ROOT
ATOM      1  C   UNL d   1      58.181  -0.943  30.044  0.00  0.00     0.077 A 
ATOM      2  C   UNL d   1      58.896  -0.130  30.989  0.00  0.00     0.121 A 
ATOM      3  C   UNL d   1      58.858  -0.525  30.263  0.00  0.00     0.028 A 
ATOM      4  C   UNL d   1      58.243  -0.154  31.505  0.00  0.00     0.281 A 
ATOM      5  N   UNL d   1      59.633   0.228  31.040  0.00  0.00    -0.300 N 
ATOM      6  N   UNL d   1      57.562  -0.567  31.298  0.00  0.00    -0.272 N 
ATOM      7  C   UNL d   1      57.529  -0.968  30.558  0.00  0.00     0.088 A 
ATOM      8  C   UNL d   1      59.583  -0.403  29.874  0.00  0.00     0.018 A 
ATOM      9  C   UNL d   1      60.051   0.064  30.367  0.00  0.00     0.064 A 
ATOM     10  O   UNL d   1      58.282   0.247  32.240  0.00  0.00    -0.265 OA
ATOM     11  C   UNL d   1      59.890   0.682  31.690  0.00  0.00     0.100 C 
ATOM     12  C   UNL d   1      59.862  -0.654  29.151  0.00  0.00     0.002 A 
ATOM     13  C   UNL d   1      60.809   0.272  30.113  0.00  0.00     0.018 A 
ATOM     14  C   UNL d   1      60.621  -0.441  28.907  0.00  0.00     0.000 A 
ATOM     15  C   UNL d   1      61.092   0.018  29.381  0.00  0.00     0.002 A 
ENDROOT
BRANCH   1  16
ATOM     16  C   UNL d   1      58.143  -1.334  29.326  0.00  0.00     0.281 C 
ATOM     17  N   UNL d   1      58.283  -2.145  29.288  0.00  0.00    -0.204 NA
ATOM     18  O   UNL d   1      57.963  -0.914  28.634  0.00  0.00    -0.265 OA
BRANCH  17  19
ATOM     19  C   UNL d   1      58.245  -2.539  28.566  0.00  0.00     0.127 C 
BRANCH  19  20
ATOM     20  C   UNL d   1      58.377  -3.354  28.537  0.00  0.00     0.119 A 
ATOM     21  O   UNL d   1      57.800  -3.941  28.510  0.00  0.00    -0.306 OA
ATOM     22  C   UNL d   1      58.186  -4.673  28.487  0.00  0.00     0.100 A 
ATOM     23  C   UNL d   1      57.822  -5.406  28.457  0.00  0.00     0.027 C 
ATOM     24  C   UNL d   1      58.986  -4.543  28.498  0.00  0.00     0.027 A 
ATOM     25  C   UNL d   1      59.114  -3.729  28.529  0.00  0.00     0.028 A 
ENDBRANCH  19  20
ENDBRANCH  17  19
ENDBRANCH   1  16
BRANCH   6  26
ATOM     26  C   UNL d   1      56.919  -0.588  31.811  0.00  0.00     0.067 A 
ATOM     27  C   UNL d   1      56.645  -1.255  32.210  0.00  0.00     0.018 A 
ATOM     28  C   UNL d   1      56.001  -1.027  32.657  0.00  0.00     0.002 A 
ATOM     29  C   UNL d   1      55.877  -0.223  32.536  0.00  0.00     0.002 A 
ATOM     30  C   UNL d   1      56.450   0.046  32.010  0.00  0.00     0.018 A 
ENDBRANCH   6  26
TORSDOF 4
ENDMDL
