MODEL 1
REMARK VINA RESULT:      -5.8      0.000      0.000
REMARK  8 active torsions:
REMARK  status: ('A' for Active; 'I' for Inactive)
REMARK    1  A    between atoms: C_8  and  C_1 
REMARK    2  A    between atoms: C_7  and  C_2 
REMARK    3  A    between atoms: C_9  and  C_3 
REMARK    4  A    between atoms: O_14  and  C_7 
REMARK    5  A    between atoms: O_15  and  C_8 
REMARK    6  A    between atoms: C_22  and  O_14 
REMARK    7  A    between atoms: C_23  and  O_15 
REMARK    8  A    between atoms: O_21  and  C_18 
ROOT
ATOM      1  C   UNL d   1     -48.194  12.085  23.209  0.00  0.00     0.081 A 
ATOM      2  C   UNL d   1     -46.806  12.390  23.186  0.00  0.00     0.081 A 
ATOM      3  C   UNL d   1     -47.584  12.620  23.069  0.00  0.00     0.013 A 
ATOM      4  C   UNL d   1     -48.022  11.321  23.466  0.00  0.00     0.086 A 
ATOM      5  C   UNL d   1     -46.633  11.625  23.443  0.00  0.00     0.086 A 
ATOM      6  N   UNL d   1     -47.240  11.092  23.582  0.00  0.00    -0.245 NA
ATOM      7  C   UNL d   1     -45.834  11.389  23.562  0.00  0.00     0.021 C 
ATOM      8  C   UNL d   1     -48.641  10.773  23.610  0.00  0.00     0.021 C 
ENDROOT
BRANCH   3   9
ATOM      9  C   UNL d   1     -47.757  13.389  22.811  0.00  0.00     0.001 A 
ATOM     10  C   UNL d   1     -47.796  13.556  22.008  0.00  0.00     0.002 A 
ATOM     11  C   UNL d   1     -47.970  14.328  21.749  0.00  0.00     0.024 A 
ATOM     12  C   UNL d   1     -48.103  14.926  22.294  0.00  0.00     0.094 A 
ATOM     13  C   UNL d   1     -48.064  14.761  23.100  0.00  0.00     0.024 A 
ATOM     14  C   UNL d   1     -47.891  13.989  23.360  0.00  0.00     0.002 A 
BRANCH  12  15
ATOM     15  O   UNL d   1     -48.275  15.690  22.045  0.00  0.00    -0.328 OA
ATOM     16  C   UNL d   1     -49.056  15.904  21.898  0.00  0.00     0.181 C 
ENDBRANCH  12  15
ENDBRANCH   3   9
BRANCH   2  17
ATOM     17  C   UNL d   1     -46.184  12.942  23.040  0.00  0.00     0.302 C 
ATOM     18  O   UNL d   1     -45.951  13.463  23.633  0.00  0.00    -0.259 OA
BRANCH  17  19
ATOM     19  O   UNL d   1     -45.810  12.955  22.298  0.00  0.00    -0.271 OA
BRANCH  19  20
ATOM     20  C   UNL d   1     -45.055  13.274  22.219  0.00  0.00     0.126 C 
ATOM     21  C   UNL d   1     -44.498  12.906  21.740  0.00  0.00     0.029 C 
ENDBRANCH  19  20
ENDBRANCH  17  19
ENDBRANCH   2  17
BRANCH   1  22
ATOM     22  C   UNL d   1     -48.991  12.326  23.088  0.00  0.00     0.302 C 
ATOM     23  O   UNL d   1     -49.399  12.729  23.697  0.00  0.00    -0.259 OA
BRANCH  22  24
ATOM     24  O   UNL d   1     -49.356  12.160  22.368  0.00  0.00    -0.271 OA
BRANCH  24  25
ATOM     25  C   UNL d   1     -50.177  12.079  22.338  0.00  0.00     0.126 C 
ATOM     26  C   UNL d   1     -50.577  12.226  21.629  0.00  0.00     0.029 C 
ENDBRANCH  24  25
ENDBRANCH  22  24
ENDBRANCH   1  22
TORSDOF 8
ENDMDL
MODEL 2
REMARK VINA RESULT:      -5.8      1.445      2.928
REMARK  8 active torsions:
REMARK  status: ('A' for Active; 'I' for Inactive)
REMARK    1  A    between atoms: C_8  and  C_1 
REMARK    2  A    between atoms: C_7  and  C_2 
REMARK    3  A    between atoms: C_9  and  C_3 
REMARK    4  A    between atoms: O_14  and  C_7 
REMARK    5  A    between atoms: O_15  and  C_8 
REMARK    6  A    between atoms: C_22  and  O_14 
REMARK    7  A    between atoms: C_23  and  O_15 
REMARK    8  A    between atoms: O_21  and  C_18 
ROOT
ATOM      1  C   UNL d   1     -48.725  14.318  22.604  0.00  0.00     0.081 A 
ATOM      2  C   UNL d   1     -47.306  14.300  22.699  0.00  0.00     0.081 A 
ATOM      3  C   UNL d   1     -48.022  13.901  22.709  0.00  0.00     0.013 A 
ATOM      4  C   UNL d   1     -48.707  15.135  22.490  0.00  0.00     0.086 A 
ATOM      5  C   UNL d   1     -47.288  15.117  22.585  0.00  0.00     0.086 A 
ATOM      6  N   UNL d   1     -47.987  15.533  22.481  0.00  0.00    -0.245 NA
ATOM      7  C   UNL d   1     -46.553  15.527  22.576  0.00  0.00     0.021 C 
ATOM      8  C   UNL d   1     -49.420  15.562  22.383  0.00  0.00     0.021 C 
ENDROOT
BRANCH   3   9
ATOM      9  C   UNL d   1     -48.040  13.080  22.824  0.00  0.00     0.001 A 
ATOM     10  C   UNL d   1     -48.065  12.770  23.583  0.00  0.00     0.002 A 
ATOM     11  C   UNL d   1     -48.083  11.945  23.698  0.00  0.00     0.024 A 
ATOM     12  C   UNL d   1     -48.076  11.439  23.053  0.00  0.00     0.094 A 
ATOM     13  C   UNL d   1     -48.050  11.748  22.290  0.00  0.00     0.024 A 
ATOM     14  C   UNL d   1     -48.032  12.572  22.175  0.00  0.00     0.002 A 
BRANCH  12  15
ATOM     15  O   UNL d   1     -48.093  10.624  23.160  0.00  0.00    -0.328 OA
ATOM     16  C   UNL d   1     -47.467  10.250  23.541  0.00  0.00     0.181 C 
ENDBRANCH  12  15
ENDBRANCH   3   9
BRANCH   2  17
ATOM     17  C   UNL d   1     -46.589  13.868  22.807  0.00  0.00     0.302 C 
ATOM     18  O   UNL d   1     -46.342  13.667  23.565  0.00  0.00    -0.259 OA
BRANCH  17  19
ATOM     19  O   UNL d   1     -46.137  13.650  22.145  0.00  0.00    -0.271 OA
BRANCH  19  20
ATOM     20  C   UNL d   1     -45.328  13.514  22.221  0.00  0.00     0.126 C 
ATOM     21  C   UNL d   1     -44.923  13.088  21.646  0.00  0.00     0.029 C 
ENDBRANCH  19  20
ENDBRANCH  17  19
ENDBRANCH   2  17
BRANCH   1  22
ATOM     22  C   UNL d   1     -49.456  13.904  22.615  0.00  0.00     0.302 C 
ATOM     23  O   UNL d   1     -49.794  13.677  23.346  0.00  0.00    -0.259 OA
BRANCH  22  24
ATOM     24  O   UNL d   1     -49.829  13.728  21.902  0.00  0.00    -0.271 OA
BRANCH  24  25
ATOM     25  C   UNL d   1     -50.651  13.654  21.880  0.00  0.00     0.126 C 
ATOM     26  C   UNL d   1     -51.018  13.364  21.197  0.00  0.00     0.029 C 
ENDBRANCH  24  25
ENDBRANCH  22  24
ENDBRANCH   1  22
TORSDOF 8
ENDMDL
MODEL 3
REMARK VINA RESULT:      -5.8      1.453      4.121
REMARK  8 active torsions:
REMARK  status: ('A' for Active; 'I' for Inactive)
REMARK    1  A    between atoms: C_8  and  C_1 
REMARK    2  A    between atoms: C_7  and  C_2 
REMARK    3  A    between atoms: C_9  and  C_3 
REMARK    4  A    between atoms: O_14  and  C_7 
REMARK    5  A    between atoms: O_15  and  C_8 
REMARK    6  A    between atoms: C_22  and  O_14 
REMARK    7  A    between atoms: C_23  and  O_15 
REMARK    8  A    between atoms: O_21  and  C_18 
ROOT
ATOM      1  C   UNL d   1     -47.298  14.310  22.685  0.00  0.00     0.081 A 
ATOM      2  C   UNL d   1     -48.718  14.326  22.610  0.00  0.00     0.081 A 
ATOM      3  C   UNL d   1     -48.017  13.910  22.705  0.00  0.00     0.013 A 
ATOM      4  C   UNL d   1     -47.282  15.127  22.570  0.00  0.00     0.086 A 
ATOM      5  C   UNL d   1     -48.702  15.143  22.495  0.00  0.00     0.086 A 
ATOM      6  N   UNL d   1     -47.987  15.542  22.474  0.00  0.00    -0.245 NA
ATOM      7  C   UNL d   1     -49.421  15.570  22.397  0.00  0.00     0.021 C 
ATOM      8  C   UNL d   1     -46.551  15.537  22.549  0.00  0.00     0.021 C 
ENDROOT
BRANCH   3   9
ATOM      9  C   UNL d   1     -48.033  13.089  22.821  0.00  0.00     0.001 A 
ATOM     10  C   UNL d   1     -48.043  12.780  23.581  0.00  0.00     0.002 A 
ATOM     11  C   UNL d   1     -48.059  11.955  23.698  0.00  0.00     0.024 A 
ATOM     12  C   UNL d   1     -48.064  11.448  23.054  0.00  0.00     0.094 A 
ATOM     13  C   UNL d   1     -48.053  11.756  22.290  0.00  0.00     0.024 A 
ATOM     14  C   UNL d   1     -48.038  12.581  22.173  0.00  0.00     0.002 A 
BRANCH  12  15
ATOM     15  O   UNL d   1     -48.079  10.633  23.162  0.00  0.00    -0.328 OA
ATOM     16  C   UNL d   1     -47.541  10.281  23.675  0.00  0.00     0.181 C 
ENDBRANCH  12  15
ENDBRANCH   3   9
BRANCH   2  17
ATOM     17  C   UNL d   1     -49.452  13.912  22.632  0.00  0.00     0.302 C 
ATOM     18  O   UNL d   1     -49.772  13.681  23.353  0.00  0.00    -0.259 OA
BRANCH  17  19
ATOM     19  O   UNL d   1     -49.848  13.740  21.921  0.00  0.00    -0.271 OA
BRANCH  19  20
ATOM     20  C   UNL d   1     -50.663  13.619  21.919  0.00  0.00     0.126 C 
ATOM     21  C   UNL d   1     -51.064  13.503  21.211  0.00  0.00     0.029 C 
ENDBRANCH  19  20
ENDBRANCH  17  19
ENDBRANCH   2  17
BRANCH   1  22
ATOM     22  C   UNL d   1     -46.583  13.879  22.783  0.00  0.00     0.302 C 
ATOM     23  O   UNL d   1     -46.319  13.683  23.553  0.00  0.00    -0.259 OA
BRANCH  22  24
ATOM     24  O   UNL d   1     -46.152  13.656  22.117  0.00  0.00    -0.271 OA
BRANCH  24  25
ATOM     25  C   UNL d   1     -45.333  13.580  22.168  0.00  0.00     0.126 C 
ATOM     26  C   UNL d   1     -44.940  13.039  21.681  0.00  0.00     0.029 C 
ENDBRANCH  24  25
ENDBRANCH  22  24
ENDBRANCH   1  22
TORSDOF 8
ENDMDL
MODEL 4
REMARK VINA RESULT:      -5.7      1.282      2.876
REMARK  8 active torsions:
REMARK  status: ('A' for Active; 'I' for Inactive)
REMARK    1  A    between atoms: C_8  and  C_1 
REMARK    2  A    between atoms: C_7  and  C_2 
REMARK    3  A    between atoms: C_9  and  C_3 
REMARK    4  A    between atoms: O_14  and  C_7 
REMARK    5  A    between atoms: O_15  and  C_8 
REMARK    6  A    between atoms: C_22  and  O_14 
REMARK    7  A    between atoms: C_23  and  O_15 
REMARK    8  A    between atoms: O_21  and  C_18 
ROOT
ATOM      1  C   UNL d   1     -47.960  14.269  22.768  0.00  0.00     0.081 A 
ATOM      2  C   UNL d   1     -46.961  13.274  22.586  0.00  0.00     0.081 A 
ATOM      3  C   UNL d   1     -47.743  13.476  22.727  0.00  0.00     0.013 A 
ATOM      4  C   UNL d   1     -47.392  14.858  22.668  0.00  0.00     0.086 A 
ATOM      5  C   UNL d   1     -46.392  13.863  22.487  0.00  0.00     0.086 A 
ATOM      6  N   UNL d   1     -46.607  14.653  22.528  0.00  0.00    -0.245 NA
ATOM      7  C   UNL d   1     -45.589  13.655  22.343  0.00  0.00     0.021 C 
ATOM      8  C   UNL d   1     -47.609  15.667  22.709  0.00  0.00     0.021 C 
ENDROOT
BRANCH   3   9
ATOM      9  C   UNL d   1     -48.315  12.884  22.827  0.00  0.00     0.001 A 
ATOM     10  C   UNL d   1     -48.675  12.542  22.173  0.00  0.00     0.002 A 
ATOM     11  C   UNL d   1     -49.249  11.947  22.273  0.00  0.00     0.024 A 
ATOM     12  C   UNL d   1     -49.458  11.699  23.027  0.00  0.00     0.094 A 
ATOM     13  C   UNL d   1     -49.099  12.040  23.684  0.00  0.00     0.024 A 
ATOM     14  C   UNL d   1     -48.524  12.635  23.584  0.00  0.00     0.002 A 
BRANCH  12  15
ATOM     15  O   UNL d   1     -50.024  11.113  23.133  0.00  0.00    -0.328 OA
ATOM     16  C   UNL d   1     -50.751  11.305  23.469  0.00  0.00     0.181 C 
ENDBRANCH  12  15
ENDBRANCH   3   9
BRANCH   2  17
ATOM     17  C   UNL d   1     -46.744  12.459  22.545  0.00  0.00     0.302 C 
ATOM     18  O   UNL d   1     -46.928  12.019  21.875  0.00  0.00    -0.259 OA
BRANCH  17  19
ATOM     19  O   UNL d   1     -46.345  12.107  23.184  0.00  0.00    -0.271 OA
BRANCH  19  20
ATOM     20  C   UNL d   1     -45.821  11.485  23.053  0.00  0.00     0.126 C 
ATOM     21  C   UNL d   1     -45.621  10.976  23.667  0.00  0.00     0.029 C 
ENDBRANCH  19  20
ENDBRANCH  17  19
ENDBRANCH   2  17
BRANCH   1  22
ATOM     22  C   UNL d   1     -48.764  14.471  22.912  0.00  0.00     0.302 C 
ATOM     23  O   UNL d   1     -49.068  14.431  23.690  0.00  0.00    -0.259 OA
BRANCH  22  24
ATOM     24  O   UNL d   1     -49.239  14.705  22.281  0.00  0.00    -0.271 OA
BRANCH  24  25
ATOM     25  C   UNL d   1     -49.836  15.261  22.405  0.00  0.00     0.126 C 
ATOM     26  C   UNL d   1     -50.427  15.362  21.834  0.00  0.00     0.029 C 
ENDBRANCH  24  25
ENDBRANCH  22  24
ENDBRANCH   1  22
TORSDOF 8
ENDMDL
MODEL 5
REMARK VINA RESULT:      -4.8      5.923      8.868
REMARK  8 active torsions:
REMARK  status: ('A' for Active; 'I' for Inactive)
REMARK    1  A    between atoms: C_8  and  C_1 
REMARK    2  A    between atoms: C_7  and  C_2 
REMARK    3  A    between atoms: C_9  and  C_3 
REMARK    4  A    between atoms: O_14  and  C_7 
REMARK    5  A    between atoms: O_15  and  C_8 
REMARK    6  A    between atoms: C_22  and  O_14 
REMARK    7  A    between atoms: C_23  and  O_15 
REMARK    8  A    between atoms: O_21  and  C_18 
ROOT
ATOM      1  C   UNL d   1     -39.209  15.325  20.794  0.00  0.00     0.081 A 
ATOM      2  C   UNL d   1     -39.563  15.132  19.430  0.00  0.00     0.081 A 
ATOM      3  C   UNL d   1     -39.746  15.064  20.227  0.00  0.00     0.013 A 
ATOM      4  C   UNL d   1     -38.490  15.654  20.561  0.00  0.00     0.086 A 
ATOM      5  C   UNL d   1     -38.843  15.462  19.197  0.00  0.00     0.086 A 
ATOM      6  N   UNL d   1     -38.309  15.722  19.761  0.00  0.00    -0.245 NA
ATOM      7  C   UNL d   1     -38.656  15.532  18.379  0.00  0.00     0.021 C 
ATOM      8  C   UNL d   1     -37.941  15.921  21.136  0.00  0.00     0.021 C 
ENDROOT
BRANCH   3   9
ATOM      9  C   UNL d   1     -40.469  14.732  20.461  0.00  0.00     0.001 A 
ATOM     10  C   UNL d   1     -40.560  13.917  20.489  0.00  0.00     0.002 A 
ATOM     11  C   UNL d   1     -41.286  13.585  20.725  0.00  0.00     0.024 A 
ATOM     12  C   UNL d   1     -41.915  14.070  20.929  0.00  0.00     0.094 A 
ATOM     13  C   UNL d   1     -41.826  14.888  20.902  0.00  0.00     0.024 A 
ATOM     14  C   UNL d   1     -41.100  15.221  20.666  0.00  0.00     0.002 A 
BRANCH  12  15
ATOM     15  O   UNL d   1     -42.634  13.748  21.163  0.00  0.00    -0.328 OA
ATOM     16  C   UNL d   1     -42.682  12.946  21.343  0.00  0.00     0.181 C 
ENDBRANCH  12  15
ENDBRANCH   3   9
BRANCH   2  17
ATOM     17  C   UNL d   1     -40.116  14.863  18.853  0.00  0.00     0.302 C 
ATOM     18  O   UNL d   1     -40.179  14.060  18.688  0.00  0.00    -0.259 OA
BRANCH  17  19
ATOM     19  O   UNL d   1     -40.595  15.414  18.454  0.00  0.00    -0.271 OA
BRANCH  19  20
ATOM     20  C   UNL d   1     -40.841  15.266  17.681  0.00  0.00     0.126 C 
ATOM     21  C   UNL d   1     -41.305  15.815  17.283  0.00  0.00     0.029 C 
ENDBRANCH  19  20
ENDBRANCH  17  19
ENDBRANCH   2  17
BRANCH   1  22
ATOM     22  C   UNL d   1     -39.401  15.252  21.609  0.00  0.00     0.302 C 
ATOM     23  O   UNL d   1     -39.889  15.827  21.973  0.00  0.00    -0.259 OA
BRANCH  22  24
ATOM     24  O   UNL d   1     -39.105  14.613  22.037  0.00  0.00    -0.271 OA
BRANCH  24  25
ATOM     25  C   UNL d   1     -38.938  14.704  22.840  0.00  0.00     0.126 C 
ATOM     26  C   UNL d   1     -38.766  14.038  23.300  0.00  0.00     0.029 C 
ENDBRANCH  24  25
ENDBRANCH  22  24
ENDBRANCH   1  22
TORSDOF 8
ENDMDL
MODEL 6
REMARK VINA RESULT:      -3.7      7.597      9.663
REMARK  8 active torsions:
REMARK  status: ('A' for Active; 'I' for Inactive)
REMARK    1  A    between atoms: C_8  and  C_1 
REMARK    2  A    between atoms: C_7  and  C_2 
REMARK    3  A    between atoms: C_9  and  C_3 
REMARK    4  A    between atoms: O_14  and  C_7 
REMARK    5  A    between atoms: O_15  and  C_8 
REMARK    6  A    between atoms: C_22  and  O_14 
REMARK    7  A    between atoms: C_23  and  O_15 
REMARK    8  A    between atoms: O_21  and  C_18 
ROOT
ATOM      1  C   UNL d   1     -39.092  13.613  18.289  0.00  0.00     0.081 A 
ATOM      2  C   UNL d   1     -39.589  14.508  17.302  0.00  0.00     0.081 A 
ATOM      3  C   UNL d   1     -39.550  14.266  18.084  0.00  0.00     0.013 A 
ATOM      4  C   UNL d   1     -38.674  13.204  17.707  0.00  0.00     0.086 A 
ATOM      5  C   UNL d   1     -39.171  14.099  16.720  0.00  0.00     0.086 A 
ATOM      6  N   UNL d   1     -38.715  13.449  16.923  0.00  0.00    -0.245 NA
ATOM      7  C   UNL d   1     -39.211  14.347  15.917  0.00  0.00     0.021 C 
ATOM      8  C   UNL d   1     -38.206  12.539  17.912  0.00  0.00     0.021 C 
ENDROOT
BRANCH   3   9
ATOM      9  C   UNL d   1     -39.970  14.678  18.669  0.00  0.00     0.001 A 
ATOM     10  C   UNL d   1     -40.669  14.370  18.969  0.00  0.00     0.002 A 
ATOM     11  C   UNL d   1     -41.091  14.783  19.556  0.00  0.00     0.024 A 
ATOM     12  C   UNL d   1     -40.811  15.500  19.837  0.00  0.00     0.094 A 
ATOM     13  C   UNL d   1     -40.110  15.812  19.538  0.00  0.00     0.024 A 
ATOM     14  C   UNL d   1     -39.687  15.398  18.951  0.00  0.00     0.002 A 
BRANCH  12  15
ATOM     15  O   UNL d   1     -41.223  15.913  20.417  0.00  0.00    -0.328 OA
ATOM     16  C   UNL d   1     -41.344  15.568  21.154  0.00  0.00     0.181 C 
ENDBRANCH  12  15
ENDBRANCH   3   9
BRANCH   2  17
ATOM     17  C   UNL d   1     -40.060  15.178  17.097  0.00  0.00     0.302 C 
ATOM     18  O   UNL d   1     -39.865  15.921  17.391  0.00  0.00    -0.259 OA
BRANCH  17  19
ATOM     19  O   UNL d   1     -40.718  15.081  16.600  0.00  0.00    -0.271 OA
BRANCH  19  20
ATOM     20  C   UNL d   1     -41.104  15.740  16.289  0.00  0.00     0.126 C 
ATOM     21  C   UNL d   1     -41.898  15.694  16.079  0.00  0.00     0.029 C 
ENDBRANCH  19  20
ENDBRANCH  17  19
ENDBRANCH   2  17
BRANCH   1  22
ATOM     22  C   UNL d   1     -39.056  13.370  19.093  0.00  0.00     0.302 C 
ATOM     23  O   UNL d   1     -39.739  13.059  19.463  0.00  0.00    -0.259 OA
BRANCH  22  24
ATOM     24  O   UNL d   1     -38.345  13.442  19.503  0.00  0.00    -0.271 OA
BRANCH  24  25
ATOM     25  C   UNL d   1     -38.172  12.914  20.113  0.00  0.00     0.126 C 
ATOM     26  C   UNL d   1     -37.953  13.204  20.857  0.00  0.00     0.029 C 
ENDBRANCH  24  25
ENDBRANCH  22  24
ENDBRANCH   1  22
TORSDOF 8
ENDMDL
