MODEL 1
REMARK VINA RESULT:      81.0      0.000      0.000
REMARK  4 active torsions:
REMARK  status: ('A' for Active; 'I' for Inactive)
REMARK    1  A    between atoms: S_6  and  C_1 
REMARK    2  A    between atoms: C_9  and  N_2 
REMARK    3  A    between atoms: C_15  and  S_6 
REMARK    4  A    between atoms: C_14  and  C_9 
ROOT
ATOM      1  C   UNL d   1     -51.009  24.918  33.417  0.00  0.00     0.145 A 
ATOM      2  N   UNL d   1     -52.321  24.735  33.360  0.00  0.00    -0.270 N 
ATOM      3  C   UNL d   1     -51.365  25.665  33.394  0.00  0.00     0.130 A 
ATOM      4  C   UNL d   1     -51.598  24.343  33.396  0.00  0.00     0.183 A 
ATOM      5  C   UNL d   1     -52.182  25.551  33.358  0.00  0.00     0.168 A 
ATOM      6  N   UNL d   1     -51.055  26.428  33.400  0.00  0.00    -0.240 NA
ATOM      7  N   UNL d   1     -52.689  26.200  33.329  0.00  0.00    -0.225 NA
ATOM      8  C   UNL d   1     -51.562  27.077  33.371  0.00  0.00     0.099 A 
ATOM      9  C   UNL d   1     -52.379  26.963  33.335  0.00  0.00     0.101 A 
ATOM     10  N   UNL d   1     -51.497  23.525  33.408  0.00  0.00    -0.128 N 
ATOM     11  C   UNL d   1     -51.251  27.841  33.378  0.00  0.00     0.021 A 
ATOM     12  C   UNL d   1     -52.886  27.612  33.306  0.00  0.00     0.021 A 
ATOM     13  C   UNL d   1     -52.575  28.375  33.313  0.00  0.00     0.002 A 
ATOM     14  C   UNL d   1     -51.758  28.490  33.348  0.00  0.00     0.002 A 
ENDROOT
BRANCH   1  15
ATOM     15  S   UNL d   1     -50.195  24.780  33.455  0.00  0.00     0.214 S 
ATOM     16  O   UNL d   1     -50.289  25.583  33.600  0.00  0.00    -0.217 OA
ATOM     17  O   UNL d   1     -50.102  23.971  33.308  0.00  0.00    -0.217 OA
BRANCH  15  18
ATOM     18  C   UNL d   1     -49.382  24.656  33.495  0.00  0.00     0.088 A 
ATOM     19  C   UNL d   1     -48.937  25.346  33.388  0.00  0.00     0.011 A 
ATOM     20  C   UNL d   1     -48.108  25.306  33.414  0.00  0.00     0.001 A 
ATOM     21  C   UNL d   1     -47.729  24.584  33.547  0.00  0.00     0.000 A 
ATOM     22  C   UNL d   1     -48.177  23.899  33.654  0.00  0.00     0.001 A 
ATOM     23  C   UNL d   1     -49.004  23.933  33.628  0.00  0.00     0.011 A 
ENDBRANCH  15  18
ENDBRANCH   1  15
BRANCH   2  24
ATOM     24  C   UNL d   1     -53.066  24.378  33.330  0.00  0.00     0.108 C 
BRANCH  24  25
ATOM     25  C   UNL d   1     -53.398  24.063  34.010  0.00  0.00     0.118 A 
ATOM     26  O   UNL d   1     -53.674  24.491  34.650  0.00  0.00    -0.304 OA
ATOM     27  C   UNL d   1     -53.962  23.956  35.215  0.00  0.00     0.123 A 
ATOM     28  C   UNL d   1     -53.860  23.201  34.914  0.00  0.00     0.029 A 
ATOM     29  C   UNL d   1     -53.511  23.272  34.171  0.00  0.00     0.028 A 
ENDBRANCH  24  25
ENDBRANCH   2  24
TORSDOF 4
ENDMDL
