MODEL 1
REMARK VINA RESULT:      84.1      0.000      0.000
REMARK  3 active torsions:
REMARK  status: ('A' for Active; 'I' for Inactive)
REMARK    1  A    between atoms: C_13  and  N_2 
REMARK    2  A    between atoms: N_5  and  C_14 
REMARK    3  A    between atoms: C_14  and  C_13 
ROOT
ATOM      1  C   UNL d   1      58.744  49.569  51.080  0.00  0.00     0.166 A 
ATOM      2  N   UNL d   1      59.521  49.532  51.390  0.00  0.00    -0.288 N 
ATOM      3  C   UNL d   1      58.214  49.638  51.714  0.00  0.00     0.117 A 
ATOM      4  N   UNL d   1      58.472  49.547  50.293  0.00  0.00    -0.225 NA
ATOM      5  N   UNL d   1      57.409  49.685  51.563  0.00  0.00    -0.241 NA
ATOM      6  C   UNL d   1      58.663  49.644  52.420  0.00  0.00     0.037 A 
ATOM      7  C   UNL d   1      59.456  49.579  52.211  0.00  0.00     0.067 A 
ATOM      8  C   UNL d   1      57.664  49.594  50.136  0.00  0.00     0.101 A 
ATOM      9  C   UNL d   1      57.133  49.663  50.771  0.00  0.00     0.099 A 
ATOM     10  C   UNL d   1      58.422  49.701  53.228  0.00  0.00     0.003 A 
ATOM     11  C   UNL d   1      60.041  49.570  52.824  0.00  0.00     0.018 A 
ATOM     12  C   UNL d   1      57.382  49.573  49.347  0.00  0.00     0.021 A 
ATOM     13  C   UNL d   1      56.346  49.708  50.599  0.00  0.00     0.021 A 
ATOM     14  C   UNL d   1      58.986  49.693  53.818  0.00  0.00     0.000 A 
ATOM     15  C   UNL d   1      59.785  49.629  53.614  0.00  0.00     0.002 A 
ATOM     16  C   UNL d   1      56.047  49.688  49.827  0.00  0.00     0.002 A 
ATOM     17  C   UNL d   1      56.578  49.619  49.192  0.00  0.00     0.002 A 
ENDROOT
BRANCH   2  18
ATOM     18  C   UNL d   1      60.345  49.473  51.326  0.00  0.00     0.101 C 
BRANCH  18  19
ATOM     19  C   UNL d   1      60.705  48.732  51.286  0.00  0.00     0.104 C 
BRANCH  19  20
ATOM     20  N   UNL d   1      61.149  48.533  50.620  0.00  0.00    -0.250 N 
ATOM     21  C   UNL d   1      61.435  48.873  50.118  0.00  0.00     0.378 A 
ATOM     22  O   UNL d   1      61.737  48.430  49.714  0.00  0.00    -0.258 OA
ATOM     23  O   UNL d   1      61.423  49.535  50.034  0.00  0.00    -0.237 OA
ATOM     24  C   UNL d   1      61.635  47.817  49.969  0.00  0.00     0.121 A 
ATOM     25  C   UNL d   1      61.271  47.880  50.529  0.00  0.00     0.092 A 
ATOM     26  C   UNL d   1      61.826  47.204  49.765  0.00  0.00     0.026 A 
ATOM     27  C   UNL d   1      61.097  47.341  50.886  0.00  0.00     0.020 A 
ATOM     28  C   UNL d   1      61.291  46.730  50.678  0.00  0.00     0.002 A 
ATOM     29  C   UNL d   1      61.652  46.665  50.121  0.00  0.00     0.002 A 
ENDBRANCH  19  20
ENDBRANCH  18  19
ENDBRANCH   2  18
TORSDOF 3
ENDMDL
