MODEL 1
REMARK VINA RESULT:     127.7      0.000      0.000
REMARK  9 active torsions:
REMARK  status: ('A' for Active; 'I' for Inactive)
REMARK    1  A    between atoms: C_9  and  N_1 
REMARK    2  A    between atoms: S_8  and  C_2 
REMARK    3  A    between atoms: C_7  and  C_12 
REMARK       I    between atoms: N_13  and  C_7 
REMARK    4  A    between atoms: C_26  and  S_8 
REMARK    5  A    between atoms: C_27  and  N_13 
REMARK    6  A    between atoms: C_15  and  C_27 
REMARK    7  A    between atoms: C_16  and  C_26 
REMARK    8  A    between atoms: O_31  and  C_16 
REMARK    9  A    between atoms: C_33  and  O_31 
ROOT
ATOM      1  N   UNL d   1      61.123  47.226  52.442  0.00  0.00    -0.254 N 
ATOM      2  C   UNL d   1      61.009  46.782  51.767  0.00  0.00     0.182 A 
ATOM      3  C   UNL d   1      60.973  48.033  52.439  0.00  0.00     0.268 A 
ATOM      4  N   UNL d   1      60.744  47.151  51.085  0.00  0.00    -0.222 NA
ATOM      5  C   UNL d   1      60.709  48.401  51.761  0.00  0.00     0.074 A 
ATOM      6  C   UNL d   1      60.591  47.957  51.071  0.00  0.00     0.088 A 
ATOM      7  C   UNL d   1      60.323  48.324  50.378  0.00  0.00     0.024 A 
ATOM      8  C   UNL d   1      60.555  49.211  51.747  0.00  0.00     0.006 A 
ATOM      9  C   UNL d   1      60.172  49.135  50.375  0.00  0.00     0.059 A 
ATOM     10  O   UNL d   1      61.091  48.476  53.129  0.00  0.00    -0.267 OA
ATOM     11  C   UNL d   1      60.290  49.579  51.065  0.00  0.00     0.005 A 
ENDROOT
BRANCH   9  12
ATOM     12  C   UNL d   1      59.903  49.507  49.682  0.00  0.00     0.279 C 
ATOM     13  N   UNL d   1      59.119  49.705  49.622  0.00  0.00    -0.204 NA
ATOM     14  O   UNL d   1      60.439  49.661  49.079  0.00  0.00    -0.265 OA
BRANCH  13  15
ATOM     15  C   UNL d   1      58.598  49.542  50.236  0.00  0.00     0.127 C 
BRANCH  15  16
ATOM     16  C   UNL d   1      57.791  49.483  50.086  0.00  0.00     0.119 A 
ATOM     17  O   UNL d   1      57.331  49.683  49.450  0.00  0.00    -0.304 OA
ATOM     18  C   UNL d   1      56.548  49.499  49.605  0.00  0.00     0.123 A 
ATOM     19  C   UNL d   1      56.536  49.174  50.367  0.00  0.00     0.029 A 
ATOM     20  C   UNL d   1      57.288  49.162  50.664  0.00  0.00     0.028 A 
ENDBRANCH  15  16
ENDBRANCH  13  15
ENDBRANCH   9  12
BRANCH   2  21
ATOM     21  S   UNL d   1      61.160  45.971  51.770  0.00  0.00    -0.044 SA
BRANCH  21  22
ATOM     22  C   UNL d   1      61.126  45.543  51.073  0.00  0.00     0.107 C 
BRANCH  22  23
ATOM     23  C   UNL d   1      60.861  44.762  51.090  0.00  0.00     0.307 C 
ATOM     24  O   UNL d   1      60.720  44.378  51.810  0.00  0.00    -0.258 OA
BRANCH  23  25
ATOM     25  O   UNL d   1      60.738  44.364  50.374  0.00  0.00    -0.271 OA
BRANCH  25  26
ATOM     26  C   UNL d   1      61.392  44.084  49.955  0.00  0.00     0.126 C 
ATOM     27  C   UNL d   1      61.720  44.561  49.385  0.00  0.00     0.029 C 
ENDBRANCH  25  26
ENDBRANCH  23  25
ENDBRANCH  22  23
ENDBRANCH  21  22
ENDBRANCH   2  21
BRANCH   1  28
ATOM     28  C   UNL d   1      61.390  46.858  53.131  0.00  0.00     0.069 A 
ATOM     29  C   UNL d   1      62.197  46.841  53.303  0.00  0.00     0.020 A 
ATOM     30  C   UNL d   1      62.466  46.481  53.980  0.00  0.00     0.031 A 
ATOM     31  C   UNL d   1      61.927  46.130  54.495  0.00  0.00     0.140 A 
ATOM     32  C   UNL d   1      61.120  46.147  54.323  0.00  0.00     0.031 A 
ATOM     33  F   UNL d   1      62.204  45.760  55.190  0.00  0.00    -0.204 F 
ATOM     34  C   UNL d   1      60.851  46.509  53.644  0.00  0.00     0.020 A 
ENDBRANCH   1  28
TORSDOF 9
ENDMDL
MODEL 2
REMARK VINA RESULT:     128.0      2.366      3.623
REMARK  9 active torsions:
REMARK  status: ('A' for Active; 'I' for Inactive)
REMARK    1  A    between atoms: C_9  and  N_1 
REMARK    2  A    between atoms: S_8  and  C_2 
REMARK    3  A    between atoms: C_7  and  C_12 
REMARK       I    between atoms: N_13  and  C_7 
REMARK    4  A    between atoms: C_26  and  S_8 
REMARK    5  A    between atoms: C_27  and  N_13 
REMARK    6  A    between atoms: C_15  and  C_27 
REMARK    7  A    between atoms: C_16  and  C_26 
REMARK    8  A    between atoms: O_31  and  C_16 
REMARK    9  A    between atoms: C_33  and  O_31 
ROOT
ATOM      1  N   UNL d   1      61.307  45.687  50.146  0.00  0.00    -0.254 N 
ATOM      2  C   UNL d   1      60.610  45.706  50.568  0.00  0.00     0.182 A 
ATOM      3  C   UNL d   1      61.658  46.384  49.891  0.00  0.00     0.268 A 
ATOM      4  N   UNL d   1      60.264  46.428  50.736  0.00  0.00    -0.222 NA
ATOM      5  C   UNL d   1      61.314  47.103  50.058  0.00  0.00     0.074 A 
ATOM      6  C   UNL d   1      60.606  47.131  50.487  0.00  0.00     0.088 A 
ATOM      7  C   UNL d   1      60.250  47.859  50.660  0.00  0.00     0.024 A 
ATOM      8  C   UNL d   1      61.658  47.810  49.807  0.00  0.00     0.006 A 
ATOM      9  C   UNL d   1      60.602  48.560  50.405  0.00  0.00     0.059 A 
ATOM     10  O   UNL d   1      62.367  46.356  49.462  0.00  0.00    -0.267 OA
ATOM     11  C   UNL d   1      61.311  48.533  49.975  0.00  0.00     0.005 A 
ENDROOT
BRANCH   9  12
ATOM     12  C   UNL d   1      60.248  49.292  50.577  0.00  0.00     0.279 C 
ATOM     13  N   UNL d   1      60.500  49.706  51.226  0.00  0.00    -0.204 NA
ATOM     14  O   UNL d   1      59.655  49.573  50.083  0.00  0.00    -0.265 OA
BRANCH  13  15
ATOM     15  C   UNL d   1      61.095  49.409  51.708  0.00  0.00     0.127 C 
BRANCH  15  16
ATOM     16  C   UNL d   1      61.062  49.525  52.523  0.00  0.00     0.119 A 
ATOM     17  O   UNL d   1      60.449  49.592  53.047  0.00  0.00    -0.304 OA
ATOM     18  C   UNL d   1      60.741  49.705  53.804  0.00  0.00     0.123 A 
ATOM     19  C   UNL d   1      61.567  49.705  53.732  0.00  0.00     0.029 A 
ATOM     20  C   UNL d   1      61.768  49.597  52.956  0.00  0.00     0.028 A 
ENDBRANCH  15  16
ENDBRANCH  13  15
ENDBRANCH   9  12
BRANCH   2  21
ATOM     21  S   UNL d   1      60.258  45.005  50.824  0.00  0.00    -0.044 SA
BRANCH  21  22
ATOM     22  C   UNL d   1      59.511  45.018  51.158  0.00  0.00     0.107 C 
BRANCH  22  23
ATOM     23  C   UNL d   1      58.985  44.402  50.998  0.00  0.00     0.307 C 
ATOM     24  O   UNL d   1      59.250  43.698  50.652  0.00  0.00    -0.258 OA
BRANCH  23  25
ATOM     25  O   UNL d   1      58.184  44.498  51.189  0.00  0.00    -0.271 OA
BRANCH  25  26
ATOM     26  C   UNL d   1      57.804  45.198  50.975  0.00  0.00     0.126 C 
ATOM     27  C   UNL d   1      57.022  45.165  50.756  0.00  0.00     0.029 C 
ENDBRANCH  25  26
ENDBRANCH  23  25
ENDBRANCH  22  23
ENDBRANCH  21  22
ENDBRANCH   2  21
BRANCH   1  28
ATOM     28  C   UNL d   1      61.660  44.960  49.974  0.00  0.00     0.069 A 
ATOM     29  C   UNL d   1      61.692  44.690  49.195  0.00  0.00     0.020 A 
ATOM     30  C   UNL d   1      62.037  43.977  49.020  0.00  0.00     0.031 A 
ATOM     31  C   UNL d   1      62.358  43.520  49.627  0.00  0.00     0.140 A 
ATOM     32  C   UNL d   1      62.326  43.790  50.406  0.00  0.00     0.031 A 
ATOM     33  F   UNL d   1      62.713  42.787  49.446  0.00  0.00    -0.204 F 
ATOM     34  C   UNL d   1      61.979  44.507  50.581  0.00  0.00     0.020 A 
ENDBRANCH   1  28
TORSDOF 9
ENDMDL
