MODEL 1
REMARK VINA RESULT:      -2.7      0.000      0.000
REMARK  2 active torsions:
REMARK  status: ('A' for Active; 'I' for Inactive)
REMARK    1  A    between atoms: C_6  and  C_1 
REMARK       I    between atoms: N_10  and  C_6 
REMARK    2  A    between atoms: C_12  and  N_10 
ROOT
ATOM      1  C   UNL d   1      32.833  19.556 -22.830  0.00  0.00     0.108 A 
ATOM      2  C   UNL d   1      32.927  20.833 -22.489  0.00  0.00     0.044 A 
ATOM      3  C   UNL d   1      32.940  20.374 -21.796  0.00  0.00     0.112 A 
ATOM      4  S   UNL d   1      32.881  19.583 -22.020  0.00  0.00    -0.061 SA
ATOM      5  C   UNL d   1      32.860  20.320 -23.133  0.00  0.00     0.116 A 
ATOM      6  N   UNL d   1      33.004  20.754 -21.059  0.00  0.00    -0.239 NA
ATOM      7  C   UNL d   1      33.042  22.025 -21.702  0.00  0.00     0.056 A 
ATOM      8  C   UNL d   1      33.055  21.566 -21.009  0.00  0.00     0.081 A 
ATOM      9  C   UNL d   1      32.979  21.664 -22.434  0.00  0.00     0.008 A 
ATOM     10  C   UNL d   1      33.092  22.841 -21.657  0.00  0.00     0.193 A 
ATOM     11  C   UNL d   1      33.169  22.759 -20.222  0.00  0.00     0.042 A 
ATOM     12  C   UNL d   1      33.117  21.930 -20.283  0.00  0.00    -0.003 A 
ATOM     13  C   UNL d   1      33.156  23.218 -20.915  0.00  0.00     0.019 A 
ATOM     14  O   UNL d   1      33.079  23.303 -22.356  0.00  0.00    -0.287 OA
ATOM     15  N   UNL d   1      32.827  20.538 -23.947  0.00  0.00    -0.147 N 
ATOM     16  C   UNL d   1      33.212  22.701 -19.413  0.00  0.00     0.009 C 
ATOM     17  C   UNL d   1      33.236  23.359 -19.661  0.00  0.00     0.009 C 
ENDROOT
BRANCH   1  18
ATOM     18  C   UNL d   1      32.768  18.859 -23.266  0.00  0.00     0.287 C 
ATOM     19  N   UNL d   1      32.234  18.263 -23.046  0.00  0.00    -0.208 NA
ATOM     20  O   UNL d   1      33.241  18.760 -23.927  0.00  0.00    -0.265 OA
BRANCH  19  21
ATOM     21  C   UNL d   1      32.169  17.572 -23.480  0.00  0.00     0.085 A 
ATOM     22  C   UNL d   1      32.661  16.926 -23.333  0.00  0.00     0.018 A 
ATOM     23  C   UNL d   1      32.597  16.241 -23.763  0.00  0.00     0.002 A 
ATOM     24  C   UNL d   1      33.241  16.965 -22.734  0.00  0.00     0.002 C 
ATOM     25  C   UNL d   1      32.012  16.205 -24.366  0.00  0.00     0.000 A 
ATOM     26  C   UNL d   1      31.525  16.848 -24.509  0.00  0.00     0.002 A 
ATOM     27  C   UNL d   1      31.909  15.529 -24.830  0.00  0.00     0.000 C 
ATOM     28  C   UNL d   1      31.603  17.525 -24.070  0.00  0.00     0.018 A 
ATOM     29  C   UNL d   1      31.104  18.187 -24.215  0.00  0.00     0.002 C 
ENDBRANCH  19  21
ENDBRANCH   1  18
TORSDOF 2
ENDMDL
