MODEL 1
REMARK VINA RESULT:      -3.6      0.000      0.000
REMARK  5 active torsions:
REMARK  status: ('A' for Active; 'I' for Inactive)
REMARK    1  A    between atoms: C_6  and  N_1 
REMARK    2  A    between atoms: C_5  and  C_6 
REMARK       I    between atoms: N_7  and  C_5 
REMARK    3  A    between atoms: C_8  and  N_7 
REMARK    4  A    between atoms: O_19  and  C_9 
REMARK    5  A    between atoms: O_20  and  C_17 
ROOT
ATOM      1  C   UNL d   1      58.007  -0.341  30.458  0.00  0.00     0.297 C 
ATOM      2  N   UNL d   1      57.329  -0.476  30.909  0.00  0.00    -0.205 NA
ATOM      3  O   UNL d   1      58.647   0.062  30.787  0.00  0.00    -0.264 OA
ENDROOT
BRANCH   1   4
ATOM      4  C   UNL d   1      58.045  -0.607  29.683  0.00  0.00     0.148 C 
BRANCH   4   5
ATOM      5  N   UNL d   1      58.761  -0.870  29.370  0.00  0.00    -0.235 N 
ATOM      6  C   UNL d   1      58.935  -1.685  29.364  0.00  0.00     0.273 A 
ATOM      7  C   UNL d   1      59.652  -1.948  29.051  0.00  0.00     0.086 A 
ATOM      8  O   UNL d   1      58.386  -2.226  29.673  0.00  0.00    -0.266 OA
ATOM      9  C   UNL d   1      59.831  -2.756  29.042  0.00  0.00     0.012 C 
ATOM     10  S   UNL d   1      60.196  -1.397  28.744  0.00  0.00    -0.077 SA
ATOM     11  C   UNL d   1      60.017  -0.598  28.754  0.00  0.00     0.097 A 
ATOM     12  C   UNL d   1      59.301  -0.335  29.066  0.00  0.00     0.274 A 
ATOM     13  O   UNL d   1      59.119   0.483  29.075  0.00  0.00    -0.266 OA
ENDBRANCH   4   5
ENDBRANCH   1   4
BRANCH   2  14
ATOM     14  C   UNL d   1      57.293  -0.208  31.689  0.00  0.00     0.107 A 
ATOM     15  C   UNL d   1      56.783  -0.562  32.219  0.00  0.00     0.114 A 
ATOM     16  C   UNL d   1      56.741  -0.306  32.986  0.00  0.00     0.050 A 
ATOM     17  C   UNL d   1      57.223   0.326  33.236  0.00  0.00     0.096 A 
ATOM     18  C   UNL d   1      57.733   0.681  32.707  0.00  0.00     0.026 A 
ATOM     19  C   UNL d   1      57.766   0.407  31.921  0.00  0.00     0.023 A 
BRANCH  15  20
ATOM     20  O   UNL d   1      56.293  -1.201  31.977  0.00  0.00    -0.327 OA
ATOM     21  C   UNL d   1      55.843  -1.608  32.542  0.00  0.00     0.181 C 
ENDBRANCH  15  20
BRANCH  17  22
ATOM     22  O   UNL d   1      57.179   0.591  34.029  0.00  0.00    -0.328 OA
ATOM     23  C   UNL d   1      57.863   0.682  34.481  0.00  0.00     0.181 C 
ENDBRANCH  17  22
ENDBRANCH   2  14
TORSDOF 5
ENDMDL
MODEL 2
REMARK VINA RESULT:      -3.3      1.717      4.575
REMARK  5 active torsions:
REMARK  status: ('A' for Active; 'I' for Inactive)
REMARK    1  A    between atoms: C_6  and  N_1 
REMARK    2  A    between atoms: C_5  and  C_6 
REMARK       I    between atoms: N_7  and  C_5 
REMARK    3  A    between atoms: C_8  and  N_7 
REMARK    4  A    between atoms: O_19  and  C_9 
REMARK    5  A    between atoms: O_20  and  C_17 
ROOT
ATOM      1  C   UNL d   1      57.767   0.005  30.822  0.00  0.00     0.297 C 
ATOM      2  N   UNL d   1      58.266   0.075  30.168  0.00  0.00    -0.205 NA
ATOM      3  O   UNL d   1      57.538  -0.742  31.087  0.00  0.00    -0.264 OA
ENDROOT
BRANCH   1   4
ATOM      4  C   UNL d   1      57.498   0.678  31.208  0.00  0.00     0.148 C 
BRANCH   4   5
ATOM      5  N   UNL d   1      57.273   0.637  32.001  0.00  0.00    -0.235 N 
ATOM      6  C   UNL d   1      56.464   0.595  32.199  0.00  0.00     0.273 A 
ATOM      7  C   UNL d   1      56.239   0.555  32.992  0.00  0.00     0.086 A 
ATOM      8  O   UNL d   1      55.892   0.594  31.598  0.00  0.00    -0.266 OA
ATOM      9  C   UNL d   1      55.439   0.513  33.197  0.00  0.00     0.012 C 
ATOM     10  S   UNL d   1      56.823   0.557  33.587  0.00  0.00    -0.077 SA
ATOM     11  C   UNL d   1      57.614   0.599  33.384  0.00  0.00     0.097 A 
ATOM     12  C   UNL d   1      57.839   0.639  32.591  0.00  0.00     0.274 A 
ATOM     13  O   UNL d   1      58.650   0.682  32.384  0.00  0.00    -0.266 OA
ENDBRANCH   4   5
ENDBRANCH   1   4
BRANCH   2  14
ATOM     14  C   UNL d   1      58.535  -0.602  29.781  0.00  0.00     0.107 A 
ATOM     15  C   UNL d   1      59.179  -0.557  29.282  0.00  0.00     0.114 A 
ATOM     16  C   UNL d   1      59.451  -1.217  28.898  0.00  0.00     0.050 A 
ATOM     17  C   UNL d   1      59.068  -1.948  29.014  0.00  0.00     0.096 A 
ATOM     18  C   UNL d   1      58.424  -1.993  29.513  0.00  0.00     0.026 A 
ATOM     19  C   UNL d   1      58.156  -1.307  29.902  0.00  0.00     0.023 A 
BRANCH  15  20
ATOM     20  O   UNL d   1      59.573   0.175  29.158  0.00  0.00    -0.327 OA
ATOM     21  C   UNL d   1      60.268   0.194  28.707  0.00  0.00     0.181 C 
ENDBRANCH  15  20
BRANCH  17  22
ATOM     22  O   UNL d   1      59.349  -2.630  28.617  0.00  0.00    -0.328 OA
ATOM     23  C   UNL d   1      58.935  -3.342  28.660  0.00  0.00     0.181 C 
ENDBRANCH  17  22
ENDBRANCH   2  14
TORSDOF 5
ENDMDL
MODEL 3
REMARK VINA RESULT:      -2.1      1.133      1.833
REMARK  5 active torsions:
REMARK  status: ('A' for Active; 'I' for Inactive)
REMARK    1  A    between atoms: C_6  and  N_1 
REMARK    2  A    between atoms: C_5  and  C_6 
REMARK       I    between atoms: N_7  and  C_5 
REMARK    3  A    between atoms: C_8  and  N_7 
REMARK    4  A    between atoms: O_19  and  C_9 
REMARK    5  A    between atoms: O_20  and  C_17 
ROOT
ATOM      1  C   UNL d   1      58.240  -1.121  29.840  0.00  0.00     0.297 C 
ATOM      2  N   UNL d   1      58.258  -0.413  30.262  0.00  0.00    -0.205 NA
ATOM      3  O   UNL d   1      57.775  -1.748  30.108  0.00  0.00    -0.264 OA
ENDROOT
BRANCH   1   4
ATOM      4  C   UNL d   1      58.682  -1.204  29.154  0.00  0.00     0.148 C 
BRANCH   4   5
ATOM      5  N   UNL d   1      59.213  -1.831  29.076  0.00  0.00    -0.235 N 
ATOM      6  C   UNL d   1      58.933  -2.585  28.856  0.00  0.00     0.273 A 
ATOM      7  C   UNL d   1      59.463  -3.212  28.779  0.00  0.00     0.086 A 
ATOM      8  O   UNL d   1      58.122  -2.698  28.716  0.00  0.00    -0.266 OA
ATOM      9  C   UNL d   1      59.192  -3.962  28.560  0.00  0.00     0.012 C 
ATOM     10  S   UNL d   1      60.275  -3.086  28.922  0.00  0.00    -0.077 SA
ATOM     11  C   UNL d   1      60.541  -2.343  29.137  0.00  0.00     0.097 A 
ATOM     12  C   UNL d   1      60.011  -1.716  29.215  0.00  0.00     0.274 A 
ATOM     13  O   UNL d   1      60.285  -0.956  29.436  0.00  0.00    -0.266 OA
ENDBRANCH   4   5
ENDBRANCH   1   4
BRANCH   2  14
ATOM     14  C   UNL d   1      57.812  -0.332  30.952  0.00  0.00     0.107 A 
ATOM     15  C   UNL d   1      58.047   0.194  31.529  0.00  0.00     0.114 A 
ATOM     16  C   UNL d   1      57.616   0.280  32.210  0.00  0.00     0.050 A 
ATOM     17  C   UNL d   1      56.925  -0.173  32.320  0.00  0.00     0.096 A 
ATOM     18  C   UNL d   1      56.691  -0.700  31.743  0.00  0.00     0.026 A 
ATOM     19  C   UNL d   1      57.144  -0.778  31.048  0.00  0.00     0.023 A 
BRANCH  15  20
ATOM     20  O   UNL d   1      58.742   0.657  31.429  0.00  0.00    -0.327 OA
ATOM     21  C   UNL d   1      59.308   0.682  32.033  0.00  0.00     0.181 C 
ENDBRANCH  15  20
BRANCH  17  22
ATOM     22  O   UNL d   1      56.480  -0.084  33.023  0.00  0.00    -0.328 OA
ATOM     23  C   UNL d   1      55.656  -0.118  33.006  0.00  0.00     0.181 C 
ENDBRANCH  17  22
ENDBRANCH   2  14
TORSDOF 5
ENDMDL
MODEL 4
REMARK VINA RESULT:      -2.0      8.678     10.033
REMARK  5 active torsions:
REMARK  status: ('A' for Active; 'I' for Inactive)
REMARK    1  A    between atoms: C_6  and  N_1 
REMARK    2  A    between atoms: C_5  and  C_6 
REMARK       I    between atoms: N_7  and  C_5 
REMARK    3  A    between atoms: C_8  and  N_7 
REMARK    4  A    between atoms: O_19  and  C_9 
REMARK    5  A    between atoms: O_20  and  C_17 
ROOT
ATOM      1  C   UNL d   1      59.116  -9.403  34.519  0.00  0.00     0.297 C 
ATOM      2  N   UNL d   1      59.521  -9.817  33.932  0.00  0.00    -0.205 NA
ATOM      3  O   UNL d   1      58.427  -8.989  34.330  0.00  0.00    -0.264 OA
ENDROOT
BRANCH   1   4
ATOM      4  C   UNL d   1      59.395  -9.401  35.290  0.00  0.00     0.148 C 
BRANCH   4   5
ATOM      5  N   UNL d   1      59.813  -8.750  35.578  0.00  0.00    -0.235 N 
ATOM      6  C   UNL d   1      59.405  -8.048  35.765  0.00  0.00     0.273 A 
ATOM      7  C   UNL d   1      59.823  -7.397  36.053  0.00  0.00     0.086 A 
ATOM      8  O   UNL d   1      58.583  -8.009  35.661  0.00  0.00    -0.266 OA
ATOM      9  C   UNL d   1      59.425  -6.696  36.241  0.00  0.00     0.012 C 
ATOM     10  S   UNL d   1      60.649  -7.448  36.154  0.00  0.00    -0.077 SA
ATOM     11  C   UNL d   1      61.041  -8.141  35.968  0.00  0.00     0.097 A 
ATOM     12  C   UNL d   1      60.624  -8.792  35.680  0.00  0.00     0.274 A 
ATOM     13  O   UNL d   1      61.027  -9.502  35.490  0.00  0.00    -0.266 OA
ENDBRANCH   4   5
ENDBRANCH   1   4
BRANCH   2  14
ATOM     14  C   UNL d   1      59.238  -9.817  33.157  0.00  0.00     0.107 A 
ATOM     15  C   UNL d   1      59.762  -9.817  32.531  0.00  0.00     0.114 A 
ATOM     16  C   UNL d   1      59.494  -9.818  31.767  0.00  0.00     0.050 A 
ATOM     17  C   UNL d   1      58.673  -9.818  31.619  0.00  0.00     0.096 A 
ATOM     18  C   UNL d   1      58.149  -9.818  32.244  0.00  0.00     0.026 A 
ATOM     19  C   UNL d   1      58.439  -9.818  33.025  0.00  0.00     0.023 A 
BRANCH  15  20
ATOM     20  O   UNL d   1      60.592  -9.817  32.669  0.00  0.00    -0.327 OA
ATOM     21  C   UNL d   1      61.111  -9.663  32.042  0.00  0.00     0.181 C 
ENDBRANCH  15  20
BRANCH  17  22
ATOM     22  O   UNL d   1      58.396  -9.818  30.829  0.00  0.00    -0.328 OA
ATOM     23  C   UNL d   1      57.588  -9.773  30.666  0.00  0.00     0.181 C 
ENDBRANCH  17  22
ENDBRANCH   2  14
TORSDOF 5
ENDMDL
