MODEL 1
REMARK VINA RESULT:       0.8      0.000      0.000
REMARK  2 active torsions:
REMARK  status: ('A' for Active; 'I' for Inactive)
REMARK       I    between atoms: C_3  and  N_1 
REMARK       I    between atoms: C_4  and  N_2 
REMARK    1  A    between atoms: C_6  and  C_3 
REMARK    2  A    between atoms: C_8  and  C_4 
ROOT
ATOM      1  N   UNL d   1     -41.557-121.771 -51.221  0.00  0.00    -0.270 N 
ATOM      2  N   UNL d   1     -41.460-121.767 -52.874  0.00  0.00    -0.269 N 
ATOM      3  C   UNL d   1     -41.604-121.773 -50.400  0.00  0.00     0.265 C 
ATOM      4  C   UNL d   1     -41.411-121.762 -53.699  0.00  0.00     0.265 C 
ATOM      5  C   UNL d   1     -41.317-121.087 -51.623  0.00  0.00     0.085 A 
ATOM      6  C   UNL d   1     -41.267-121.076 -52.444  0.00  0.00     0.101 A 
ATOM      7  C   UNL d   1     -41.746-122.450 -51.651  0.00  0.00     0.102 A 
ATOM      8  C   UNL d   1     -41.698-122.448 -52.485  0.00  0.00     0.102 A 
ATOM      9  O   UNL d   1     -41.413-121.091 -49.970  0.00  0.00    -0.267 OA
ATOM     10  O   UNL d   1     -41.171-121.072 -54.097  0.00  0.00    -0.267 OA
ATOM     11  C   UNL d   1     -41.125-120.399 -51.193  0.00  0.00     0.021 C 
ENDROOT
BRANCH   3  12
ATOM     12  C   UNL d   1     -41.842-122.454 -50.003  0.00  0.00     0.057 A 
ATOM     13  C   UNL d   1     -42.641-122.575 -49.833  0.00  0.00     0.005 A 
ATOM     14  C   UNL d   1     -42.880-123.257 -49.435  0.00  0.00     0.000 A 
ATOM     15  C   UNL d   1     -43.679-123.379 -49.264  0.00  0.00     0.000 C 
ATOM     16  C   UNL d   1     -42.320-123.817 -49.208  0.00  0.00     0.000 A 
ATOM     17  C   UNL d   1     -41.513-123.695 -49.380  0.00  0.00     0.000 A 
ATOM     18  C   UNL d   1     -41.283-123.015 -49.776  0.00  0.00     0.005 A 
ENDBRANCH   3  12
BRANCH   4  19
ATOM     19  C   UNL d   1     -41.601-122.441 -54.125  0.00  0.00     0.057 A 
ATOM     20  C   UNL d   1     -42.224-122.420 -54.667  0.00  0.00     0.005 A 
ATOM     21  C   UNL d   1     -42.414-123.099 -55.093  0.00  0.00     0.000 A 
ATOM     22  C   UNL d   1     -43.036-123.086 -55.637  0.00  0.00     0.000 C 
ATOM     23  C   UNL d   1     -41.981-123.799 -54.978  0.00  0.00     0.000 A 
ATOM     24  C   UNL d   1     -41.365-123.816 -54.441  0.00  0.00     0.000 A 
ATOM     25  C   UNL d   1     -41.170-123.132 -54.008  0.00  0.00     0.005 A 
ENDBRANCH   4  19
TORSDOF 2
ENDMDL
MODEL 2
REMARK VINA RESULT:       2.8      0.209      4.227
REMARK  2 active torsions:
REMARK  status: ('A' for Active; 'I' for Inactive)
REMARK       I    between atoms: C_3  and  N_1 
REMARK       I    between atoms: C_4  and  N_2 
REMARK    1  A    between atoms: C_6  and  C_3 
REMARK    2  A    between atoms: C_8  and  C_4 
ROOT
ATOM      1  N   UNL d   1     -41.517-121.755 -52.797  0.00  0.00    -0.270 N 
ATOM      2  N   UNL d   1     -41.547-121.756 -51.141  0.00  0.00    -0.269 N 
ATOM      3  C   UNL d   1     -41.502-121.754 -53.619  0.00  0.00     0.265 C 
ATOM      4  C   UNL d   1     -41.561-121.753 -50.315  0.00  0.00     0.265 C 
ATOM      5  C   UNL d   1     -41.328-121.066 -52.376  0.00  0.00     0.085 A 
ATOM      6  C   UNL d   1     -41.341-121.058 -51.554  0.00  0.00     0.101 A 
ATOM      7  C   UNL d   1     -41.719-122.441 -52.384  0.00  0.00     0.102 A 
ATOM      8  C   UNL d   1     -41.735-122.442 -51.549  0.00  0.00     0.102 A 
ATOM      9  O   UNL d   1     -41.298-121.064 -54.031  0.00  0.00    -0.267 OA
ATOM     10  O   UNL d   1     -41.371-121.059 -49.898  0.00  0.00    -0.267 OA
ATOM     11  C   UNL d   1     -41.123-120.371 -52.788  0.00  0.00     0.021 C 
ENDROOT
BRANCH   3  12
ATOM     12  C   UNL d   1     -41.689-122.440 -54.035  0.00  0.00     0.057 A 
ATOM     13  C   UNL d   1     -42.332-122.445 -54.553  0.00  0.00     0.005 A 
ATOM     14  C   UNL d   1     -42.520-123.132 -54.970  0.00  0.00     0.000 A 
ATOM     15  C   UNL d   1     -43.163-123.138 -55.489  0.00  0.00     0.000 C 
ATOM     16  C   UNL d   1     -42.066-123.812 -54.868  0.00  0.00     0.000 A 
ATOM     17  C   UNL d   1     -41.417-123.806 -54.344  0.00  0.00     0.000 A 
ATOM     18  C   UNL d   1     -41.235-123.120 -53.933  0.00  0.00     0.005 A 
ENDBRANCH   3  12
BRANCH   4  19
ATOM     19  C   UNL d   1     -41.764-122.439 -49.906  0.00  0.00     0.057 A 
ATOM     20  C   UNL d   1     -42.560-122.620 -49.785  0.00  0.00     0.005 A 
ATOM     21  C   UNL d   1     -42.763-123.306 -49.376  0.00  0.00     0.000 A 
ATOM     22  C   UNL d   1     -43.558-123.494 -49.251  0.00  0.00     0.000 C 
ATOM     23  C   UNL d   1     -42.169-123.812 -49.088  0.00  0.00     0.000 A 
ATOM     24  C   UNL d   1     -41.381-123.629 -49.210  0.00  0.00     0.000 A 
ATOM     25  C   UNL d   1     -41.172-122.937 -49.623  0.00  0.00     0.005 A 
ENDBRANCH   4  19
TORSDOF 2
ENDMDL
