MODEL 1
REMARK VINA RESULT:      -2.6      0.000      0.000
REMARK  5 active torsions:
REMARK  status: ('A' for Active; 'I' for Inactive)
REMARK    1  A    between atoms: N_2  and  S_1 
REMARK    2  A    between atoms: C_7  and  S_1 
REMARK    3  A    between atoms: C_3  and  N_2 
REMARK    4  A    between atoms: N_6  and  C_8 
REMARK    5  A    between atoms: C_9  and  N_6 
ROOT
ATOM      1  C   UNL d   1      31.321  16.582 -24.254  0.00  0.00     0.111 A 
ATOM      2  C   UNL d   1      31.989  17.060 -24.198  0.00  0.00     0.100 A 
ATOM      3  C   UNL d   1      31.374  15.798 -23.996  0.00  0.00     0.021 A 
ATOM      4  C   UNL d   1      32.692  16.767 -23.893  0.00  0.00     0.021 A 
ATOM      5  C   UNL d   1      32.078  15.505 -23.691  0.00  0.00     0.002 A 
ATOM      6  C   UNL d   1      32.744  15.988 -23.637  0.00  0.00     0.002 A 
ENDROOT
BRANCH   1   7
ATOM      7  N   UNL d   1      30.618  16.875 -24.559  0.00  0.00    -0.157 NA
BRANCH   7   8
ATOM      8  S   UNL d   1      29.901  16.523 -24.361  0.00  0.00     0.285 S 
ATOM      9  O   UNL d   1      29.781  17.093 -23.775  0.00  0.00    -0.198 OA
ATOM     10  O   UNL d   1      30.026  15.942 -24.958  0.00  0.00    -0.198 OA
BRANCH   8  11
ATOM     11  C   UNL d   1      29.167  16.161 -24.160  0.00  0.00     0.105 A 
ATOM     12  C   UNL d   1      28.903  16.161 -23.364  0.00  0.00     0.013 A 
ATOM     13  C   UNL d   1      28.187  15.805 -23.177  0.00  0.00     0.001 A 
ATOM     14  C   UNL d   1      27.729  15.453 -23.754  0.00  0.00     0.000 A 
ATOM     15  C   UNL d   1      27.994  15.453 -24.550  0.00  0.00     0.001 A 
ATOM     16  C   UNL d   1      28.712  15.805 -24.756  0.00  0.00     0.013 A 
ENDBRANCH   8  11
ENDBRANCH   7   8
ENDBRANCH   1   7
BRANCH   2  17
ATOM     17  N   UNL d   1      31.930  17.866 -24.465  0.00  0.00    -0.244 NA
BRANCH  17  18
ATOM     18  C   UNL d   1      32.363  18.462 -24.103  0.00  0.00     0.081 A 
ATOM     19  C   UNL d   1      32.786  18.978 -24.562  0.00  0.00     0.019 A 
ATOM     20  C   UNL d   1      33.227  19.585 -24.219  0.00  0.00     0.002 A 
ATOM     21  C   UNL d   1      33.241  19.671 -23.394  0.00  0.00     0.000 A 
ATOM     22  C   UNL d   1      32.811  19.145 -22.929  0.00  0.00     0.002 A 
ATOM     23  C   UNL d   1      32.369  18.538 -23.277  0.00  0.00     0.019 A 
ENDBRANCH  17  18
ENDBRANCH   2  17
TORSDOF 5
ENDMDL
MODEL 2
REMARK VINA RESULT:      -2.2      1.201      4.246
REMARK  5 active torsions:
REMARK  status: ('A' for Active; 'I' for Inactive)
REMARK    1  A    between atoms: N_2  and  S_1 
REMARK    2  A    between atoms: C_7  and  S_1 
REMARK    3  A    between atoms: C_3  and  N_2 
REMARK    4  A    between atoms: N_6  and  C_8 
REMARK    5  A    between atoms: C_9  and  N_6 
ROOT
ATOM      1  C   UNL d   1      31.969  17.041 -23.953  0.00  0.00     0.111 A 
ATOM      2  C   UNL d   1      31.371  16.491 -24.089  0.00  0.00     0.100 A 
ATOM      3  C   UNL d   1      32.658  16.789 -23.572  0.00  0.00     0.021 A 
ATOM      4  C   UNL d   1      31.457  15.710 -23.852  0.00  0.00     0.021 A 
ATOM      5  C   UNL d   1      32.743  16.008 -23.335  0.00  0.00     0.002 A 
ATOM      6  C   UNL d   1      32.142  15.460 -23.473  0.00  0.00     0.002 A 
ENDROOT
BRANCH   1   7
ATOM      7  N   UNL d   1      31.883  17.821 -24.191  0.00  0.00    -0.157 NA
BRANCH   7   8
ATOM      8  S   UNL d   1      32.222  18.429 -23.750  0.00  0.00     0.285 S 
ATOM      9  O   UNL d   1      32.769  18.564 -24.353  0.00  0.00    -0.198 OA
ATOM     10  O   UNL d   1      31.662  18.289 -23.135  0.00  0.00    -0.198 OA
BRANCH   8  11
ATOM     11  C   UNL d   1      32.566  19.049 -23.297  0.00  0.00     0.105 A 
ATOM     12  C   UNL d   1      32.643  18.970 -22.465  0.00  0.00     0.013 A 
ATOM     13  C   UNL d   1      32.980  19.580 -22.031  0.00  0.00     0.001 A 
ATOM     14  C   UNL d   1      33.241  20.262 -22.397  0.00  0.00     0.000 A 
ATOM     15  C   UNL d   1      33.164  20.341 -23.228  0.00  0.00     0.001 A 
ATOM     16  C   UNL d   1      32.828  19.737 -23.681  0.00  0.00     0.013 A 
ENDBRANCH   8  11
ENDBRANCH   7   8
ENDBRANCH   1   7
BRANCH   2  17
ATOM     17  N   UNL d   1      30.664  16.753 -24.482  0.00  0.00    -0.244 NA
BRANCH  17  18
ATOM     18  C   UNL d   1      29.962  16.333 -24.411  0.00  0.00     0.081 A 
ATOM     19  C   UNL d   1      29.706  15.883 -25.034  0.00  0.00     0.019 A 
ATOM     20  C   UNL d   1      29.003  15.453 -24.984  0.00  0.00     0.002 A 
ATOM     21  C   UNL d   1      28.551  15.480 -24.289  0.00  0.00     0.000 A 
ATOM     22  C   UNL d   1      28.812  15.938 -23.657  0.00  0.00     0.002 A 
ATOM     23  C   UNL d   1      29.518  16.368 -23.711  0.00  0.00     0.019 A 
ENDBRANCH  17  18
ENDBRANCH   2  17
TORSDOF 5
ENDMDL
MODEL 3
REMARK VINA RESULT:      -1.4      1.106      4.179
REMARK  5 active torsions:
REMARK  status: ('A' for Active; 'I' for Inactive)
REMARK    1  A    between atoms: N_2  and  S_1 
REMARK    2  A    between atoms: C_7  and  S_1 
REMARK    3  A    between atoms: C_3  and  N_2 
REMARK    4  A    between atoms: N_6  and  C_8 
REMARK    5  A    between atoms: C_9  and  N_6 
ROOT
ATOM      1  C   UNL d   1      31.624  16.730 -24.308  0.00  0.00     0.111 A 
ATOM      2  C   UNL d   1      30.948  16.280 -24.172  0.00  0.00     0.100 A 
ATOM      3  C   UNL d   1      32.318  16.532 -23.903  0.00  0.00     0.021 A 
ATOM      4  C   UNL d   1      30.962  15.649 -23.647  0.00  0.00     0.021 A 
ATOM      5  C   UNL d   1      32.331  15.901 -23.379  0.00  0.00     0.002 A 
ATOM      6  C   UNL d   1      31.651  15.453 -23.246  0.00  0.00     0.002 A 
ENDROOT
BRANCH   1   7
ATOM      7  N   UNL d   1      31.611  17.361 -24.832  0.00  0.00    -0.157 NA
BRANCH   7   8
ATOM      8  S   UNL d   1      32.018  18.055 -24.656  0.00  0.00     0.285 S 
ATOM      9  O   UNL d   1      32.688  17.614 -24.459  0.00  0.00    -0.198 OA
ATOM     10  O   UNL d   1      31.333  18.502 -24.858  0.00  0.00    -0.198 OA
BRANCH   8  11
ATOM     11  C   UNL d   1      32.431  18.767 -24.478  0.00  0.00     0.105 A 
ATOM     12  C   UNL d   1      32.479  19.037 -23.685  0.00  0.00     0.013 A 
ATOM     13  C   UNL d   1      32.884  19.732 -23.520  0.00  0.00     0.001 A 
ATOM     14  C   UNL d   1      33.241  20.162 -24.115  0.00  0.00     0.000 A 
ATOM     15  C   UNL d   1      33.193  19.891 -24.908  0.00  0.00     0.001 A 
ATOM     16  C   UNL d   1      32.790  19.195 -25.092  0.00  0.00     0.013 A 
ENDBRANCH   8  11
ENDBRANCH   7   8
ENDBRANCH   1   7
BRANCH   2  17
ATOM     17  N   UNL d   1      30.236  16.487 -24.589  0.00  0.00    -0.244 NA
BRANCH  17  18
ATOM     18  C   UNL d   1      29.498  16.335 -24.264  0.00  0.00     0.081 A 
ATOM     19  C   UNL d   1      29.106  15.658 -24.473  0.00  0.00     0.019 A 
ATOM     20  C   UNL d   1      28.362  15.486 -24.159  0.00  0.00     0.002 A 
ATOM     21  C   UNL d   1      28.010  16.010 -23.621  0.00  0.00     0.000 A 
ATOM     22  C   UNL d   1      28.410  16.697 -23.409  0.00  0.00     0.002 A 
ATOM     23  C   UNL d   1      29.156  16.867 -23.727  0.00  0.00     0.019 A 
ENDBRANCH  17  18
ENDBRANCH   2  17
TORSDOF 5
ENDMDL
MODEL 4
REMARK VINA RESULT:      -0.9      5.062      7.068
REMARK  5 active torsions:
REMARK  status: ('A' for Active; 'I' for Inactive)
REMARK    1  A    between atoms: N_2  and  S_1 
REMARK    2  A    between atoms: C_7  and  S_1 
REMARK    3  A    between atoms: C_3  and  N_2 
REMARK    4  A    between atoms: N_6  and  C_8 
REMARK    5  A    between atoms: C_9  and  N_6 
ROOT
ATOM      1  C   UNL d   1      32.732  22.287 -20.495  0.00  0.00     0.111 A 
ATOM      2  C   UNL d   1      32.734  22.872 -19.915  0.00  0.00     0.100 A 
ATOM      3  C   UNL d   1      32.241  22.386 -21.152  0.00  0.00     0.021 A 
ATOM      4  C   UNL d   1      32.260  23.538 -19.987  0.00  0.00     0.021 A 
ATOM      5  C   UNL d   1      31.767  23.052 -21.225  0.00  0.00     0.002 A 
ATOM      6  C   UNL d   1      31.773  23.635 -20.641  0.00  0.00     0.002 A 
ENDROOT
BRANCH   1   7
ATOM      7  N   UNL d   1      33.206  21.622 -20.422  0.00  0.00    -0.157 NA
BRANCH   7   8
ATOM      8  S   UNL d   1      33.186  21.033 -20.998  0.00  0.00     0.285 S 
ATOM      9  O   UNL d   1      33.170  21.610 -21.589  0.00  0.00    -0.198 OA
ATOM     10  O   UNL d   1      33.201  20.447 -20.393  0.00  0.00    -0.198 OA
BRANCH   8  11
ATOM     11  C   UNL d   1      33.165  20.429 -21.585  0.00  0.00     0.105 A 
ATOM     12  C   UNL d   1      33.069  19.627 -21.359  0.00  0.00     0.013 A 
ATOM     13  C   UNL d   1      33.050  19.045 -21.937  0.00  0.00     0.001 A 
ATOM     14  C   UNL d   1      33.123  19.235 -22.728  0.00  0.00     0.000 A 
ATOM     15  C   UNL d   1      33.220  20.037 -22.953  0.00  0.00     0.001 A 
ATOM     16  C   UNL d   1      33.241  20.636 -22.385  0.00  0.00     0.013 A 
ENDBRANCH   8  11
ENDBRANCH   7   8
ENDBRANCH   1   7
BRANCH   2  17
ATOM     17  N   UNL d   1      33.241  22.767 -19.239  0.00  0.00    -0.244 NA
BRANCH  17  18
ATOM     18  C   UNL d   1      32.962  22.901 -18.479  0.00  0.00     0.081 A 
ATOM     19  C   UNL d   1      32.497  23.548 -18.336  0.00  0.00     0.019 A 
ATOM     20  C   UNL d   1      32.207  23.701 -17.579  0.00  0.00     0.002 A 
ATOM     21  C   UNL d   1      32.390  23.188 -16.955  0.00  0.00     0.000 A 
ATOM     22  C   UNL d   1      32.863  22.530 -17.101  0.00  0.00     0.002 A 
ATOM     23  C   UNL d   1      33.153  22.380 -17.862  0.00  0.00     0.019 A 
ENDBRANCH  17  18
ENDBRANCH   2  17
TORSDOF 5
ENDMDL
MODEL 5
REMARK VINA RESULT:      -0.4      1.947      3.400
REMARK  5 active torsions:
REMARK  status: ('A' for Active; 'I' for Inactive)
REMARK    1  A    between atoms: N_2  and  S_1 
REMARK    2  A    between atoms: C_7  and  S_1 
REMARK    3  A    between atoms: C_3  and  N_2 
REMARK    4  A    between atoms: N_6  and  C_8 
REMARK    5  A    between atoms: C_9  and  N_6 
ROOT
ATOM      1  C   UNL d   1      32.903  19.211 -23.301  0.00  0.00     0.111 A 
ATOM      2  C   UNL d   1      33.128  20.003 -23.271  0.00  0.00     0.100 A 
ATOM      3  C   UNL d   1      32.793  18.806 -22.589  0.00  0.00     0.021 A 
ATOM      4  C   UNL d   1      33.240  20.382 -22.551  0.00  0.00     0.021 A 
ATOM      5  C   UNL d   1      32.905  19.184 -21.870  0.00  0.00     0.002 A 
ATOM      6  C   UNL d   1      33.130  19.977 -21.845  0.00  0.00     0.002 A 
ENDROOT
BRANCH   1   7
ATOM      7  N   UNL d   1      32.791  18.833 -24.020  0.00  0.00    -0.157 NA
BRANCH   7   8
ATOM      8  S   UNL d   1      32.414  18.102 -24.050  0.00  0.00     0.285 S 
ATOM      9  O   UNL d   1      31.735  18.463 -24.350  0.00  0.00    -0.198 OA
ATOM     10  O   UNL d   1      33.109  17.736 -23.744  0.00  0.00    -0.198 OA
BRANCH   8  11
ATOM     11  C   UNL d   1      32.031  17.353 -24.080  0.00  0.00     0.105 A 
ATOM     12  C   UNL d   1      32.400  16.678 -23.744  0.00  0.00     0.013 A 
ATOM     13  C   UNL d   1      32.019  15.952 -23.777  0.00  0.00     0.001 A 
ATOM     14  C   UNL d   1      31.288  15.876 -24.132  0.00  0.00     0.000 A 
ATOM     15  C   UNL d   1      30.919  16.551 -24.468  0.00  0.00     0.001 A 
ATOM     16  C   UNL d   1      31.287  17.289 -24.444  0.00  0.00     0.013 A 
ENDBRANCH   8  11
ENDBRANCH   7   8
ENDBRANCH   1   7
BRANCH   2  17
ATOM     17  N   UNL d   1      33.241  20.418 -24.005  0.00  0.00    -0.244 NA
BRANCH  17  18
ATOM     18  C   UNL d   1      33.221  21.238 -24.034  0.00  0.00     0.081 A 
ATOM     19  C   UNL d   1      33.231  21.658 -23.341  0.00  0.00     0.019 A 
ATOM     20  C   UNL d   1      33.211  22.483 -23.347  0.00  0.00     0.002 A 
ATOM     21  C   UNL d   1      33.180  22.890 -24.068  0.00  0.00     0.000 A 
ATOM     22  C   UNL d   1      33.170  22.462 -24.771  0.00  0.00     0.002 A 
ATOM     23  C   UNL d   1      33.190  21.635 -24.762  0.00  0.00     0.019 A 
ENDBRANCH  17  18
ENDBRANCH   2  17
TORSDOF 5
ENDMDL
MODEL 6
REMARK VINA RESULT:       0.2      3.773      6.107
REMARK  5 active torsions:
REMARK  status: ('A' for Active; 'I' for Inactive)
REMARK    1  A    between atoms: N_2  and  S_1 
REMARK    2  A    between atoms: C_7  and  S_1 
REMARK    3  A    between atoms: C_3  and  N_2 
REMARK    4  A    between atoms: N_6  and  C_8 
REMARK    5  A    between atoms: C_9  and  N_6 
ROOT
ATOM      1  C   UNL d   1      32.719  21.112 -22.290  0.00  0.00     0.111 A 
ATOM      2  C   UNL d   1      32.982  20.468 -22.730  0.00  0.00     0.100 A 
ATOM      3  C   UNL d   1      32.719  21.858 -22.645  0.00  0.00     0.021 A 
ATOM      4  C   UNL d   1      33.239  20.564 -23.504  0.00  0.00     0.021 A 
ATOM      5  C   UNL d   1      32.976  21.955 -23.418  0.00  0.00     0.002 A 
ATOM      6  C   UNL d   1      33.239  21.306 -23.855  0.00  0.00     0.002 A 
ENDROOT
BRANCH   1   7
ATOM      7  N   UNL d   1      32.462  21.016 -21.517  0.00  0.00    -0.157 NA
BRANCH   7   8
ATOM      8  S   UNL d   1      32.439  21.660 -21.004  0.00  0.00     0.285 S 
ATOM      9  O   UNL d   1      31.653  21.485 -20.818  0.00  0.00    -0.198 OA
ATOM     10  O   UNL d   1      33.240  21.836 -21.196  0.00  0.00    -0.198 OA
BRANCH   8  11
ATOM     11  C   UNL d   1      32.418  22.319 -20.481  0.00  0.00     0.105 A 
ATOM     12  C   UNL d   1      33.098  22.523 -20.035  0.00  0.00     0.013 A 
ATOM     13  C   UNL d   1      33.068  23.168 -19.527  0.00  0.00     0.001 A 
ATOM     14  C   UNL d   1      32.388  23.611 -19.449  0.00  0.00     0.000 A 
ATOM     15  C   UNL d   1      31.707  23.407 -19.896  0.00  0.00     0.001 A 
ATOM     16  C   UNL d   1      31.719  22.762 -20.411  0.00  0.00     0.013 A 
ENDBRANCH   8  11
ENDBRANCH   7   8
ENDBRANCH   1   7
BRANCH   2  17
ATOM     17  N   UNL d   1      32.981  19.701 -22.362  0.00  0.00    -0.244 NA
BRANCH  17  18
ATOM     18  C   UNL d   1      33.001  19.016 -22.815  0.00  0.00     0.081 A 
ATOM     19  C   UNL d   1      33.080  19.076 -23.618  0.00  0.00     0.019 A 
ATOM     20  C   UNL d   1      33.103  18.400 -24.092  0.00  0.00     0.002 A 
ATOM     21  C   UNL d   1      33.045  17.650 -23.745  0.00  0.00     0.000 A 
ATOM     22  C   UNL d   1      32.965  17.591 -22.927  0.00  0.00     0.002 A 
ATOM     23  C   UNL d   1      32.942  18.271 -22.455  0.00  0.00     0.019 A 
ENDBRANCH  17  18
ENDBRANCH   2  17
TORSDOF 5
ENDMDL
