MODEL 1
REMARK VINA RESULT:      53.1      0.000      0.000
REMARK  1 active torsions:
REMARK  status: ('A' for Active; 'I' for Inactive)
REMARK       I    between atoms: N_2  and  C_1 
REMARK       I    between atoms: N_4  and  C_1 
REMARK    1  A    between atoms: C_5  and  N_3 
ROOT
ATOM      1  C   UNL d   1      13.691  12.480  -2.856  0.00  0.00     0.340 C 
ATOM      2  N   UNL d   1      14.007  13.182  -2.522  0.00  0.00    -0.254 N 
ATOM      3  N   UNL d   1      14.623  14.556  -1.869  0.00  0.00    -0.301 N 
ATOM      4  N   UNL d   1      13.387  12.479  -3.627  0.00  0.00    -0.253 N 
ATOM      5  O   UNL d   1      13.686  11.779  -2.404  0.00  0.00    -0.245 OA
ATOM      6  C   UNL d   1      14.013  13.874  -2.965  0.00  0.00     0.104 A 
ATOM      7  C   UNL d   1      14.307  13.163  -1.746  0.00  0.00     0.104 A 
ATOM      8  C   UNL d   1      14.616  13.852  -1.419  0.00  0.00     0.100 A 
ATOM      9  C   UNL d   1      14.322  14.563  -2.637  0.00  0.00     0.100 A 
ATOM     10  O   UNL d   1      12.784  12.475  -5.158  0.00  0.00    -0.300 OA
ATOM     11  C   UNL d   1      13.079  11.781  -3.945  0.00  0.00     0.111 A 
ATOM     12  C   UNL d   1      13.395  13.174  -4.068  0.00  0.00     0.111 A 
ATOM     13  C   UNL d   1      13.091  13.174  -4.840  0.00  0.00     0.142 A 
ATOM     14  C   UNL d   1      12.778  11.782  -4.712  0.00  0.00     0.142 A 
ENDROOT
BRANCH   3  15
ATOM     15  C   UNL d   1      14.932  15.252  -1.547  0.00  0.00     0.064 A 
ATOM     16  C   UNL d   1      15.488  15.200  -0.945  0.00  0.00     0.018 A 
ATOM     17  C   UNL d   1      15.799  15.894  -0.620  0.00  0.00     0.001 A 
ATOM     18  C   UNL d   1      16.358  15.848  -0.015  0.00  0.00     0.000 C 
ATOM     19  C   UNL d   1      15.548  16.635  -0.904  0.00  0.00     0.000 A 
ATOM     20  C   UNL d   1      14.989  16.681  -1.509  0.00  0.00     0.001 A 
ATOM     21  C   UNL d   1      14.681  15.984  -1.831  0.00  0.00     0.018 A 
ATOM     22  C   UNL d   1      14.740  17.416  -1.791  0.00  0.00     0.000 C 
ENDBRANCH   3  15
TORSDOF 1
ENDMDL
