MODEL 1
REMARK VINA RESULT:      12.4      0.000      0.000
REMARK  4 active torsions:
REMARK  status: ('A' for Active; 'I' for Inactive)
REMARK    1  A    between atoms: N_7  and  S_1 
REMARK    2  A    between atoms: C_8  and  S_1 
REMARK    3  A    between atoms: C_16  and  N_7 
REMARK    4  A    between atoms: C_15  and  C_16 
ROOT
ATOM      1  C   UNL d   1      45.782 -16.800  44.848  0.00  0.00     0.112 C 
ENDROOT
BRANCH   1   2
ATOM      2  C   UNL d   1      45.962 -17.506  44.466  0.00  0.00     0.020 A 
ATOM      3  C   UNL d   1      46.038 -17.526  43.639  0.00  0.00     0.003 A 
ATOM      4  C   UNL d   1      46.219 -18.239  43.261  0.00  0.00     0.018 A 
ATOM      5  C   UNL d   1      46.328 -18.428  42.464  0.00  0.00     0.019 A 
ATOM      6  C   UNL d   1      46.326 -18.930  43.699  0.00  0.00     0.064 A 
ATOM      7  C   UNL d   1      46.500 -19.230  42.414  0.00  0.00     0.064 A 
ATOM      8  C   UNL d   1      46.647 -19.648  41.718  0.00  0.00     0.019 C 
ATOM      9  N   UNL d   1      46.498 -19.538  43.176  0.00  0.00    -0.304 N 
ATOM     10  C   UNL d   1      46.646 -20.328  43.376  0.00  0.00     0.099 C 
ATOM     11  C   UNL d   1      46.252 -18.915  44.519  0.00  0.00     0.018 A 
ATOM     12  C   UNL d   1      46.070 -18.205  44.908  0.00  0.00     0.003 A 
ENDBRANCH   1   2
BRANCH   1  13
ATOM     13  N   UNL d   1      45.700 -16.102  44.417  0.00  0.00    -0.157 NA
BRANCH  13  14
ATOM     14  S   UNL d   1      45.169 -15.522  44.662  0.00  0.00     0.285 S 
ATOM     15  O   UNL d   1      44.509 -15.114  44.950  0.00  0.00    -0.198 OA
ATOM     16  O   UNL d   1      44.773 -16.243  44.787  0.00  0.00    -0.198 OA
BRANCH  14  17
ATOM     17  C   UNL d   1      45.371 -14.730  44.619  0.00  0.00     0.105 A 
ATOM     18  C   UNL d   1      46.112 -14.484  44.886  0.00  0.00     0.013 A 
ATOM     19  C   UNL d   1      46.320 -13.681  44.844  0.00  0.00     0.001 A 
ATOM     20  C   UNL d   1      45.785 -13.134  44.535  0.00  0.00     0.000 A 
ATOM     21  C   UNL d   1      45.039 -13.390  44.267  0.00  0.00     0.001 A 
ATOM     22  C   UNL d   1      45.988 -12.337  44.491  0.00  0.00     0.000 C 
ATOM     23  C   UNL d   1      44.841 -14.184  44.312  0.00  0.00     0.013 A 
ENDBRANCH  14  17
ENDBRANCH  13  14
ENDBRANCH   1  13
TORSDOF 4
ENDMDL
