MODEL 1
REMARK VINA RESULT:      -5.1      0.000      0.000
REMARK  6 active torsions:
REMARK  status: ('A' for Active; 'I' for Inactive)
REMARK    1  A    between atoms: N_8  and  C_2 
REMARK    2  A    between atoms: N_7  and  C_3 
REMARK    3  A    between atoms: N_10  and  C_6 
REMARK    4  A    between atoms: C_9  and  N_11 
REMARK    5  A    between atoms: N_13  and  C_9 
REMARK    6  A    between atoms: N_11  and  N_10 
ROOT
ATOM      1  N   UNL d   1     -47.845  13.156  22.911  0.00  0.00     0.133 NA
ATOM      2  C   UNL d   1     -47.089  13.379  22.971  0.00  0.00     0.766 A 
ATOM      3  C   UNL d   1     -48.087  12.402  23.103  0.00  0.00     0.766 A 
ATOM      4  N   UNL d   1     -47.523  11.861  23.366  0.00  0.00     0.135 NA
ATOM      5  N   UNL d   1     -46.499  12.814  23.246  0.00  0.00     0.135 NA
ATOM      6  C   UNL d   1     -46.723  12.061  23.440  0.00  0.00     0.798 A 
ENDROOT
BRANCH   2   7
ATOM      7  N   UNL d   1     -46.847  14.133  22.779  0.00  0.00    -0.132 N 
ATOM      8  C   UNL d   1     -47.412  14.734  22.749  0.00  0.00     0.125 A 
ATOM      9  C   UNL d   1     -47.185  15.503  22.557  0.00  0.00     0.142 A 
ATOM     10  O   UNL d   1     -46.394  15.673  22.394  0.00  0.00    -0.300 OA
ATOM     11  C   UNL d   1     -45.829  15.073  22.424  0.00  0.00     0.142 A 
ATOM     12  C   UNL d   1     -46.055  14.302  22.617  0.00  0.00     0.125 A 
ENDBRANCH   2   7
BRANCH   3  13
ATOM     13  N   UNL d   1     -48.863  12.160  23.046  0.00  0.00    -0.132 N 
ATOM     14  C   UNL d   1     -49.372  12.156  23.682  0.00  0.00     0.125 A 
ATOM     15  C   UNL d   1     -50.147  11.914  23.624  0.00  0.00     0.142 A 
ATOM     16  O   UNL d   1     -50.429  11.662  22.891  0.00  0.00    -0.300 OA
ATOM     17  C   UNL d   1     -49.936  11.652  22.215  0.00  0.00     0.142 A 
ATOM     18  C   UNL d   1     -49.145  11.908  22.312  0.00  0.00     0.125 A 
ENDBRANCH   3  13
BRANCH   6  19
ATOM     19  N   UNL d   1     -46.171  11.532  23.698  0.00  0.00     0.050 NA
BRANCH  19  20
ATOM     20  N   UNL d   1     -45.486  11.406  23.279  0.00  0.00    -0.101 NA
BRANCH  20  21
ATOM     21  C   UNL d   1     -44.947  10.828  23.513  0.00  0.00     0.241 C 
ATOM     22  S   UNL d   1     -45.184  10.070  23.673  0.00  0.00    -0.035 SA
BRANCH  21  23
ATOM     23  N   UNL d   1     -44.149  11.020  23.587  0.00  0.00    -0.213 NA
ATOM     24  C   UNL d   1     -43.572  10.575  23.201  0.00  0.00     0.122 C 
ENDBRANCH  21  23
ENDBRANCH  20  21
ENDBRANCH  19  20
ENDBRANCH   6  19
TORSDOF 6
ENDMDL
MODEL 2
REMARK VINA RESULT:      -4.4      5.781      7.946
REMARK  6 active torsions:
REMARK  status: ('A' for Active; 'I' for Inactive)
REMARK    1  A    between atoms: N_8  and  C_2 
REMARK    2  A    between atoms: N_7  and  C_3 
REMARK    3  A    between atoms: N_10  and  C_6 
REMARK    4  A    between atoms: C_9  and  N_11 
REMARK    5  A    between atoms: N_13  and  C_9 
REMARK    6  A    between atoms: N_11  and  N_10 
ROOT
ATOM      1  N   UNL d   1     -39.975  14.512  20.319  0.00  0.00     0.133 NA
ATOM      2  C   UNL d   1     -40.587  14.492  19.819  0.00  0.00     0.766 A 
ATOM      3  C   UNL d   1     -40.050  14.286  21.098  0.00  0.00     0.766 A 
ATOM      4  N   UNL d   1     -40.787  14.031  21.367  0.00  0.00     0.135 NA
ATOM      5  N   UNL d   1     -41.358  14.226  20.099  0.00  0.00     0.135 NA
ATOM      6  C   UNL d   1     -41.449  13.998  20.871  0.00  0.00     0.798 A 
ENDROOT
BRANCH   2   7
ATOM      7  N   UNL d   1     -40.513  14.718  19.040  0.00  0.00    -0.132 N 
ATOM      8  C   UNL d   1     -40.268  14.157  18.488  0.00  0.00     0.125 A 
ATOM      9  C   UNL d   1     -40.187  14.367  17.694  0.00  0.00     0.142 A 
ATOM     10  O   UNL d   1     -40.350  15.139  17.452  0.00  0.00    -0.300 OA
ATOM     11  C   UNL d   1     -40.595  15.701  18.005  0.00  0.00     0.142 A 
ATOM     12  C   UNL d   1     -40.676  15.491  18.799  0.00  0.00     0.125 A 
ENDBRANCH   2   7
BRANCH   3  13
ATOM     13  N   UNL d   1     -39.428  14.301  21.624  0.00  0.00    -0.132 N 
ATOM     14  C   UNL d   1     -38.937  13.662  21.744  0.00  0.00     0.125 A 
ATOM     15  C   UNL d   1     -38.314  13.678  22.269  0.00  0.00     0.142 A 
ATOM     16  O   UNL d   1     -38.175  14.369  22.697  0.00  0.00    -0.300 OA
ATOM     17  C   UNL d   1     -38.659  15.045  22.600  0.00  0.00     0.142 A 
ATOM     18  C   UNL d   1     -39.289  14.992  22.052  0.00  0.00     0.125 A 
ENDBRANCH   3  13
BRANCH   6  19
ATOM     19  N   UNL d   1     -42.170  13.749  21.133  0.00  0.00     0.050 NA
BRANCH  19  20
ATOM     20  N   UNL d   1     -42.369  12.961  21.120  0.00  0.00    -0.101 NA
BRANCH  20  21
ATOM     21  C   UNL d   1     -43.061  12.693  21.482  0.00  0.00     0.241 C 
ATOM     22  S   UNL d   1     -43.770  13.065  21.361  0.00  0.00    -0.035 SA
BRANCH  21  23
ATOM     23  N   UNL d   1     -43.034  12.035  21.976  0.00  0.00    -0.213 NA
ATOM     24  C   UNL d   1     -43.710  11.780  22.374  0.00  0.00     0.122 C 
ENDBRANCH  21  23
ENDBRANCH  20  21
ENDBRANCH  19  20
ENDBRANCH   6  19
TORSDOF 6
ENDMDL
MODEL 3
REMARK VINA RESULT:      -4.4      5.799      7.906
REMARK  6 active torsions:
REMARK  status: ('A' for Active; 'I' for Inactive)
REMARK    1  A    between atoms: N_8  and  C_2 
REMARK    2  A    between atoms: N_7  and  C_3 
REMARK    3  A    between atoms: N_10  and  C_6 
REMARK    4  A    between atoms: C_9  and  N_11 
REMARK    5  A    between atoms: N_13  and  C_9 
REMARK    6  A    between atoms: N_11  and  N_10 
ROOT
ATOM      1  N   UNL d   1     -39.938  14.525  20.354  0.00  0.00     0.133 NA
ATOM      2  C   UNL d   1     -40.018  14.316  21.112  0.00  0.00     0.766 A 
ATOM      3  C   UNL d   1     -40.563  14.496  19.832  0.00  0.00     0.766 A 
ATOM      4  N   UNL d   1     -41.297  14.241  20.108  0.00  0.00     0.135 NA
ATOM      5  N   UNL d   1     -40.785  14.049  21.401  0.00  0.00     0.135 NA
ATOM      6  C   UNL d   1     -41.416  14.014  20.895  0.00  0.00     0.798 A 
ENDROOT
BRANCH   2   7
ATOM      7  N   UNL d   1     -39.393  14.344  21.634  0.00  0.00    -0.132 N 
ATOM      8  C   UNL d   1     -38.934  13.667  21.738  0.00  0.00     0.125 A 
ATOM      9  C   UNL d   1     -38.297  13.678  22.262  0.00  0.00     0.142 A 
ATOM     10  O   UNL d   1     -38.119  14.365  22.683  0.00  0.00    -0.300 OA
ATOM     11  C   UNL d   1     -38.579  15.042  22.579  0.00  0.00     0.142 A 
ATOM     12  C   UNL d   1     -39.216  15.032  22.055  0.00  0.00     0.125 A 
ENDBRANCH   2   7
BRANCH   3  13
ATOM     13  N   UNL d   1     -40.493  14.709  19.049  0.00  0.00    -0.132 N 
ATOM     14  C   UNL d   1     -40.287  14.180  18.465  0.00  0.00     0.125 A 
ATOM     15  C   UNL d   1     -40.217  14.393  17.682  0.00  0.00     0.142 A 
ATOM     16  O   UNL d   1     -40.362  15.177  17.471  0.00  0.00    -0.300 OA
ATOM     17  C   UNL d   1     -40.576  15.749  18.044  0.00  0.00     0.142 A 
ATOM     18  C   UNL d   1     -40.638  15.493  18.838  0.00  0.00     0.125 A 
ENDBRANCH   3  13
BRANCH   6  19
ATOM     19  N   UNL d   1     -42.134  13.764  21.165  0.00  0.00     0.050 NA
BRANCH  19  20
ATOM     20  N   UNL d   1     -42.359  12.987  21.094  0.00  0.00    -0.101 NA
BRANCH  20  21
ATOM     21  C   UNL d   1     -43.042  12.708  21.464  0.00  0.00     0.241 C 
ATOM     22  S   UNL d   1     -43.766  13.041  21.317  0.00  0.00    -0.035 SA
BRANCH  21  23
ATOM     23  N   UNL d   1     -42.992  12.079  21.992  0.00  0.00    -0.213 NA
ATOM     24  C   UNL d   1     -43.670  11.779  22.354  0.00  0.00     0.122 C 
ENDBRANCH  21  23
ENDBRANCH  20  21
ENDBRANCH  19  20
ENDBRANCH   6  19
TORSDOF 6
ENDMDL
MODEL 4
REMARK VINA RESULT:      -3.7      2.216      3.763
REMARK  6 active torsions:
REMARK  status: ('A' for Active; 'I' for Inactive)
REMARK    1  A    between atoms: N_8  and  C_2 
REMARK    2  A    between atoms: N_7  and  C_3 
REMARK    3  A    between atoms: N_10  and  C_6 
REMARK    4  A    between atoms: C_9  and  N_11 
REMARK    5  A    between atoms: N_13  and  C_9 
REMARK    6  A    between atoms: N_11  and  N_10 
ROOT
ATOM      1  N   UNL d   1     -47.606  12.613  22.792  0.00  0.00     0.133 NA
ATOM      2  C   UNL d   1     -47.077  13.198  22.733  0.00  0.00     0.766 A 
ATOM      3  C   UNL d   1     -48.398  12.760  22.913  0.00  0.00     0.766 A 
ATOM      4  N   UNL d   1     -48.650  13.544  22.975  0.00  0.00     0.135 NA
ATOM      5  N   UNL d   1     -47.340  14.017  22.798  0.00  0.00     0.135 NA
ATOM      6  C   UNL d   1     -48.124  14.180  22.918  0.00  0.00     0.798 A 
ENDROOT
BRANCH   2   7
ATOM      7  N   UNL d   1     -46.285  13.051  22.613  0.00  0.00    -0.132 N 
ATOM      8  C   UNL d   1     -45.862  13.552  22.112  0.00  0.00     0.125 A 
ATOM      9  C   UNL d   1     -45.059  13.419  21.978  0.00  0.00     0.142 A 
ATOM     10  O   UNL d   1     -44.678  12.785  22.344  0.00  0.00    -0.300 OA
ATOM     11  C   UNL d   1     -45.101  12.284  22.845  0.00  0.00     0.142 A 
ATOM     12  C   UNL d   1     -45.905  12.417  22.980  0.00  0.00     0.125 A 
ENDBRANCH   2   7
BRANCH   3  13
ATOM     13  N   UNL d   1     -48.952  12.167  22.975  0.00  0.00    -0.132 N 
ATOM     14  C   UNL d   1     -49.021  11.695  23.636  0.00  0.00     0.125 A 
ATOM     15  C   UNL d   1     -49.576  11.102  23.698  0.00  0.00     0.142 A 
ATOM     16  O   UNL d   1     -50.089  10.972  23.065  0.00  0.00    -0.300 OA
ATOM     17  C   UNL d   1     -50.047  11.437  22.370  0.00  0.00     0.142 A 
ATOM     18  C   UNL d   1     -49.465  12.037  22.342  0.00  0.00     0.125 A 
ENDBRANCH   3  13
BRANCH   6  19
ATOM     19  N   UNL d   1     -48.370  14.946  22.978  0.00  0.00     0.050 NA
BRANCH  19  20
ATOM     20  N   UNL d   1     -48.999  15.218  22.542  0.00  0.00    -0.101 NA
BRANCH  20  21
ATOM     21  C   UNL d   1     -49.624  15.617  22.903  0.00  0.00     0.241 C 
ATOM     22  S   UNL d   1     -49.554  15.921  23.651  0.00  0.00    -0.035 SA
BRANCH  21  23
ATOM     23  N   UNL d   1     -50.335  15.711  22.499  0.00  0.00    -0.213 NA
ATOM     24  C   UNL d   1     -51.055  15.554  22.872  0.00  0.00     0.122 C 
ENDBRANCH  21  23
ENDBRANCH  20  21
ENDBRANCH  19  20
ENDBRANCH   6  19
TORSDOF 6
ENDMDL
MODEL 5
REMARK VINA RESULT:      -3.6      2.076      2.681
REMARK  6 active torsions:
REMARK  status: ('A' for Active; 'I' for Inactive)
REMARK    1  A    between atoms: N_8  and  C_2 
REMARK    2  A    between atoms: N_7  and  C_3 
REMARK    3  A    between atoms: N_10  and  C_6 
REMARK    4  A    between atoms: C_9  and  N_11 
REMARK    5  A    between atoms: N_13  and  C_9 
REMARK    6  A    between atoms: N_11  and  N_10 
ROOT
ATOM      1  N   UNL d   1     -48.929  13.466  23.166  0.00  0.00     0.133 NA
ATOM      2  C   UNL d   1     -48.795  14.224  22.984  0.00  0.00     0.766 A 
ATOM      3  C   UNL d   1     -48.341  12.904  23.122  0.00  0.00     0.766 A 
ATOM      4  N   UNL d   1     -47.587  13.138  22.881  0.00  0.00     0.135 NA
ATOM      5  N   UNL d   1     -48.008  14.469  22.732  0.00  0.00     0.135 NA
ATOM      6  C   UNL d   1     -47.412  13.922  22.683  0.00  0.00     0.798 A 
ENDROOT
BRANCH   2   7
ATOM      7  N   UNL d   1     -49.383  14.786  23.028  0.00  0.00    -0.132 N 
ATOM      8  C   UNL d   1     -49.983  14.775  22.462  0.00  0.00     0.125 A 
ATOM      9  C   UNL d   1     -50.587  15.337  22.491  0.00  0.00     0.142 A 
ATOM     10  O   UNL d   1     -50.590  15.910  23.084  0.00  0.00    -0.300 OA
ATOM     11  C   UNL d   1     -49.990  15.922  23.650  0.00  0.00     0.142 A 
ATOM     12  C   UNL d   1     -49.385  15.360  23.622  0.00  0.00     0.125 A 
ENDBRANCH   2   7
BRANCH   3  13
ATOM     13  N   UNL d   1     -48.466  12.120  23.306  0.00  0.00    -0.132 N 
ATOM     14  C   UNL d   1     -49.198  11.826  23.509  0.00  0.00     0.125 A 
ATOM     15  C   UNL d   1     -49.323  11.043  23.693  0.00  0.00     0.142 A 
ATOM     16  O   UNL d   1     -48.680  10.525  23.674  0.00  0.00    -0.300 OA
ATOM     17  C   UNL d   1     -47.914  10.791  23.470  0.00  0.00     0.142 A 
ATOM     18  C   UNL d   1     -47.824  11.603  23.286  0.00  0.00     0.125 A 
ENDBRANCH   3  13
BRANCH   6  19
ATOM     19  N   UNL d   1     -46.675  14.151  22.447  0.00  0.00     0.050 NA
BRANCH  19  20
ATOM     20  N   UNL d   1     -46.012  13.787  22.742  0.00  0.00    -0.101 NA
BRANCH  20  21
ATOM     21  C   UNL d   1     -45.304  13.790  22.318  0.00  0.00     0.241 C 
ATOM     22  S   UNL d   1     -44.921  14.481  22.142  0.00  0.00    -0.035 SA
BRANCH  21  23
ATOM     23  N   UNL d   1     -44.976  13.077  22.067  0.00  0.00    -0.213 NA
ATOM     24  C   UNL d   1     -44.263  13.065  21.652  0.00  0.00     0.122 C 
ENDBRANCH  21  23
ENDBRANCH  20  21
ENDBRANCH  19  20
ENDBRANCH   6  19
TORSDOF 6
ENDMDL
MODEL 6
REMARK VINA RESULT:      -3.4      1.731      3.717
REMARK  6 active torsions:
REMARK  status: ('A' for Active; 'I' for Inactive)
REMARK    1  A    between atoms: N_8  and  C_2 
REMARK    2  A    between atoms: N_7  and  C_3 
REMARK    3  A    between atoms: N_10  and  C_6 
REMARK    4  A    between atoms: C_9  and  N_11 
REMARK    5  A    between atoms: N_13  and  C_9 
REMARK    6  A    between atoms: N_11  and  N_10 
ROOT
ATOM      1  N   UNL d   1     -45.945  12.433  23.102  0.00  0.00     0.133 NA
ATOM      2  C   UNL d   1     -46.580  12.902  23.055  0.00  0.00     0.766 A 
ATOM      3  C   UNL d   1     -46.006  11.647  23.305  0.00  0.00     0.766 A 
ATOM      4  N   UNL d   1     -46.754  11.337  23.465  0.00  0.00     0.135 NA
ATOM      5  N   UNL d   1     -47.361  12.579  23.222  0.00  0.00     0.135 NA
ATOM      6  C   UNL d   1     -47.439  11.799  23.426  0.00  0.00     0.798 A 
ENDROOT
BRANCH   2   7
ATOM      7  N   UNL d   1     -46.519  13.689  22.852  0.00  0.00    -0.132 N 
ATOM      8  C   UNL d   1     -47.167  14.182  22.984  0.00  0.00     0.125 A 
ATOM      9  C   UNL d   1     -47.123  14.982  22.784  0.00  0.00     0.142 A 
ATOM     10  O   UNL d   1     -46.433  15.288  22.453  0.00  0.00    -0.300 OA
ATOM     11  C   UNL d   1     -45.785  14.795  22.320  0.00  0.00     0.142 A 
ATOM     12  C   UNL d   1     -45.828  13.995  22.520  0.00  0.00     0.125 A 
ENDBRANCH   2   7
BRANCH   3  13
ATOM     13  N   UNL d   1     -45.360  11.154  23.357  0.00  0.00    -0.132 N 
ATOM     14  C   UNL d   1     -44.608  11.388  23.149  0.00  0.00     0.125 A 
ATOM     15  C   UNL d   1     -43.962  10.895  23.201  0.00  0.00     0.142 A 
ATOM     16  O   UNL d   1     -44.074  10.125  23.475  0.00  0.00    -0.300 OA
ATOM     17  C   UNL d   1     -44.832   9.848  23.698  0.00  0.00     0.142 A 
ATOM     18  C   UNL d   1     -45.472  10.384  23.631  0.00  0.00     0.125 A 
ENDBRANCH   3  13
BRANCH   6  19
ATOM     19  N   UNL d   1     -48.171  11.496  23.583  0.00  0.00     0.050 NA
BRANCH  19  20
ATOM     20  N   UNL d   1     -48.734  11.443  23.000  0.00  0.00    -0.101 NA
BRANCH  20  21
ATOM     21  C   UNL d   1     -49.533  11.556  23.171  0.00  0.00     0.241 C 
ATOM     22  S   UNL d   1     -49.931  11.057  23.670  0.00  0.00    -0.035 SA
BRANCH  21  23
ATOM     23  N   UNL d   1     -49.938  12.187  22.830  0.00  0.00    -0.213 NA
ATOM     24  C   UNL d   1     -50.760  12.171  22.761  0.00  0.00     0.122 C 
ENDBRANCH  21  23
ENDBRANCH  20  21
ENDBRANCH  19  20
ENDBRANCH   6  19
TORSDOF 6
ENDMDL
MODEL 7
REMARK VINA RESULT:      -2.9      2.799      4.094
REMARK  6 active torsions:
REMARK  status: ('A' for Active; 'I' for Inactive)
REMARK    1  A    between atoms: N_8  and  C_2 
REMARK    2  A    between atoms: N_7  and  C_3 
REMARK    3  A    between atoms: N_10  and  C_6 
REMARK    4  A    between atoms: C_9  and  N_11 
REMARK    5  A    between atoms: N_13  and  C_9 
REMARK    6  A    between atoms: N_11  and  N_10 
ROOT
ATOM      1  N   UNL d   1     -45.233  12.256  22.765  0.00  0.00     0.133 NA
ATOM      2  C   UNL d   1     -45.369  12.954  22.420  0.00  0.00     0.766 A 
ATOM      3  C   UNL d   1     -44.540  11.846  22.646  0.00  0.00     0.766 A 
ATOM      4  N   UNL d   1     -43.967  12.174  22.151  0.00  0.00     0.135 NA
ATOM      5  N   UNL d   1     -44.771  13.297  21.903  0.00  0.00     0.135 NA
ATOM      6  C   UNL d   1     -44.076  12.903  21.774  0.00  0.00     0.798 A 
ENDROOT
BRANCH   2   7
ATOM      7  N   UNL d   1     -46.063  13.364  22.540  0.00  0.00    -0.132 N 
ATOM      8  C   UNL d   1     -46.757  13.074  22.201  0.00  0.00     0.125 A 
ATOM      9  C   UNL d   1     -47.469  13.476  22.311  0.00  0.00     0.142 A 
ATOM     10  O   UNL d   1     -47.488  14.168  22.760  0.00  0.00    -0.300 OA
ATOM     11  C   UNL d   1     -46.794  14.459  23.098  0.00  0.00     0.142 A 
ATOM     12  C   UNL d   1     -46.081  14.057  22.988  0.00  0.00     0.125 A 
ENDBRANCH   2   7
BRANCH   3  13
ATOM     13  N   UNL d   1     -44.387  11.126  22.995  0.00  0.00    -0.132 N 
ATOM     14  C   UNL d   1     -44.970  10.666  23.329  0.00  0.00     0.125 A 
ATOM     15  C   UNL d   1     -44.818   9.946  23.678  0.00  0.00     0.142 A 
ATOM     16  O   UNL d   1     -44.041   9.671  23.693  0.00  0.00    -0.300 OA
ATOM     17  C   UNL d   1     -43.415  10.116  23.359  0.00  0.00     0.142 A 
ATOM     18  C   UNL d   1     -43.610  10.851  23.010  0.00  0.00     0.125 A 
ENDBRANCH   3  13
BRANCH   6  19
ATOM     19  N   UNL d   1     -43.516  13.224  21.290  0.00  0.00     0.050 NA
BRANCH  19  20
ATOM     20  N   UNL d   1     -42.804  13.478  21.587  0.00  0.00    -0.101 NA
BRANCH  20  21
ATOM     21  C   UNL d   1     -42.226  13.794  21.090  0.00  0.00     0.241 C 
ATOM     22  S   UNL d   1     -41.814  13.325  20.574  0.00  0.00    -0.035 SA
BRANCH  21  23
ATOM     23  N   UNL d   1     -42.061  14.600  21.116  0.00  0.00    -0.213 NA
ATOM     24  C   UNL d   1     -41.283  14.869  21.168  0.00  0.00     0.122 C 
ENDBRANCH  21  23
ENDBRANCH  20  21
ENDBRANCH  19  20
ENDBRANCH   6  19
TORSDOF 6
ENDMDL
MODEL 8
REMARK VINA RESULT:      -2.8      2.772      4.234
REMARK  6 active torsions:
REMARK  status: ('A' for Active; 'I' for Inactive)
REMARK    1  A    between atoms: N_8  and  C_2 
REMARK    2  A    between atoms: N_7  and  C_3 
REMARK    3  A    between atoms: N_10  and  C_6 
REMARK    4  A    between atoms: C_9  and  N_11 
REMARK    5  A    between atoms: N_13  and  C_9 
REMARK    6  A    between atoms: N_11  and  N_10 
ROOT
ATOM      1  N   UNL d   1     -45.263  12.241  22.785  0.00  0.00     0.133 NA
ATOM      2  C   UNL d   1     -44.579  11.862  22.668  0.00  0.00     0.766 A 
ATOM      3  C   UNL d   1     -45.418  12.964  22.442  0.00  0.00     0.766 A 
ATOM      4  N   UNL d   1     -44.841  13.304  21.961  0.00  0.00     0.135 NA
ATOM      5  N   UNL d   1     -43.977  12.218  22.164  0.00  0.00     0.135 NA
ATOM      6  C   UNL d   1     -44.115  12.935  21.816  0.00  0.00     0.798 A 
ENDROOT
BRANCH   2   7
ATOM      7  N   UNL d   1     -44.425  11.140  23.010  0.00  0.00    -0.132 N 
ATOM      8  C   UNL d   1     -43.648  10.862  23.013  0.00  0.00     0.125 A 
ATOM      9  C   UNL d   1     -43.472  10.132  23.355  0.00  0.00     0.142 A 
ATOM     10  O   UNL d   1     -44.073   9.679  23.696  0.00  0.00    -0.300 OA
ATOM     11  C   UNL d   1     -44.850   9.957  23.693  0.00  0.00     0.142 A 
ATOM     12  C   UNL d   1     -45.026  10.687  23.350  0.00  0.00     0.125 A 
ENDBRANCH   2   7
BRANCH   3  13
ATOM     13  N   UNL d   1     -46.118  13.365  22.555  0.00  0.00    -0.132 N 
ATOM     14  C   UNL d   1     -46.149  14.130  22.832  0.00  0.00     0.125 A 
ATOM     15  C   UNL d   1     -46.849  14.531  22.945  0.00  0.00     0.142 A 
ATOM     16  O   UNL d   1     -47.557  14.145  22.772  0.00  0.00    -0.300 OA
ATOM     17  C   UNL d   1     -47.565  13.358  22.486  0.00  0.00     0.142 A 
ATOM     18  C   UNL d   1     -46.827  12.979  22.382  0.00  0.00     0.125 A 
ENDBRANCH   3  13
BRANCH   6  19
ATOM     19  N   UNL d   1     -43.551  13.268  21.345  0.00  0.00     0.050 NA
BRANCH  19  20
ATOM     20  N   UNL d   1     -42.772  13.286  21.575  0.00  0.00    -0.101 NA
BRANCH  20  21
ATOM     21  C   UNL d   1     -42.201  13.658  21.110  0.00  0.00     0.241 C 
ATOM     22  S   UNL d   1     -42.070  13.432  20.344  0.00  0.00    -0.035 SA
BRANCH  21  23
ATOM     23  N   UNL d   1     -41.753  14.271  21.427  0.00  0.00    -0.213 NA
ATOM     24  C   UNL d   1     -41.221  14.691  20.956  0.00  0.00     0.122 C 
ENDBRANCH  21  23
ENDBRANCH  20  21
ENDBRANCH  19  20
ENDBRANCH   6  19
TORSDOF 6
ENDMDL
MODEL 9
REMARK VINA RESULT:      -2.8      1.677      4.176
REMARK  6 active torsions:
REMARK  status: ('A' for Active; 'I' for Inactive)
REMARK    1  A    between atoms: N_8  and  C_2 
REMARK    2  A    between atoms: N_7  and  C_3 
REMARK    3  A    between atoms: N_10  and  C_6 
REMARK    4  A    between atoms: C_9  and  N_11 
REMARK    5  A    between atoms: N_13  and  C_9 
REMARK    6  A    between atoms: N_11  and  N_10 
ROOT
ATOM      1  N   UNL d   1     -45.969  12.532  23.134  0.00  0.00     0.133 NA
ATOM      2  C   UNL d   1     -46.031  11.761  23.300  0.00  0.00     0.766 A 
ATOM      3  C   UNL d   1     -46.619  13.022  23.118  0.00  0.00     0.766 A 
ATOM      4  N   UNL d   1     -47.361  12.699  23.280  0.00  0.00     0.135 NA
ATOM      5  N   UNL d   1     -46.806  11.424  23.469  0.00  0.00     0.135 NA
ATOM      6  C   UNL d   1     -47.463  11.897  23.457  0.00  0.00     0.798 A 
ENDROOT
BRANCH   2   7
ATOM      7  N   UNL d   1     -45.380  11.271  23.316  0.00  0.00    -0.132 N 
ATOM      8  C   UNL d   1     -44.687  11.523  22.946  0.00  0.00     0.125 A 
ATOM      9  C   UNL d   1     -44.018  11.040  22.952  0.00  0.00     0.142 A 
ATOM     10  O   UNL d   1     -44.042  10.305  23.328  0.00  0.00    -0.300 OA
ATOM     11  C   UNL d   1     -44.735  10.054  23.698  0.00  0.00     0.142 A 
ATOM     12  C   UNL d   1     -45.405  10.537  23.692  0.00  0.00     0.125 A 
ENDBRANCH   2   7
BRANCH   3  13
ATOM     13  N   UNL d   1     -46.569  13.817  22.949  0.00  0.00    -0.132 N 
ATOM     14  C   UNL d   1     -45.869  14.232  22.987  0.00  0.00     0.125 A 
ATOM     15  C   UNL d   1     -45.818  15.027  22.818  0.00  0.00     0.142 A 
ATOM     16  O   UNL d   1     -46.504  15.429  22.598  0.00  0.00    -0.300 OA
ATOM     17  C   UNL d   1     -47.241  15.035  22.547  0.00  0.00     0.142 A 
ATOM     18  C   UNL d   1     -47.255  14.218  22.728  0.00  0.00     0.125 A 
ENDBRANCH   3  13
BRANCH   6  19
ATOM     19  N   UNL d   1     -48.188  11.581  23.616  0.00  0.00     0.050 NA
BRANCH  19  20
ATOM     20  N   UNL d   1     -48.841  12.057  23.698  0.00  0.00    -0.101 NA
BRANCH  20  21
ATOM     21  C   UNL d   1     -49.584  11.805  23.442  0.00  0.00     0.241 C 
ATOM     22  S   UNL d   1     -49.780  11.019  23.427  0.00  0.00    -0.035 SA
BRANCH  21  23
ATOM     23  N   UNL d   1     -50.140  12.359  23.196  0.00  0.00    -0.213 NA
ATOM     24  C   UNL d   1     -50.941  12.258  23.369  0.00  0.00     0.122 C 
ENDBRANCH  21  23
ENDBRANCH  20  21
ENDBRANCH  19  20
ENDBRANCH   6  19
TORSDOF 6
ENDMDL
