MODEL 1
REMARK VINA RESULT:      -2.4      0.000      0.000
REMARK  9 active torsions:
REMARK  status: ('A' for Active; 'I' for Inactive)
REMARK    1  A    between atoms: C_2  and  N_1 
REMARK    2  A    between atoms: C_6  and  C_2 
REMARK    3  A    between atoms: C_8  and  C_2 
REMARK    4  A    between atoms: C_10  and  N_3 
REMARK       I    between atoms: C_4  and  N_7 
REMARK    5  A    between atoms: C_5  and  C_4 
REMARK       I    between atoms: N_9  and  C_5 
REMARK    6  A    between atoms: N_7  and  C_8 
REMARK    7  A    between atoms: C_24  and  N_9 
REMARK    8  A    between atoms: C_26  and  C_24 
REMARK    9  A    between atoms: O_29  and  C_25 
ROOT
ATOM      1  C   UNL d   1      33.163  18.940 -22.963  0.00  0.00     0.106 C 
ENDROOT
BRANCH   1   2
ATOM      2  N   UNL d   1      33.163  19.531 -22.377  0.00  0.00    -0.298 N 
ATOM      3  C   UNL d   1      33.239  19.328 -21.589  0.00  0.00     0.100 A 
ATOM      4  C   UNL d   1      33.239  19.919 -21.003  0.00  0.00     0.100 A 
ATOM      5  N   UNL d   1      33.161  20.711 -21.222  0.00  0.00    -0.301 N 
ATOM      6  C   UNL d   1      33.084  20.906 -22.026  0.00  0.00     0.100 A 
ATOM      7  C   UNL d   1      33.085  20.323 -22.596  0.00  0.00     0.100 A 
BRANCH   5   8
ATOM      8  C   UNL d   1      33.160  21.291 -20.661  0.00  0.00     0.064 A 
ATOM      9  C   UNL d   1      33.126  22.091 -20.885  0.00  0.00     0.020 A 
ATOM     10  C   UNL d   1      33.124  22.689 -20.319  0.00  0.00     0.026 A 
ATOM     11  C   UNL d   1      33.156  22.494 -19.518  0.00  0.00     0.094 A 
ATOM     12  C   UNL d   1      33.190  21.694 -19.289  0.00  0.00     0.026 A 
ATOM     13  C   UNL d   1      33.191  21.097 -19.859  0.00  0.00     0.020 A 
BRANCH  11  14
ATOM     14  O   UNL d   1      33.154  23.095 -18.947  0.00  0.00    -0.328 OA
ATOM     15  C   UNL d   1      32.701  23.014 -18.262  0.00  0.00     0.181 C 
ENDBRANCH  11  14
ENDBRANCH   5   8
ENDBRANCH   1   2
BRANCH   1  16
ATOM     16  C   UNL d   1      33.147  19.167 -23.771  0.00  0.00     0.118 A 
ATOM     17  O   UNL d   1      33.063  19.903 -24.141  0.00  0.00    -0.304 OA
ATOM     18  C   UNL d   1      33.092  19.770 -24.960  0.00  0.00     0.123 A 
ATOM     19  C   UNL d   1      33.191  18.972 -25.092  0.00  0.00     0.029 A 
ATOM     20  C   UNL d   1      33.226  18.594 -24.355  0.00  0.00     0.028 A 
ENDBRANCH   1  16
BRANCH   1  21
ATOM     21  C   UNL d   1      33.178  18.141 -22.767  0.00  0.00     0.122 C 
BRANCH  21  22
ATOM     22  N   UNL d   1      32.639  17.614 -23.134  0.00  0.00    -0.201 NA
ATOM     23  C   UNL d   1      32.546  16.848 -22.848  0.00  0.00     0.337 C 
ATOM     24  O   UNL d   1      32.978  16.594 -22.205  0.00  0.00    -0.260 OA
BRANCH  23  25
ATOM     25  C   UNL d   1      32.014  16.345 -23.219  0.00  0.00     0.337 C 
ATOM     26  N   UNL d   1      31.220  16.563 -23.271  0.00  0.00    -0.200 NA
ATOM     27  O   UNL d   1      32.260  15.633 -23.538  0.00  0.00    -0.260 OA
BRANCH  26  28
ATOM     28  C   UNL d   1      30.678  16.064 -23.643  0.00  0.00     0.127 C 
BRANCH  28  29
ATOM     29  C   UNL d   1      29.924  16.341 -23.830  0.00  0.00     0.119 A 
ATOM     30  O   UNL d   1      29.667  17.019 -24.223  0.00  0.00    -0.304 OA
ATOM     31  C   UNL d   1      28.840  16.995 -24.245  0.00  0.00     0.123 A 
ATOM     32  C   UNL d   1      28.592  16.313 -23.871  0.00  0.00     0.029 A 
ATOM     33  C   UNL d   1      29.259  15.904 -23.613  0.00  0.00     0.028 A 
ENDBRANCH  28  29
ENDBRANCH  26  28
ENDBRANCH  23  25
ENDBRANCH  21  22
ENDBRANCH   1  21
TORSDOF 9
ENDMDL
MODEL 2
REMARK VINA RESULT:      -1.6      1.578      2.824
REMARK  9 active torsions:
REMARK  status: ('A' for Active; 'I' for Inactive)
REMARK    1  A    between atoms: C_2  and  N_1 
REMARK    2  A    between atoms: C_6  and  C_2 
REMARK    3  A    between atoms: C_8  and  C_2 
REMARK    4  A    between atoms: C_10  and  N_3 
REMARK       I    between atoms: C_4  and  N_7 
REMARK    5  A    between atoms: C_5  and  C_4 
REMARK       I    between atoms: N_9  and  C_5 
REMARK    6  A    between atoms: N_7  and  C_8 
REMARK    7  A    between atoms: C_24  and  N_9 
REMARK    8  A    between atoms: C_26  and  C_24 
REMARK    9  A    between atoms: O_29  and  C_25 
ROOT
ATOM      1  C   UNL d   1      33.020  21.955 -22.774  0.00  0.00     0.106 C 
ENDROOT
BRANCH   1   2
ATOM      2  N   UNL d   1      33.045  22.137 -21.961  0.00  0.00    -0.298 N 
ATOM      3  C   UNL d   1      33.193  21.548 -21.414  0.00  0.00     0.100 A 
ATOM      4  C   UNL d   1      33.217  21.730 -20.601  0.00  0.00     0.100 A 
ATOM      5  N   UNL d   1      33.092  22.507 -20.353  0.00  0.00    -0.301 N 
ATOM      6  C   UNL d   1      32.943  23.097 -20.918  0.00  0.00     0.100 A 
ATOM      7  C   UNL d   1      32.920  22.914 -21.712  0.00  0.00     0.100 A 
BRANCH   5   8
ATOM      8  C   UNL d   1      33.114  22.692 -19.567  0.00  0.00     0.064 A 
ATOM      9  C   UNL d   1      33.156  22.090 -18.995  0.00  0.00     0.020 A 
ATOM     10  C   UNL d   1      33.179  22.271 -18.193  0.00  0.00     0.026 A 
ATOM     11  C   UNL d   1      33.161  23.059 -17.950  0.00  0.00     0.094 A 
ATOM     12  C   UNL d   1      33.119  23.666 -18.520  0.00  0.00     0.026 A 
ATOM     13  C   UNL d   1      33.096  23.480 -19.324  0.00  0.00     0.020 A 
BRANCH  11  14
ATOM     14  O   UNL d   1      33.184  23.243 -17.142  0.00  0.00    -0.328 OA
ATOM     15  C   UNL d   1      32.489  23.239 -16.696  0.00  0.00     0.181 C 
ENDBRANCH  11  14
ENDBRANCH   5   8
ENDBRANCH   1   2
BRANCH   1  16
ATOM     16  C   UNL d   1      32.766  22.544 -23.315  0.00  0.00     0.118 A 
ATOM     17  O   UNL d   1      32.127  23.070 -23.306  0.00  0.00    -0.304 OA
ATOM     18  C   UNL d   1      32.170  23.520 -24.002  0.00  0.00     0.123 A 
ATOM     19  C   UNL d   1      32.820  23.278 -24.430  0.00  0.00     0.029 A 
ATOM     20  C   UNL d   1      33.193  22.671 -24.005  0.00  0.00     0.028 A 
ENDBRANCH   1  16
BRANCH   1  21
ATOM     21  C   UNL d   1      33.239  21.214 -23.054  0.00  0.00     0.122 C 
BRANCH  21  22
ATOM     22  N   UNL d   1      32.864  20.528 -22.747  0.00  0.00    -0.201 NA
ATOM     23  C   UNL d   1      32.870  19.825 -23.174  0.00  0.00     0.337 C 
ATOM     24  O   UNL d   1      33.241  19.787 -23.899  0.00  0.00    -0.260 OA
BRANCH  23  25
ATOM     25  C   UNL d   1      32.499  19.164 -22.860  0.00  0.00     0.337 C 
ATOM     26  N   UNL d   1      32.568  18.438 -23.246  0.00  0.00    -0.200 NA
ATOM     27  O   UNL d   1      32.063  19.215 -22.170  0.00  0.00    -0.260 OA
BRANCH  26  28
ATOM     28  C   UNL d   1      32.199  17.769 -22.937  0.00  0.00     0.127 C 
BRANCH  28  29
ATOM     29  C   UNL d   1      32.036  17.124 -23.426  0.00  0.00     0.119 A 
ATOM     30  O   UNL d   1      31.418  16.972 -23.950  0.00  0.00    -0.304 OA
ATOM     31  C   UNL d   1      31.556  16.228 -24.286  0.00  0.00     0.123 A 
ATOM     32  C   UNL d   1      32.248  15.928 -23.974  0.00  0.00     0.029 A 
ATOM     33  C   UNL d   1      32.549  16.479 -23.441  0.00  0.00     0.028 A 
ENDBRANCH  28  29
ENDBRANCH  26  28
ENDBRANCH  23  25
ENDBRANCH  21  22
ENDBRANCH   1  21
TORSDOF 9
ENDMDL
MODEL 3
REMARK VINA RESULT:      -0.4      1.493      2.833
REMARK  9 active torsions:
REMARK  status: ('A' for Active; 'I' for Inactive)
REMARK    1  A    between atoms: C_2  and  N_1 
REMARK    2  A    between atoms: C_6  and  C_2 
REMARK    3  A    between atoms: C_8  and  C_2 
REMARK    4  A    between atoms: C_10  and  N_3 
REMARK       I    between atoms: C_4  and  N_7 
REMARK    5  A    between atoms: C_5  and  C_4 
REMARK       I    between atoms: N_9  and  C_5 
REMARK    6  A    between atoms: N_7  and  C_8 
REMARK    7  A    between atoms: C_24  and  N_9 
REMARK    8  A    between atoms: C_26  and  C_24 
REMARK    9  A    between atoms: O_29  and  C_25 
ROOT
ATOM      1  C   UNL d   1      31.810  17.345 -24.168  0.00  0.00     0.106 C 
ENDROOT
BRANCH   1   2
ATOM      2  N   UNL d   1      32.022  18.021 -23.730  0.00  0.00    -0.298 N 
ATOM      3  C   UNL d   1      32.595  18.530 -24.015  0.00  0.00     0.100 A 
ATOM      4  C   UNL d   1      32.806  19.206 -23.577  0.00  0.00     0.100 A 
ATOM      5  N   UNL d   1      32.435  19.359 -22.856  0.00  0.00    -0.301 N 
ATOM      6  C   UNL d   1      31.854  18.834 -22.577  0.00  0.00     0.100 A 
ATOM      7  C   UNL d   1      31.651  18.173 -23.010  0.00  0.00     0.100 A 
BRANCH   5   8
ATOM      8  C   UNL d   1      32.634  20.012 -22.425  0.00  0.00     0.064 A 
ATOM      9  C   UNL d   1      32.470  20.042 -21.611  0.00  0.00     0.020 A 
ATOM     10  C   UNL d   1      32.669  20.704 -21.164  0.00  0.00     0.026 A 
ATOM     11  C   UNL d   1      33.037  21.347 -21.527  0.00  0.00     0.094 A 
ATOM     12  C   UNL d   1      33.204  21.321 -22.343  0.00  0.00     0.026 A 
ATOM     13  C   UNL d   1      33.002  20.655 -22.788  0.00  0.00     0.020 A 
BRANCH  11  14
ATOM     14  O   UNL d   1      33.239  22.015 -21.078  0.00  0.00    -0.328 OA
ATOM     15  C   UNL d   1      32.647  22.490 -20.753  0.00  0.00     0.181 C 
ENDBRANCH  11  14
ENDBRANCH   5   8
ENDBRANCH   1   2
BRANCH   1  16
ATOM     16  C   UNL d   1      32.326  16.683 -24.170  0.00  0.00     0.118 A 
ATOM     17  O   UNL d   1      32.621  16.205 -23.562  0.00  0.00    -0.304 OA
ATOM     18  C   UNL d   1      33.111  15.634 -23.914  0.00  0.00     0.123 A 
ATOM     19  C   UNL d   1      33.118  15.757 -24.720  0.00  0.00     0.029 A 
ATOM     20  C   UNL d   1      32.630  16.409 -24.882  0.00  0.00     0.028 A 
ENDBRANCH   1  16
BRANCH   1  21
ATOM     21  C   UNL d   1      31.108  17.313 -24.596  0.00  0.00     0.122 C 
BRANCH  21  22
ATOM     22  N   UNL d   1      30.585  16.666 -24.487  0.00  0.00    -0.201 NA
ATOM     23  C   UNL d   1      29.771  16.775 -24.540  0.00  0.00     0.337 C 
ATOM     24  O   UNL d   1      29.466  17.514 -24.700  0.00  0.00    -0.260 OA
BRANCH  23  25
ATOM     25  C   UNL d   1      29.274  16.132 -24.430  0.00  0.00     0.337 C 
ATOM     26  N   UNL d   1      28.801  16.096 -23.755  0.00  0.00    -0.200 NA
ATOM     27  O   UNL d   1      29.242  15.527 -24.980  0.00  0.00    -0.260 OA
BRANCH  26  28
ATOM     28  C   UNL d   1      28.299  15.453 -23.637  0.00  0.00     0.127 C 
BRANCH  28  29
ATOM     29  C   UNL d   1      27.521  15.577 -23.389  0.00  0.00     0.119 A 
ATOM     30  O   UNL d   1      26.809  15.613 -23.803  0.00  0.00    -0.304 OA
ATOM     31  C   UNL d   1      26.208  15.753 -23.251  0.00  0.00     0.123 A 
ATOM     32  C   UNL d   1      26.545  15.802 -22.509  0.00  0.00     0.029 A 
ATOM     33  C   UNL d   1      27.358  15.694 -22.588  0.00  0.00     0.028 A 
ENDBRANCH  28  29
ENDBRANCH  26  28
ENDBRANCH  23  25
ENDBRANCH  21  22
ENDBRANCH   1  21
TORSDOF 9
ENDMDL
