MODEL 1
REMARK VINA RESULT:      -9.5      0.000      0.000
REMARK  3 active torsions:
REMARK  status: ('A' for Active; 'I' for Inactive)
REMARK    1  A    between atoms: C_6  and  N_1 
REMARK    2  A    between atoms: C_3  and  C_2 
REMARK       I    between atoms: N_4  and  C_3 
REMARK    3  A    between atoms: C_9  and  N_4 
ROOT
ATOM      1  C   UNL d   1      53.532  33.393  53.905  0.00  0.00     0.069 A 
ATOM      2  C   UNL d   1      53.838  33.742  54.589  0.00  0.00     0.064 A 
ATOM      3  C   UNL d   1      53.134  34.950  54.286  0.00  0.00     0.128 A 
ATOM      4  C   UNL d   1      53.640  34.518  54.780  0.00  0.00     0.035 A 
ATOM      5  C   UNL d   1      53.027  33.826  53.411  0.00  0.00     0.007 A 
ATOM      6  C   UNL d   1      52.828  34.606  53.603  0.00  0.00     0.024 A 
ATOM      7 CL   UNL d   1      54.342  33.318  55.086  0.00  0.00    -0.082 Cl
ENDROOT
BRANCH   1   8
ATOM      8  C   UNL d   1      53.730  32.617  53.713  0.00  0.00     0.281 C 
ATOM      9  N   UNL d   1      53.154  32.027  53.734  0.00  0.00    -0.189 NA
ATOM     10  O   UNL d   1      54.506  32.433  53.502  0.00  0.00    -0.265 OA
BRANCH   9  11
ATOM     11  C   UNL d   1      53.146  31.213  53.583  0.00  0.00     0.166 A 
ATOM     12  N   UNL d   1      53.450  30.690  54.146  0.00  0.00    -0.225 NA
ATOM     13  C   UNL d   1      53.435  29.890  53.983  0.00  0.00     0.101 A 
ATOM     14  C   UNL d   1      53.124  29.608  53.274  0.00  0.00     0.021 A 
ATOM     15  C   UNL d   1      52.824  30.132  52.719  0.00  0.00     0.005 A 
ATOM     16  C   UNL d   1      52.833  30.942  52.871  0.00  0.00     0.039 A 
ENDBRANCH   9  11
ENDBRANCH   1   8
BRANCH   3  17
ATOM     17  N   UNL d   1      52.939  35.731  54.483  0.00  0.00    -0.114 N 
ATOM     18  O   UNL d   1      53.501  36.327  54.391  0.00  0.00    -0.532 OA
ATOM     19  O   UNL d   1      52.188  35.913  54.770  0.00  0.00    -0.532 OA
ENDBRANCH   3  17
TORSDOF 3
ENDMDL
MODEL 2
REMARK VINA RESULT:      -8.4      1.690      4.389
REMARK  3 active torsions:
REMARK  status: ('A' for Active; 'I' for Inactive)
REMARK    1  A    between atoms: C_6  and  N_1 
REMARK    2  A    between atoms: C_3  and  C_2 
REMARK       I    between atoms: N_4  and  C_3 
REMARK    3  A    between atoms: C_9  and  N_4 
ROOT
ATOM      1  C   UNL d   1      53.370  31.767  53.591  0.00  0.00     0.069 A 
ATOM      2  C   UNL d   1      52.903  31.388  53.024  0.00  0.00     0.064 A 
ATOM      3  C   UNL d   1      53.122  30.136  53.680  0.00  0.00     0.128 A 
ATOM      4  C   UNL d   1      52.779  30.576  53.067  0.00  0.00     0.035 A 
ATOM      5  C   UNL d   1      53.713  31.327  54.204  0.00  0.00     0.007 A 
ATOM      6  C   UNL d   1      53.587  30.510  54.247  0.00  0.00     0.024 A 
ATOM      7 CL   UNL d   1      52.558  31.820  52.411  0.00  0.00    -0.082 Cl
ENDROOT
BRANCH   1   8
ATOM      8  C   UNL d   1      53.495  32.580  53.548  0.00  0.00     0.281 C 
ATOM      9  N   UNL d   1      53.076  33.089  54.044  0.00  0.00    -0.189 NA
ATOM     10  O   UNL d   1      54.039  32.881  53.007  0.00  0.00    -0.265 OA
BRANCH   9  11
ATOM     11  C   UNL d   1      53.054  33.909  54.156  0.00  0.00     0.166 A 
ATOM     12  N   UNL d   1      53.456  34.245  54.795  0.00  0.00    -0.225 NA
ATOM     13  C   UNL d   1      53.425  35.055  54.892  0.00  0.00     0.101 A 
ATOM     14  C   UNL d   1      53.004  35.529  54.366  0.00  0.00     0.021 A 
ATOM     15  C   UNL d   1      52.607  35.190  53.733  0.00  0.00     0.005 A 
ATOM     16  C   UNL d   1      52.630  34.373  53.624  0.00  0.00     0.039 A 
ENDBRANCH   9  11
ENDBRANCH   1   8
BRANCH   3  17
ATOM     17  N   UNL d   1      52.992  29.318  53.719  0.00  0.00    -0.114 N 
ATOM     18  O   UNL d   1      53.325  28.882  54.335  0.00  0.00    -0.532 OA
ATOM     19  O   UNL d   1      52.536  28.942  53.145  0.00  0.00    -0.532 OA
ENDBRANCH   3  17
TORSDOF 3
ENDMDL
MODEL 3
REMARK VINA RESULT:      -8.2      2.321      3.374
REMARK  3 active torsions:
REMARK  status: ('A' for Active; 'I' for Inactive)
REMARK    1  A    between atoms: C_6  and  N_1 
REMARK    2  A    between atoms: C_3  and  C_2 
REMARK       I    between atoms: N_4  and  C_3 
REMARK    3  A    between atoms: C_9  and  N_4 
ROOT
ATOM      1  C   UNL d   1      53.049  33.457  53.902  0.00  0.00     0.069 A 
ATOM      2  C   UNL d   1      53.680  32.935  53.791  0.00  0.00     0.064 A 
ATOM      3  C   UNL d   1      54.441  33.646  54.771  0.00  0.00     0.128 A 
ATOM      4  C   UNL d   1      54.374  33.028  54.223  0.00  0.00     0.035 A 
ATOM      5  C   UNL d   1      53.116  34.075  54.450  0.00  0.00     0.007 A 
ATOM      6  C   UNL d   1      53.814  34.168  54.884  0.00  0.00     0.024 A 
ATOM      7 CL   UNL d   1      53.621  32.317  53.247  0.00  0.00    -0.082 Cl
ENDROOT
BRANCH   1   8
ATOM      8  C   UNL d   1      52.355  33.364  53.469  0.00  0.00     0.281 C 
ATOM      9  N   UNL d   1      51.970  34.024  53.158  0.00  0.00    -0.189 NA
ATOM     10  O   UNL d   1      52.047  32.608  53.348  0.00  0.00    -0.265 OA
BRANCH   9  11
ATOM     11  C   UNL d   1      51.285  34.143  52.709  0.00  0.00     0.166 A 
ATOM     12  N   UNL d   1      51.329  34.130  51.884  0.00  0.00    -0.225 NA
ATOM     13  C   UNL d   1      50.644  34.249  51.456  0.00  0.00     0.101 A 
ATOM     14  C   UNL d   1      49.924  34.380  51.834  0.00  0.00     0.021 A 
ATOM     15  C   UNL d   1      49.887  34.392  52.653  0.00  0.00     0.005 A 
ATOM     16  C   UNL d   1      50.571  34.273  53.098  0.00  0.00     0.039 A 
ENDBRANCH   9  11
ENDBRANCH   1   8
BRANCH   3  17
ATOM     17  N   UNL d   1      55.142  33.735  55.204  0.00  0.00    -0.114 N 
ATOM     18  O   UNL d   1      55.126  33.662  56.026  0.00  0.00    -0.532 OA
ATOM     19  O   UNL d   1      55.852  33.895  54.818  0.00  0.00    -0.532 OA
ENDBRANCH   3  17
TORSDOF 3
ENDMDL
MODEL 4
REMARK VINA RESULT:      -8.1      2.440      3.411
REMARK  3 active torsions:
REMARK  status: ('A' for Active; 'I' for Inactive)
REMARK    1  A    between atoms: C_6  and  N_1 
REMARK    2  A    between atoms: C_3  and  C_2 
REMARK       I    between atoms: N_4  and  C_3 
REMARK    3  A    between atoms: C_9  and  N_4 
ROOT
ATOM      1  C   UNL d   1      51.798  33.770  53.103  0.00  0.00     0.069 A 
ATOM      2  C   UNL d   1      51.748  34.276  52.451  0.00  0.00     0.064 A 
ATOM      3  C   UNL d   1      50.321  34.281  52.566  0.00  0.00     0.128 A 
ATOM      4  C   UNL d   1      51.013  34.531  52.183  0.00  0.00     0.035 A 
ATOM      5  C   UNL d   1      51.107  33.519  53.486  0.00  0.00     0.007 A 
ATOM      6  C   UNL d   1      50.368  33.776  53.215  0.00  0.00     0.024 A 
ATOM      7 CL   UNL d   1      52.431  34.530  52.065  0.00  0.00    -0.082 Cl
ENDROOT
BRANCH   1   8
ATOM      8  C   UNL d   1      52.533  33.514  53.371  0.00  0.00     0.281 C 
ATOM      9  N   UNL d   1      52.825  33.784  54.095  0.00  0.00    -0.189 NA
ATOM     10  O   UNL d   1      52.975  32.989  52.914  0.00  0.00    -0.265 OA
BRANCH   9  11
ATOM     11  C   UNL d   1      53.517  33.653  54.530  0.00  0.00     0.166 A 
ATOM     12  N   UNL d   1      54.034  34.281  54.672  0.00  0.00    -0.225 NA
ATOM     13  C   UNL d   1      54.712  34.137  55.104  0.00  0.00     0.101 A 
ATOM     14  C   UNL d   1      54.880  33.384  55.392  0.00  0.00     0.021 A 
ATOM     15  C   UNL d   1      54.362  32.765  55.248  0.00  0.00     0.005 A 
ATOM     16  C   UNL d   1      53.673  32.896  54.814  0.00  0.00     0.039 A 
ENDBRANCH   9  11
ENDBRANCH   1   8
BRANCH   3  17
ATOM     17  N   UNL d   1      49.584  34.541  52.291  0.00  0.00    -0.114 N 
ATOM     18  O   UNL d   1      49.119  35.025  52.770  0.00  0.00    -0.532 OA
ATOM     19  O   UNL d   1      49.316  34.319  51.544  0.00  0.00    -0.532 OA
ENDBRANCH   3  17
TORSDOF 3
ENDMDL
