MODEL 1
REMARK VINA RESULT:       0.4      0.000      0.000
REMARK  3 active torsions:
REMARK  status: ('A' for Active; 'I' for Inactive)
REMARK    1  A    between atoms: C_6  and  C_1 
REMARK    2  A    between atoms: C_2  and  C_8 
REMARK       I    between atoms: N_11  and  C_6 
REMARK    3  A    between atoms: C_12  and  N_11 
ROOT
ATOM      1  C   UNL d   1      31.189  16.673 -24.656  0.00  0.00     0.054 A 
ATOM      2  C   UNL d   1      31.920  16.956 -24.390  0.00  0.00     0.088 A 
ATOM      3  C   UNL d   1      31.124  15.927 -25.008  0.00  0.00     0.005 A 
ATOM      4  C   UNL d   1      32.601  16.481 -24.478  0.00  0.00     0.019 A 
ATOM      5  C   UNL d   1      31.805  15.453 -25.097  0.00  0.00     0.000 A 
ATOM      6  C   UNL d   1      32.540  15.759 -24.819  0.00  0.00     0.002 A 
ENDROOT
BRANCH   2   7
ATOM      7  N   UNL d   1      31.986  17.702 -24.037  0.00  0.00    -0.207 NA
ATOM      8  C   UNL d   1      32.646  17.900 -23.579  0.00  0.00     0.286 C 
ATOM      9  O   UNL d   1      33.241  17.379 -23.462  0.00  0.00    -0.265 OA
BRANCH   8  10
ATOM     10  C   UNL d   1      32.694  18.662 -23.229  0.00  0.00     0.098 A 
ATOM     11  S   UNL d   1      32.620  18.777 -22.470  0.00  0.00    -0.081 SA
ATOM     12  C   UNL d   1      32.699  19.599 -22.337  0.00  0.00     0.030 A 
ATOM     13  C   UNL d   1      32.677  20.051 -21.687  0.00  0.00     0.006 A 
ATOM     14  C   UNL d   1      32.824  19.956 -23.070  0.00  0.00     0.017 A 
ATOM     15  C   UNL d   1      32.779  20.873 -21.749  0.00  0.00     0.001 A 
ATOM     16  C   UNL d   1      32.903  21.243 -22.463  0.00  0.00     0.000 A 
ATOM     17  C   UNL d   1      32.926  20.771 -23.143  0.00  0.00     0.001 A 
ATOM     18  C   UNL d   1      32.819  19.352 -23.638  0.00  0.00     0.069 A 
ATOM     19 CL   UNL d   1      32.918  19.412 -24.444  0.00  0.00    -0.082 Cl
ENDBRANCH   8  10
ENDBRANCH   2   7
BRANCH   1  20
ATOM     20  C   UNL d   1      30.508  17.147 -24.567  0.00  0.00     0.164 A 
ATOM     21  N   UNL d   1      30.233  17.837 -24.950  0.00  0.00    -0.225 NA
ATOM     22  C   UNL d   1      29.525  18.024 -24.601  0.00  0.00     0.101 A 
ATOM     23  C   UNL d   1      29.015  18.641 -24.755  0.00  0.00     0.021 A 
ATOM     24  C   UNL d   1      29.349  17.505 -24.039  0.00  0.00     0.101 A 
ATOM     25  C   UNL d   1      28.315  18.728 -24.328  0.00  0.00     0.002 A 
ATOM     26  C   UNL d   1      28.136  18.206 -23.760  0.00  0.00     0.002 A 
ATOM     27  C   UNL d   1      28.648  17.593 -23.611  0.00  0.00     0.021 A 
ATOM     28  N   UNL d   1      29.944  16.948 -23.996  0.00  0.00    -0.225 NA
ENDBRANCH   1  20
TORSDOF 3
ENDMDL
MODEL 2
REMARK VINA RESULT:       0.8      2.146      4.631
REMARK  3 active torsions:
REMARK  status: ('A' for Active; 'I' for Inactive)
REMARK    1  A    between atoms: C_6  and  C_1 
REMARK    2  A    between atoms: C_2  and  C_8 
REMARK       I    between atoms: N_11  and  C_6 
REMARK    3  A    between atoms: C_12  and  N_11 
ROOT
ATOM      1  C   UNL d   1      33.036  21.262 -23.501  0.00  0.00     0.054 A 
ATOM      2  C   UNL d   1      33.056  20.657 -24.065  0.00  0.00     0.088 A 
ATOM      3  C   UNL d   1      33.118  22.055 -23.725  0.00  0.00     0.005 A 
ATOM      4  C   UNL d   1      33.161  20.848 -24.871  0.00  0.00     0.019 A 
ATOM      5  C   UNL d   1      33.223  22.246 -24.531  0.00  0.00     0.000 A 
ATOM      6  C   UNL d   1      33.241  21.615 -25.089  0.00  0.00     0.002 A 
ENDROOT
BRANCH   2   7
ATOM      7  N   UNL d   1      32.974  19.863 -23.841  0.00  0.00    -0.207 NA
ATOM      8  C   UNL d   1      32.655  19.305 -24.362  0.00  0.00     0.286 C 
ATOM      9  O   UNL d   1      32.416  19.512 -25.096  0.00  0.00    -0.265 OA
BRANCH   8  10
ATOM     10  C   UNL d   1      32.580  18.506 -24.117  0.00  0.00     0.098 A 
ATOM     11  S   UNL d   1      33.190  18.060 -23.960  0.00  0.00    -0.081 SA
ATOM     12  C   UNL d   1      32.895  17.309 -23.736  0.00  0.00     0.030 A 
ATOM     13  C   UNL d   1      33.240  16.631 -23.516  0.00  0.00     0.006 A 
ATOM     14  C   UNL d   1      32.072  17.348 -23.773  0.00  0.00     0.017 A 
ATOM     15  C   UNL d   1      32.773  15.971 -23.325  0.00  0.00     0.001 A 
ATOM     16  C   UNL d   1      31.960  15.990 -23.355  0.00  0.00     0.000 A 
ATOM     17  C   UNL d   1      31.599  16.698 -23.586  0.00  0.00     0.001 A 
ATOM     18  C   UNL d   1      31.875  18.116 -24.017  0.00  0.00     0.069 A 
ATOM     19 CL   UNL d   1      31.136  18.436 -24.139  0.00  0.00    -0.082 Cl
ENDBRANCH   8  10
ENDBRANCH   2   7
BRANCH   1  20
ATOM     20  C   UNL d   1      32.931  21.071 -22.696  0.00  0.00     0.164 A 
ATOM     21  N   UNL d   1      33.236  20.469 -22.203  0.00  0.00    -0.225 NA
ATOM     22  C   UNL d   1      32.913  20.592 -21.468  0.00  0.00     0.101 A 
ATOM     23  C   UNL d   1      33.017  20.173 -20.777  0.00  0.00     0.021 A 
ATOM     24  C   UNL d   1      32.439  21.218 -21.476  0.00  0.00     0.101 A 
ATOM     25  C   UNL d   1      32.630  20.398 -20.084  0.00  0.00     0.002 A 
ATOM     26  C   UNL d   1      32.152  21.028 -20.090  0.00  0.00     0.002 A 
ATOM     27  C   UNL d   1      32.051  21.442 -20.782  0.00  0.00     0.021 A 
ATOM     28  N   UNL d   1      32.431  21.536 -22.228  0.00  0.00    -0.225 NA
ENDBRANCH   1  20
TORSDOF 3
ENDMDL
MODEL 3
REMARK VINA RESULT:       1.6      2.893      5.273
REMARK  3 active torsions:
REMARK  status: ('A' for Active; 'I' for Inactive)
REMARK    1  A    between atoms: C_6  and  C_1 
REMARK    2  A    between atoms: C_2  and  C_8 
REMARK       I    between atoms: N_11  and  C_6 
REMARK    3  A    between atoms: C_12  and  N_11 
ROOT
ATOM      1  C   UNL d   1      33.037  22.541 -23.040  0.00  0.00     0.054 A 
ATOM      2  C   UNL d   1      33.144  21.941 -23.599  0.00  0.00     0.088 A 
ATOM      3  C   UNL d   1      33.024  23.337 -23.267  0.00  0.00     0.005 A 
ATOM      4  C   UNL d   1      33.239  22.141 -24.405  0.00  0.00     0.019 A 
ATOM      5  C   UNL d   1      33.119  23.537 -24.072  0.00  0.00     0.000 A 
ATOM      6  C   UNL d   1      33.226  22.910 -24.626  0.00  0.00     0.002 A 
ENDROOT
BRANCH   2   7
ATOM      7  N   UNL d   1      33.158  21.144 -23.372  0.00  0.00    -0.207 NA
ATOM      8  C   UNL d   1      33.093  20.540 -23.934  0.00  0.00     0.286 C 
ATOM      9  O   UNL d   1      33.015  20.705 -24.713  0.00  0.00    -0.265 OA
BRANCH   8  10
ATOM     10  C   UNL d   1      33.109  19.739 -23.684  0.00  0.00     0.098 A 
ATOM     11  S   UNL d   1      33.190  19.536 -22.944  0.00  0.00    -0.081 SA
ATOM     12  C   UNL d   1      33.180  18.700 -22.916  0.00  0.00     0.030 A 
ATOM     13  C   UNL d   1      33.239  18.173 -22.327  0.00  0.00     0.006 A 
ATOM     14  C   UNL d   1      33.088  18.429 -23.689  0.00  0.00     0.017 A 
ATOM     15  C   UNL d   1      33.207  17.360 -22.493  0.00  0.00     0.001 A 
ATOM     16  C   UNL d   1      33.117  17.074 -23.250  0.00  0.00     0.000 A 
ATOM     17  C   UNL d   1      33.055  17.624 -23.865  0.00  0.00     0.001 A 
ATOM     18  C   UNL d   1      33.043  19.098 -24.178  0.00  0.00     0.069 A 
ATOM     19 CL   UNL d   1      32.951  19.132 -24.986  0.00  0.00    -0.082 Cl
ENDBRANCH   8  10
ENDBRANCH   2   7
BRANCH   1  20
ATOM     20  C   UNL d   1      32.942  22.342 -22.236  0.00  0.00     0.164 A 
ATOM     21  N   UNL d   1      32.587  21.696 -21.840  0.00  0.00    -0.225 NA
ATOM     22  C   UNL d   1      32.683  21.836 -21.047  0.00  0.00     0.101 A 
ATOM     23  C   UNL d   1      32.445  21.390 -20.408  0.00  0.00     0.021 A 
ATOM     24  C   UNL d   1      33.066  22.511 -20.928  0.00  0.00     0.101 A 
ATOM     25  C   UNL d   1      32.602  21.637 -19.637  0.00  0.00     0.002 A 
ATOM     26  C   UNL d   1      32.988  22.317 -19.516  0.00  0.00     0.002 A 
ATOM     27  C   UNL d   1      33.223  22.759 -20.157  0.00  0.00     0.021 A 
ATOM     28  N   UNL d   1      33.240  22.847 -21.652  0.00  0.00    -0.225 NA
ENDBRANCH   1  20
TORSDOF 3
ENDMDL
