MODEL 1
REMARK VINA RESULT:      55.5      0.000      0.000
REMARK  8 active torsions:
REMARK  status: ('A' for Active; 'I' for Inactive)
REMARK    1  A    between atoms: C_2  and  S_1 
REMARK    2  A    between atoms: N_8  and  S_1 
REMARK    3  A    between atoms: C_13  and  N_8 
REMARK    4  A    between atoms: N_9  and  C_14 
REMARK    5  A    between atoms: O_15  and  C_10 
REMARK    6  A    between atoms: C_14  and  C_13 
REMARK    7  A    between atoms: C_22  and  O_15 
REMARK    8  A    between atoms: C_23  and  C_22 
ROOT
ATOM      1  C   UNL d   1     -50.079  26.952  33.564  0.00  0.00     0.105 A 
ATOM      2  C   UNL d   1     -50.857  27.213  33.481  0.00  0.00     0.014 A 
ATOM      3  C   UNL d   1     -51.472  26.668  33.395  0.00  0.00     0.024 A 
ATOM      4  C   UNL d   1     -49.914  26.150  33.562  0.00  0.00     0.015 A 
ATOM      5  C   UNL d   1     -51.300  25.857  33.393  0.00  0.00     0.100 A 
ATOM      6  C   UNL d   1     -50.526  25.601  33.476  0.00  0.00     0.025 A 
ATOM      7  C   UNL d   1     -51.021  28.014  33.483  0.00  0.00     0.001 A 
ATOM      8  C   UNL d   1     -52.244  26.929  33.312  0.00  0.00     0.002 A 
ATOM      9  C   UNL d   1     -51.792  28.280  33.401  0.00  0.00     0.000 A 
ATOM     10  C   UNL d   1     -52.411  27.736  33.314  0.00  0.00     0.000 A 
ENDROOT
BRANCH   1  11
ATOM     11  S   UNL d   1     -49.467  27.500  33.650  0.00  0.00     0.285 S 
ATOM     12  O   UNL d   1     -48.996  26.922  33.991  0.00  0.00    -0.198 OA
ATOM     13  O   UNL d   1     -49.943  28.085  33.306  0.00  0.00    -0.198 OA
BRANCH  11  14
ATOM     14  N   UNL d   1     -48.857  28.048  33.736  0.00  0.00    -0.155 NA
BRANCH  14  15
ATOM     15  C   UNL d   1     -48.607  28.264  34.494  0.00  0.00     0.131 C 
BRANCH  15  16
ATOM     16  C   UNL d   1     -48.429  29.055  34.654  0.00  0.00     0.102 C 
BRANCH  16  17
ATOM     17  N   UNL d   1     -47.987  29.249  35.318  0.00  0.00    -0.298 N 
ATOM     18  C   UNL d   1     -47.566  28.667  35.720  0.00  0.00     0.107 A 
ATOM     19  C   UNL d   1     -47.121  28.860  36.388  0.00  0.00     0.142 A 
ATOM     20  O   UNL d   1     -47.098  29.642  36.654  0.00  0.00    -0.300 OA
ATOM     21  C   UNL d   1     -47.521  30.229  36.251  0.00  0.00     0.142 A 
ATOM     22  C   UNL d   1     -47.965  30.031  35.584  0.00  0.00     0.107 A 
ENDBRANCH  16  17
ENDBRANCH  15  16
ENDBRANCH  14  15
ENDBRANCH  11  14
ENDBRANCH   1  11
BRANCH   5  23
ATOM     23  O   UNL d   1     -51.910  25.310  33.307  0.00  0.00    -0.305 OA
BRANCH  23  24
ATOM     24  C   UNL d   1     -51.788  24.523  33.501  0.00  0.00     0.123 C 
BRANCH  24  25
ATOM     25  C   UNL d   1     -52.413  23.989  33.475  0.00  0.00     0.027 C 
ATOM     26  C   UNL d   1     -52.269  23.190  33.321  0.00  0.00     0.002 C 
ENDBRANCH  24  25
ENDBRANCH  23  24
ENDBRANCH   5  23
TORSDOF 8
ENDMDL
MODEL 2
REMARK VINA RESULT:      58.3      0.919      1.712
REMARK  8 active torsions:
REMARK  status: ('A' for Active; 'I' for Inactive)
REMARK    1  A    between atoms: C_2  and  S_1 
REMARK    2  A    between atoms: N_8  and  S_1 
REMARK    3  A    between atoms: C_13  and  N_8 
REMARK    4  A    between atoms: N_9  and  C_14 
REMARK    5  A    between atoms: O_15  and  C_10 
REMARK    6  A    between atoms: C_14  and  C_13 
REMARK    7  A    between atoms: C_22  and  O_15 
REMARK    8  A    between atoms: C_23  and  C_22 
ROOT
ATOM      1  C   UNL d   1     -49.933  26.906  34.047  0.00  0.00     0.105 A 
ATOM      2  C   UNL d   1     -49.903  26.119  33.800  0.00  0.00     0.014 A 
ATOM      3  C   UNL d   1     -50.600  25.684  33.714  0.00  0.00     0.024 A 
ATOM      4  C   UNL d   1     -50.655  27.257  34.208  0.00  0.00     0.015 A 
ATOM      5  C   UNL d   1     -51.329  26.044  33.879  0.00  0.00     0.100 A 
ATOM      6  C   UNL d   1     -51.354  26.825  34.124  0.00  0.00     0.025 A 
ATOM      7  C   UNL d   1     -49.182  25.769  33.639  0.00  0.00     0.001 A 
ATOM      8  C   UNL d   1     -50.569  24.902  33.469  0.00  0.00     0.002 A 
ATOM      9  C   UNL d   1     -49.147  24.987  33.393  0.00  0.00     0.000 A 
ATOM     10  C   UNL d   1     -49.843  24.547  33.306  0.00  0.00     0.000 A 
ENDROOT
BRANCH   1  11
ATOM     11  S   UNL d   1     -49.234  27.337  34.131  0.00  0.00     0.285 S 
ATOM     12  O   UNL d   1     -49.171  27.084  34.908  0.00  0.00    -0.198 OA
ATOM     13  O   UNL d   1     -49.298  27.594  33.345  0.00  0.00    -0.198 OA
BRANCH  11  14
ATOM     14  N   UNL d   1     -48.536  27.768  34.215  0.00  0.00    -0.155 NA
BRANCH  14  15
ATOM     15  C   UNL d   1     -48.451  28.285  34.855  0.00  0.00     0.131 C 
BRANCH  15  16
ATOM     16  C   UNL d   1     -47.707  28.601  35.027  0.00  0.00     0.102 C 
BRANCH  16  17
ATOM     17  N   UNL d   1     -47.642  29.248  35.527  0.00  0.00    -0.298 N 
ATOM     18  C   UNL d   1     -47.456  29.140  36.322  0.00  0.00     0.107 A 
ATOM     19  C   UNL d   1     -47.390  29.790  36.828  0.00  0.00     0.142 A 
ATOM     20  O   UNL d   1     -47.511  30.552  36.534  0.00  0.00    -0.300 OA
ATOM     21  C   UNL d   1     -47.699  30.663  35.735  0.00  0.00     0.142 A 
ATOM     22  C   UNL d   1     -47.764  30.010  35.234  0.00  0.00     0.107 A 
ENDBRANCH  16  17
ENDBRANCH  15  16
ENDBRANCH  14  15
ENDBRANCH  11  14
ENDBRANCH   1  11
BRANCH   5  23
ATOM     23  O   UNL d   1     -52.026  25.613  33.795  0.00  0.00    -0.305 OA
BRANCH  23  24
ATOM     24  C   UNL d   1     -52.708  25.981  33.530  0.00  0.00     0.123 C 
BRANCH  24  25
ATOM     25  C   UNL d   1     -53.362  25.532  33.310  0.00  0.00     0.027 C 
ATOM     26  C   UNL d   1     -53.321  24.707  33.323  0.00  0.00     0.002 C 
ENDBRANCH  24  25
ENDBRANCH  23  24
ENDBRANCH   5  23
TORSDOF 8
ENDMDL
