MODEL 1
REMARK VINA RESULT:     -10.2      0.000      0.000
REMARK  2 active torsions:
REMARK  status: ('A' for Active; 'I' for Inactive)
REMARK    1  A    between atoms: N_2  and  C_9 
REMARK    2  A    between atoms: C_11  and  C_7 
ROOT
ATOM      1  C   UNL d   1      53.148  33.194  53.960  0.00  0.00     0.110 A 
ATOM      2  C   UNL d   1      53.809  33.960  54.827  0.00  0.00     0.332 A 
ATOM      3  C   UNL d   1      53.809  32.781  54.212  0.00  0.00     0.060 A 
ATOM      4  S   UNL d   1      54.216  33.248  54.744  0.00  0.00    -0.018 SA
ATOM      5  O   UNL d   1      53.143  33.919  54.335  0.00  0.00    -0.268 OA
ATOM      6  C   UNL d   1      52.629  32.856  53.418  0.00  0.00     0.027 A 
ATOM      7  C   UNL d   1      53.953  32.010  53.912  0.00  0.00     0.051 A 
ATOM      8  C   UNL d   1      52.767  32.100  53.120  0.00  0.00     0.044 A 
ATOM      9  O   UNL d   1      54.023  34.595  55.310  0.00  0.00    -0.251 OA
ATOM     10  C   UNL d   1      53.425  31.680  53.367  0.00  0.00     0.196 A 
ATOM     11  O   UNL d   1      53.571  30.914  53.071  0.00  0.00    -0.286 OA
ENDROOT
BRANCH   6  12
ATOM     12  C   UNL d   1      51.964  33.275  53.166  0.00  0.00     0.002 A 
ATOM     13  C   UNL d   1      51.243  33.173  53.562  0.00  0.00     0.002 A 
ATOM     14  C   UNL d   1      50.572  33.593  53.313  0.00  0.00     0.024 A 
ATOM     15  C   UNL d   1      50.627  34.112  52.669  0.00  0.00     0.127 A 
ATOM     16  C   UNL d   1      51.344  34.211  52.278  0.00  0.00     0.024 A 
ATOM     17  C   UNL d   1      52.015  33.791  52.528  0.00  0.00     0.002 A 
BRANCH  15  18
ATOM     18  N   UNL d   1      49.956  34.536  52.414  0.00  0.00    -0.114 N 
ATOM     19  O   UNL d   1      49.562  35.033  52.939  0.00  0.00    -0.532 OA
ATOM     20  O   UNL d   1      49.690  34.458  51.640  0.00  0.00    -0.532 OA
ENDBRANCH  15  18
ENDBRANCH   6  12
TORSDOF 2
ENDMDL
MODEL 2
REMARK VINA RESULT:     -10.0      0.785      2.019
REMARK  2 active torsions:
REMARK  status: ('A' for Active; 'I' for Inactive)
REMARK    1  A    between atoms: N_2  and  C_9 
REMARK    2  A    between atoms: C_11  and  C_7 
ROOT
ATOM      1  C   UNL d   1      52.905  32.400  53.341  0.00  0.00     0.110 A 
ATOM      2  C   UNL d   1      53.008  31.171  52.834  0.00  0.00     0.332 A 
ATOM      3  C   UNL d   1      53.591  32.060  53.634  0.00  0.00     0.060 A 
ATOM      4  S   UNL d   1      53.657  31.307  53.325  0.00  0.00    -0.018 SA
ATOM      5  O   UNL d   1      52.544  31.858  52.849  0.00  0.00    -0.268 OA
ATOM      6  C   UNL d   1      52.695  33.165  53.559  0.00  0.00     0.027 A 
ATOM      7  C   UNL d   1      54.076  32.499  54.160  0.00  0.00     0.051 A 
ATOM      8  C   UNL d   1      53.168  33.599  54.075  0.00  0.00     0.044 A 
ATOM      9  O   UNL d   1      52.851  30.481  52.408  0.00  0.00    -0.251 OA
ATOM     10  C   UNL d   1      53.855  33.267  54.372  0.00  0.00     0.196 A 
ATOM     11  O   UNL d   1      54.340  33.701  54.895  0.00  0.00    -0.286 OA
ENDROOT
BRANCH   6  12
ATOM     12  C   UNL d   1      52.004  33.503  53.262  0.00  0.00     0.002 A 
ATOM     13  C   UNL d   1      52.043  33.989  52.592  0.00  0.00     0.002 A 
ATOM     14  C   UNL d   1      51.350  34.332  52.289  0.00  0.00     0.024 A 
ATOM     15  C   UNL d   1      50.623  34.185  52.659  0.00  0.00     0.127 A 
ATOM     16  C   UNL d   1      50.587  33.702  53.324  0.00  0.00     0.024 A 
ATOM     17  C   UNL d   1      51.280  33.360  53.626  0.00  0.00     0.002 A 
BRANCH  15  18
ATOM     18  N   UNL d   1      49.923  34.526  52.359  0.00  0.00    -0.114 N 
ATOM     19  O   UNL d   1      49.457  34.999  52.847  0.00  0.00    -0.532 OA
ATOM     20  O   UNL d   1      49.700  34.390  51.580  0.00  0.00    -0.532 OA
ENDBRANCH  15  18
ENDBRANCH   6  12
TORSDOF 2
ENDMDL
MODEL 3
REMARK VINA RESULT:      -9.8      1.955      3.552
REMARK  2 active torsions:
REMARK  status: ('A' for Active; 'I' for Inactive)
REMARK    1  A    between atoms: N_2  and  C_9 
REMARK    2  A    between atoms: C_11  and  C_7 
ROOT
ATOM      1  C   UNL d   1      53.369  33.539  54.153  0.00  0.00     0.110 A 
ATOM      2  C   UNL d   1      52.397  34.338  53.714  0.00  0.00     0.332 A 
ATOM      3  C   UNL d   1      53.541  34.303  54.392  0.00  0.00     0.060 A 
ATOM      4  S   UNL d   1      52.947  34.796  54.124  0.00  0.00    -0.018 SA
ATOM      5  O   UNL d   1      52.668  33.555  53.736  0.00  0.00    -0.268 OA
ATOM      6  C   UNL d   1      53.876  32.920  54.346  0.00  0.00     0.027 A 
ATOM      7  C   UNL d   1      54.239  34.450  54.836  0.00  0.00     0.051 A 
ATOM      8  C   UNL d   1      54.562  33.059  54.781  0.00  0.00     0.044 A 
ATOM      9  O   UNL d   1      51.707  34.609  53.349  0.00  0.00    -0.251 OA
ATOM     10  C   UNL d   1      54.741  33.820  55.024  0.00  0.00     0.196 A 
ATOM     11  O   UNL d   1      55.433  33.969  55.465  0.00  0.00    -0.286 OA
ENDROOT
BRANCH   6  12
ATOM     12  C   UNL d   1      53.699  32.151  54.103  0.00  0.00     0.002 A 
ATOM     13  C   UNL d   1      53.361  31.620  54.642  0.00  0.00     0.002 A 
ATOM     14  C   UNL d   1      53.182  30.846  54.402  0.00  0.00     0.024 A 
ATOM     15  C   UNL d   1      53.342  30.609  53.624  0.00  0.00     0.127 A 
ATOM     16  C   UNL d   1      53.678  31.138  53.092  0.00  0.00     0.024 A 
ATOM     17  C   UNL d   1      53.857  31.912  53.332  0.00  0.00     0.002 A 
BRANCH  15  18
ATOM     18  N   UNL d   1      53.164  29.832  53.377  0.00  0.00    -0.114 N 
ATOM     19  O   UNL d   1      53.210  29.211  53.916  0.00  0.00    -0.532 OA
ATOM     20  O   UNL d   1      52.943  29.689  52.598  0.00  0.00    -0.532 OA
ENDBRANCH  15  18
ENDBRANCH   6  12
TORSDOF 2
ENDMDL
MODEL 4
REMARK VINA RESULT:      -9.2      1.697      3.351
REMARK  2 active torsions:
REMARK  status: ('A' for Active; 'I' for Inactive)
REMARK    1  A    between atoms: N_2  and  C_9 
REMARK    2  A    between atoms: C_11  and  C_7 
ROOT
ATOM      1  C   UNL d   1      52.705  33.682  53.656  0.00  0.00     0.110 A 
ATOM      2  C   UNL d   1      53.276  34.341  54.664  0.00  0.00     0.332 A 
ATOM      3  C   UNL d   1      52.514  34.475  53.582  0.00  0.00     0.060 A 
ATOM      4  S   UNL d   1      52.863  34.882  54.198  0.00  0.00    -0.018 SA
ATOM      5  O   UNL d   1      53.173  33.594  54.319  0.00  0.00    -0.268 OA
ATOM      6  C   UNL d   1      52.427  33.135  53.107  0.00  0.00     0.027 A 
ATOM      7  C   UNL d   1      52.033  34.726  52.941  0.00  0.00     0.051 A 
ATOM      8  C   UNL d   1      51.955  33.377  52.476  0.00  0.00     0.044 A 
ATOM      9  O   UNL d   1      53.711  34.510  55.346  0.00  0.00    -0.251 OA
ATOM     10  C   UNL d   1      51.760  34.168  52.395  0.00  0.00     0.196 A 
ATOM     11  O   UNL d   1      51.282  34.420  51.760  0.00  0.00    -0.286 OA
ENDROOT
BRANCH   6  12
ATOM     12  C   UNL d   1      52.621  32.337  53.185  0.00  0.00     0.002 A 
ATOM     13  C   UNL d   1      52.032  31.792  53.391  0.00  0.00     0.002 A 
ATOM     14  C   UNL d   1      52.224  30.988  53.471  0.00  0.00     0.024 A 
ATOM     15  C   UNL d   1      53.003  30.736  53.344  0.00  0.00     0.127 A 
ATOM     16  C   UNL d   1      53.585  31.280  53.139  0.00  0.00     0.024 A 
ATOM     17  C   UNL d   1      53.393  32.083  53.060  0.00  0.00     0.002 A 
BRANCH  15  18
ATOM     18  N   UNL d   1      53.201  29.929  53.422  0.00  0.00    -0.114 N 
ATOM     19  O   UNL d   1      52.614  29.355  53.353  0.00  0.00    -0.532 OA
ATOM     20  O   UNL d   1      53.979  29.709  53.568  0.00  0.00    -0.532 OA
ENDBRANCH  15  18
ENDBRANCH   6  12
TORSDOF 2
ENDMDL
MODEL 5
REMARK VINA RESULT:      -9.1      2.018      3.728
REMARK  2 active torsions:
REMARK  status: ('A' for Active; 'I' for Inactive)
REMARK    1  A    between atoms: N_2  and  C_9 
REMARK    2  A    between atoms: C_11  and  C_7 
ROOT
ATOM      1  C   UNL d   1      52.821  32.216  53.317  0.00  0.00     0.110 A 
ATOM      2  C   UNL d   1      51.825  32.931  52.794  0.00  0.00     0.332 A 
ATOM      3  C   UNL d   1      52.323  31.703  52.915  0.00  0.00     0.060 A 
ATOM      4  S   UNL d   1      51.711  32.139  52.594  0.00  0.00    -0.018 SA
ATOM      5  O   UNL d   1      52.519  32.971  53.245  0.00  0.00    -0.268 OA
ATOM      6  C   UNL d   1      53.490  31.929  53.699  0.00  0.00     0.027 A 
ATOM      7  C   UNL d   1      52.502  30.883  52.898  0.00  0.00     0.051 A 
ATOM      8  C   UNL d   1      53.670  31.125  53.685  0.00  0.00     0.044 A 
ATOM      9  O   UNL d   1      51.338  33.565  52.585  0.00  0.00    -0.251 OA
ATOM     10  C   UNL d   1      53.177  30.606  53.285  0.00  0.00     0.196 A 
ATOM     11  O   UNL d   1      53.353  29.791  53.266  0.00  0.00    -0.286 OA
ENDROOT
BRANCH   6  12
ATOM     12  C   UNL d   1      53.989  32.448  54.102  0.00  0.00     0.002 A 
ATOM     13  C   UNL d   1      53.842  32.620  54.899  0.00  0.00     0.002 A 
ATOM     14  C   UNL d   1      54.341  33.142  55.308  0.00  0.00     0.024 A 
ATOM     15  C   UNL d   1      54.985  33.487  54.917  0.00  0.00     0.127 A 
ATOM     16  C   UNL d   1      55.128  33.314  54.126  0.00  0.00     0.024 A 
ATOM     17  C   UNL d   1      54.629  32.793  53.717  0.00  0.00     0.002 A 
BRANCH  15  18
ATOM     18  N   UNL d   1      55.490  34.012  55.323  0.00  0.00    -0.114 N 
ATOM     19  O   UNL d   1      55.537  33.981  56.145  0.00  0.00    -0.532 OA
ATOM     20  O   UNL d   1      55.938  34.559  54.903  0.00  0.00    -0.532 OA
ENDBRANCH  15  18
ENDBRANCH   6  12
TORSDOF 2
ENDMDL
