MODEL 1
REMARK VINA RESULT:      63.3      0.000      0.000
REMARK  4 active torsions:
REMARK  status: ('A' for Active; 'I' for Inactive)
REMARK    1  A    between atoms: C_11  and  N_4 
REMARK    2  A    between atoms: C_18  and  C_7 
REMARK    3  A    between atoms: C_19  and  C_11 
REMARK    4  A    between atoms: O_20  and  C_16 
ROOT
ATOM      1  C   UNL d   1     -51.575  25.352  33.307  0.00  0.00     0.137 A 
ATOM      2  C   UNL d   1     -51.430  24.543  33.308  0.00  0.00     0.192 A 
ATOM      3  C   UNL d   1     -50.945  25.884  33.307  0.00  0.00     0.272 A 
ATOM      4  N   UNL d   1     -50.173  25.610  33.307  0.00  0.00    -0.258 N 
ATOM      5  N   UNL d   1     -50.659  24.259  33.308  0.00  0.00    -0.204 NA
ATOM      6  C   UNL d   1     -52.352  25.634  33.307  0.00  0.00     0.205 A 
ATOM      7  C   UNL d   1     -50.022  24.793  33.307  0.00  0.00     0.152 A 
ATOM      8  C   UNL d   1     -52.972  25.101  33.307  0.00  0.00     0.062 A 
ATOM      9  O   UNL d   1     -52.057  24.008  33.308  0.00  0.00    -0.289 OA
ATOM     10  C   UNL d   1     -52.831  24.290  33.308  0.00  0.00     0.107 A 
ATOM     11  C   UNL d   1     -53.468  23.758  33.308  0.00  0.00     0.049 A 
ATOM     12  C   UNL d   1     -53.751  25.383  33.307  0.00  0.00     0.007 A 
ATOM     13  O   UNL d   1     -51.095  26.693  33.306  0.00  0.00    -0.266 OA
ATOM     14  O   UNL d   1     -52.494  26.445  33.307  0.00  0.00    -0.286 OA
ATOM     15  C   UNL d   1     -54.238  24.041  33.308  0.00  0.00     0.096 A 
ATOM     16  C   UNL d   1     -54.380  24.856  33.308  0.00  0.00     0.024 A 
ENDROOT
BRANCH   4  17
ATOM     17  C   UNL d   1     -49.537  26.150  33.306  0.00  0.00     0.084 C 
BRANCH  17  18
ATOM     18  C   UNL d   1     -49.545  26.794  33.819  0.00  0.00     0.018 A 
ATOM     19  C   UNL d   1     -50.245  27.045  34.184  0.00  0.00     0.002 A 
ATOM     20  C   UNL d   1     -50.245  27.692  34.697  0.00  0.00     0.000 A 
ATOM     21  C   UNL d   1     -49.526  28.099  34.848  0.00  0.00     0.000 A 
ATOM     22  C   UNL d   1     -48.823  27.848  34.483  0.00  0.00     0.000 A 
ATOM     23  C   UNL d   1     -48.836  27.198  33.971  0.00  0.00     0.002 A 
ENDBRANCH  17  18
ENDBRANCH   4  17
BRANCH   7  24
ATOM     24  C   UNL d   1     -49.249  24.518  33.307  0.00  0.00     0.038 C 
ATOM     25  C   UNL d   1     -49.087  23.746  33.542  0.00  0.00     0.003 C 
ENDBRANCH   7  24
BRANCH  15  26
ATOM     26  O   UNL d   1     -54.869  23.518  33.309  0.00  0.00    -0.328 OA
ATOM     27  C   UNL d   1     -55.126  23.189  34.017  0.00  0.00     0.181 C 
ENDBRANCH  15  26
TORSDOF 4
ENDMDL
MODEL 2
REMARK VINA RESULT:      65.9      1.394      4.254
REMARK  4 active torsions:
REMARK  status: ('A' for Active; 'I' for Inactive)
REMARK    1  A    between atoms: C_11  and  N_4 
REMARK    2  A    between atoms: C_18  and  C_7 
REMARK    3  A    between atoms: C_19  and  C_11 
REMARK    4  A    between atoms: O_20  and  C_16 
ROOT
ATOM      1  C   UNL d   1     -50.903  26.401  33.311  0.00  0.00     0.137 A 
ATOM      2  C   UNL d   1     -50.081  26.396  33.308  0.00  0.00     0.192 A 
ATOM      3  C   UNL d   1     -51.319  25.690  33.312  0.00  0.00     0.272 A 
ATOM      4  N   UNL d   1     -50.917  24.976  33.310  0.00  0.00    -0.258 N 
ATOM      5  N   UNL d   1     -49.669  25.685  33.307  0.00  0.00    -0.204 NA
ATOM      6  C   UNL d   1     -51.314  27.119  33.313  0.00  0.00     0.205 A 
ATOM      7  C   UNL d   1     -50.086  24.966  33.308  0.00  0.00     0.152 A 
ATOM      8  C   UNL d   1     -50.894  27.821  33.312  0.00  0.00     0.062 A 
ATOM      9  O   UNL d   1     -49.661  27.106  33.307  0.00  0.00    -0.289 OA
ATOM     10  C   UNL d   1     -50.071  27.820  33.309  0.00  0.00     0.107 A 
ATOM     11  C   UNL d   1     -49.656  28.539  33.308  0.00  0.00     0.049 A 
ATOM     12  C   UNL d   1     -51.305  28.540  33.314  0.00  0.00     0.007 A 
ATOM     13  O   UNL d   1     -52.141  25.699  33.315  0.00  0.00    -0.266 OA
ATOM     14  O   UNL d   1     -52.137  27.119  33.316  0.00  0.00    -0.286 OA
ATOM     15  C   UNL d   1     -50.067  29.249  33.310  0.00  0.00     0.096 A 
ATOM     16  C   UNL d   1     -50.893  29.250  33.313  0.00  0.00     0.024 A 
ENDROOT
BRANCH   4  17
ATOM     17  C   UNL d   1     -51.340  24.257  33.311  0.00  0.00     0.084 C 
BRANCH  17  18
ATOM     18  C   UNL d   1     -52.006  24.174  33.788  0.00  0.00     0.018 A 
ATOM     19  C   UNL d   1     -52.016  24.453  34.567  0.00  0.00     0.002 A 
ATOM     20  C   UNL d   1     -52.688  24.366  35.039  0.00  0.00     0.000 A 
ATOM     21  C   UNL d   1     -53.368  23.989  34.723  0.00  0.00     0.000 A 
ATOM     22  C   UNL d   1     -53.359  23.707  33.941  0.00  0.00     0.000 A 
ATOM     23  C   UNL d   1     -52.680  23.800  33.478  0.00  0.00     0.002 A 
ENDBRANCH  17  18
ENDBRANCH   4  17
BRANCH   7  24
ATOM     24  C   UNL d   1     -49.683  24.252  33.306  0.00  0.00     0.038 C 
ATOM     25  C   UNL d   1     -48.983  24.174  33.731  0.00  0.00     0.003 C 
ENDBRANCH   7  24
BRANCH  15  26
ATOM     26  O   UNL d   1     -49.659  29.960  33.309  0.00  0.00    -0.328 OA
ATOM     27  C   UNL d   1     -49.486  30.332  34.021  0.00  0.00     0.181 C 
ENDBRANCH  15  26
TORSDOF 4
ENDMDL
