MODEL 1
REMARK VINA RESULT:      67.8      0.000      0.000
REMARK  5 active torsions:
REMARK  status: ('A' for Active; 'I' for Inactive)
REMARK    1  A    between atoms: C_10  and  N_3 
REMARK    2  A    between atoms: C_14  and  N_6 
REMARK    3  A    between atoms: C_9  and  C_7 
REMARK    4  A    between atoms: O_23  and  C_20 
REMARK    5  A    between atoms: C_26  and  O_23 
ROOT
ATOM      1  C   UNL d   1      13.978  14.233  -3.486  0.00  0.00     0.105 A 
ATOM      2  C   UNL d   1      14.388  14.779  -2.997  0.00  0.00     0.186 A 
ATOM      3  N   UNL d   1      14.078  15.402  -4.129  0.00  0.00    -0.240 N 
ATOM      4  C   UNL d   1      14.436  15.471  -3.402  0.00  0.00     0.292 A 
ATOM      5  C   UNL d   1      13.788  14.616  -4.182  0.00  0.00     0.271 A 
ATOM      6  N   UNL d   1      14.291  13.598  -2.339  0.00  0.00    -0.212 N 
ATOM      7  C   UNL d   1      13.936  13.533  -3.062  0.00  0.00     0.100 A 
ATOM      8  O   UNL d   1      14.585  14.398  -2.287  0.00  0.00    -0.223 OA
ATOM      9  O   UNL d   1      13.379  14.267  -4.813  0.00  0.00    -0.266 OA
ATOM     10  O   UNL d   1      14.799  16.158  -3.119  0.00  0.00    -0.264 OA
ENDROOT
BRANCH   3  11
ATOM     11  C   UNL d   1      14.020  16.000  -4.695  0.00  0.00     0.070 A 
ATOM     12  C   UNL d   1      14.555  16.622  -4.677  0.00  0.00     0.020 A 
ATOM     13  C   UNL d   1      14.510  17.231  -5.240  0.00  0.00     0.026 A 
ATOM     14  C   UNL d   1      13.914  17.201  -5.821  0.00  0.00     0.100 A 
ATOM     15  C   UNL d   1      13.385  16.584  -5.836  0.00  0.00     0.026 A 
ATOM     16  C   UNL d   1      13.448  15.993  -5.271  0.00  0.00     0.020 A 
BRANCH  14  17
ATOM     17  O   UNL d   1      13.850  17.794  -6.388  0.00  0.00    -0.305 OA
BRANCH  17  18
ATOM     18  C   UNL d   1      13.919  18.583  -6.153  0.00  0.00     0.123 C 
ATOM     19  C   UNL d   1      13.305  19.109  -6.273  0.00  0.00     0.029 C 
ENDBRANCH  17  18
ENDBRANCH  14  17
ENDBRANCH   3  11
BRANCH   7  20
ATOM     20  C   UNL d   1      13.574  12.847  -3.345  0.00  0.00     0.048 A 
ATOM     21  S   UNL d   1      12.930  12.413  -2.990  0.00  0.00    -0.085 SA
ATOM     22  C   UNL d   1      12.777  11.782  -3.481  0.00  0.00     0.035 A 
ATOM     23  C   UNL d   1      13.269  11.779  -4.116  0.00  0.00     0.007 A 
ATOM     24  C   UNL d   1      13.784  12.455  -4.040  0.00  0.00     0.009 A 
ENDBRANCH   7  20
BRANCH   6  25
ATOM     25  C   UNL d   1      14.347  12.994  -1.773  0.00  0.00     0.088 A 
ATOM     26  C   UNL d   1      14.897  12.390  -1.857  0.00  0.00     0.020 A 
ATOM     27  C   UNL d   1      14.957  11.779  -1.288  0.00  0.00     0.002 A 
ATOM     28  C   UNL d   1      14.450  11.792  -0.632  0.00  0.00     0.000 A 
ATOM     29  C   UNL d   1      13.895  12.404  -0.549  0.00  0.00     0.002 A 
ATOM     30  C   UNL d   1      13.851  13.001  -1.125  0.00  0.00     0.020 A 
ENDBRANCH   6  25
TORSDOF 5
ENDMDL
