MODEL 1
REMARK VINA RESULT:      56.2      0.000      0.000
REMARK  7 active torsions:
REMARK  status: ('A' for Active; 'I' for Inactive)
REMARK    1  A    between atoms: C_12  and  N_3 
REMARK    2  A    between atoms: C_10  and  C_4 
REMARK    3  A    between atoms: C_15  and  C_12 
REMARK    4  A    between atoms: N_14  and  C_21 
REMARK    5  A    between atoms: C_22  and  N_14 
REMARK    6  A    between atoms: C_21  and  C_15 
REMARK    7  A    between atoms: C_20  and  C_22 
ROOT
ATOM      1  C   UNL d   1      44.028 -15.675  36.854  0.00  0.00     0.137 A 
ATOM      2  N   UNL d   1      43.782 -14.886  36.718  0.00  0.00    -0.259 N 
ATOM      3  N   UNL d   1      44.805 -15.829  37.104  0.00  0.00    -0.287 N 
ATOM      4  C   UNL d   1      43.496 -16.299  36.739  0.00  0.00     0.054 A 
ATOM      5  C   UNL d   1      43.005 -14.721  36.467  0.00  0.00     0.266 A 
ATOM      6  C   UNL d   1      45.100 -14.421  37.086  0.00  0.00     0.084 A 
ATOM      7  C   UNL d   1      45.336 -15.205  37.218  0.00  0.00     0.082 A 
ATOM      8  C   UNL d   1      42.714 -16.143  36.487  0.00  0.00     0.009 A 
ATOM      9  C   UNL d   1      42.468 -15.354  36.351  0.00  0.00     0.061 A 
ATOM     10  O   UNL d   1      42.763 -13.943  36.333  0.00  0.00    -0.267 OA
ATOM     11  C   UNL d   1      45.628 -13.800  37.200  0.00  0.00     0.019 A 
ATOM     12  C   UNL d   1      42.187 -16.764  36.374  0.00  0.00     0.000 C 
ATOM     13  C   UNL d   1      46.114 -15.358  37.468  0.00  0.00     0.019 A 
ATOM     14  C   UNL d   1      46.397 -13.955  37.447  0.00  0.00     0.002 A 
ATOM     15  C   UNL d   1      46.640 -14.736  37.582  0.00  0.00     0.002 A 
ENDROOT
BRANCH   3  16
ATOM     16  C   UNL d   1      45.039 -16.607  37.235  0.00  0.00     0.126 C 
BRANCH  16  17
ATOM     17  C   UNL d   1      44.954 -16.935  37.986  0.00  0.00     0.232 C 
ATOM     18  O   UNL d   1      44.245 -16.859  38.401  0.00  0.00    -0.283 OA
BRANCH  17  19
ATOM     19  C   UNL d   1      45.581 -17.346  38.332  0.00  0.00     0.142 C 
BRANCH  19  20
ATOM     20  N   UNL d   1      45.504 -17.649  39.097  0.00  0.00    -0.239 NA
BRANCH  20  21
ATOM     21  C   UNL d   1      46.006 -18.246  39.357  0.00  0.00     0.099 C 
BRANCH  21  22
ATOM     22  C   UNL d   1      46.176 -18.321  40.159  0.00  0.00     0.019 A 
ATOM     23  C   UNL d   1      46.478 -19.027  40.460  0.00  0.00     0.002 A 
ATOM     24  C   UNL d   1      46.646 -19.098  41.261  0.00  0.00     0.000 A 
ATOM     25  C   UNL d   1      46.511 -18.456  41.770  0.00  0.00     0.000 A 
ATOM     26  C   UNL d   1      46.208 -17.751  41.465  0.00  0.00     0.000 A 
ATOM     27  C   UNL d   1      46.042 -17.684  40.665  0.00  0.00     0.002 A 
ENDBRANCH  21  22
ENDBRANCH  20  21
ENDBRANCH  19  20
ENDBRANCH  17  19
ENDBRANCH  16  17
ENDBRANCH   3  16
BRANCH   4  28
ATOM     28  C   UNL d   1      43.738 -17.075  36.873  0.00  0.00     0.125 C 
ATOM     29  N   UNL d   1      43.442 -17.688  36.396  0.00  0.00    -0.146 N 
ENDBRANCH   4  28
TORSDOF 7
ENDMDL
MODEL 2
REMARK VINA RESULT:      56.9      2.580      6.322
REMARK  7 active torsions:
REMARK  status: ('A' for Active; 'I' for Inactive)
REMARK    1  A    between atoms: C_12  and  N_3 
REMARK    2  A    between atoms: C_10  and  C_4 
REMARK    3  A    between atoms: C_15  and  C_12 
REMARK    4  A    between atoms: N_14  and  C_21 
REMARK    5  A    between atoms: C_22  and  N_14 
REMARK    6  A    between atoms: C_21  and  C_15 
REMARK    7  A    between atoms: C_20  and  C_22 
ROOT
ATOM      1  C   UNL d   1      46.204 -18.453  43.009  0.00  0.00     0.137 A 
ATOM      2  N   UNL d   1      46.143 -18.732  43.795  0.00  0.00    -0.259 N 
ATOM      3  N   UNL d   1      46.110 -17.644  42.848  0.00  0.00    -0.287 N 
ATOM      4  C   UNL d   1      46.359 -18.985  42.393  0.00  0.00     0.054 A 
ATOM      5  C   UNL d   1      46.235 -19.542  43.968  0.00  0.00     0.266 A 
ATOM      6  C   UNL d   1      45.894 -17.381  44.245  0.00  0.00     0.084 A 
ATOM      7  C   UNL d   1      45.956 -17.113  43.463  0.00  0.00     0.082 A 
ATOM      8  C   UNL d   1      46.453 -19.800  42.556  0.00  0.00     0.009 A 
ATOM      9  C   UNL d   1      46.392 -20.078  43.344  0.00  0.00     0.061 A 
ATOM     10  O   UNL d   1      46.175 -19.816  44.744  0.00  0.00    -0.267 OA
ATOM     11  C   UNL d   1      45.740 -16.853  44.858  0.00  0.00     0.019 A 
ATOM     12  C   UNL d   1      46.607 -20.327  41.943  0.00  0.00     0.000 C 
ATOM     13  C   UNL d   1      45.862 -16.303  43.303  0.00  0.00     0.019 A 
ATOM     14  C   UNL d   1      45.647 -16.052  44.696  0.00  0.00     0.002 A 
ATOM     15  C   UNL d   1      45.708 -15.776  43.917  0.00  0.00     0.002 A 
ENDROOT
BRANCH   3  16
ATOM     16  C   UNL d   1      46.172 -17.378  42.071  0.00  0.00     0.126 C 
BRANCH  16  17
ATOM     17  C   UNL d   1      45.579 -17.561  41.530  0.00  0.00     0.232 C 
ATOM     18  O   UNL d   1      44.817 -17.746  41.789  0.00  0.00    -0.283 OA
BRANCH  17  19
ATOM     19  C   UNL d   1      45.742 -17.562  40.721  0.00  0.00     0.142 C 
BRANCH  19  20
ATOM     20  N   UNL d   1      45.334 -17.048  40.218  0.00  0.00    -0.239 NA
BRANCH  20  21
ATOM     21  C   UNL d   1      44.924 -17.344  39.570  0.00  0.00     0.099 C 
BRANCH  21  22
ATOM     22  C   UNL d   1      44.794 -16.866  38.912  0.00  0.00     0.019 A 
ATOM     23  C   UNL d   1      44.186 -16.308  38.913  0.00  0.00     0.002 A 
ATOM     24  C   UNL d   1      44.059 -15.832  38.255  0.00  0.00     0.000 A 
ATOM     25  C   UNL d   1      44.544 -15.914  37.587  0.00  0.00     0.000 A 
ATOM     26  C   UNL d   1      45.151 -16.473  37.590  0.00  0.00     0.000 A 
ATOM     27  C   UNL d   1      45.275 -16.946  38.247  0.00  0.00     0.002 A 
ENDBRANCH  21  22
ENDBRANCH  20  21
ENDBRANCH  19  20
ENDBRANCH  17  19
ENDBRANCH  16  17
ENDBRANCH   3  16
BRANCH   4  28
ATOM     28  C   UNL d   1      46.419 -18.711  41.619  0.00  0.00     0.125 C 
ATOM     29  N   UNL d   1      46.526 -19.251  40.997  0.00  0.00    -0.146 N 
ENDBRANCH   4  28
TORSDOF 7
ENDMDL
MODEL 3
REMARK VINA RESULT:      59.1      0.918      2.594
REMARK  7 active torsions:
REMARK  status: ('A' for Active; 'I' for Inactive)
REMARK    1  A    between atoms: C_12  and  N_3 
REMARK    2  A    between atoms: C_10  and  C_4 
REMARK    3  A    between atoms: C_15  and  C_12 
REMARK    4  A    between atoms: N_14  and  C_21 
REMARK    5  A    between atoms: C_22  and  N_14 
REMARK    6  A    between atoms: C_21  and  C_15 
REMARK    7  A    between atoms: C_20  and  C_22 
ROOT
ATOM      1  C   UNL d   1      44.627 -14.955  37.115  0.00  0.00     0.137 A 
ATOM      2  N   UNL d   1      44.172 -14.273  37.286  0.00  0.00    -0.259 N 
ATOM      3  N   UNL d   1      44.252 -15.646  36.851  0.00  0.00    -0.287 N 
ATOM      4  C   UNL d   1      45.449 -14.937  37.211  0.00  0.00     0.054 A 
ATOM      5  C   UNL d   1      44.538 -13.573  37.552  0.00  0.00     0.266 A 
ATOM      6  C   UNL d   1      42.973 -14.993  36.923  0.00  0.00     0.084 A 
ATOM      7  C   UNL d   1      43.430 -15.664  36.756  0.00  0.00     0.082 A 
ATOM      8  C   UNL d   1      45.826 -14.239  37.477  0.00  0.00     0.009 A 
ATOM      9  C   UNL d   1      45.370 -13.557  37.648  0.00  0.00     0.061 A 
ATOM     10  O   UNL d   1      44.089 -12.902  37.721  0.00  0.00    -0.267 OA
ATOM     11  C   UNL d   1      42.155 -15.010  36.829  0.00  0.00     0.019 A 
ATOM     12  C   UNL d   1      46.643 -14.223  37.571  0.00  0.00     0.000 C 
ATOM     13  C   UNL d   1      43.055 -16.356  36.491  0.00  0.00     0.019 A 
ATOM     14  C   UNL d   1      41.786 -15.697  36.566  0.00  0.00     0.002 A 
ATOM     15  C   UNL d   1      42.237 -16.372  36.397  0.00  0.00     0.002 A 
ENDROOT
BRANCH   3  16
ATOM     16  C   UNL d   1      44.707 -16.313  36.685  0.00  0.00     0.126 C 
BRANCH  16  17
ATOM     17  C   UNL d   1      44.711 -16.944  37.214  0.00  0.00     0.232 C 
ATOM     18  O   UNL d   1      44.560 -17.713  36.953  0.00  0.00    -0.283 OA
BRANCH  17  19
ATOM     19  C   UNL d   1      44.866 -16.813  38.014  0.00  0.00     0.142 C 
BRANCH  19  20
ATOM     20  N   UNL d   1      45.049 -17.449  38.508  0.00  0.00    -0.239 NA
BRANCH  20  21
ATOM     21  C   UNL d   1      44.828 -17.433  39.300  0.00  0.00     0.099 C 
BRANCH  21  22
ATOM     22  C   UNL d   1      45.300 -17.800  39.867  0.00  0.00     0.019 A 
ATOM     23  C   UNL d   1      44.996 -17.983  40.612  0.00  0.00     0.002 A 
ATOM     24  C   UNL d   1      45.470 -18.349  41.174  0.00  0.00     0.000 A 
ATOM     25  C   UNL d   1      46.258 -18.537  40.992  0.00  0.00     0.000 A 
ATOM     26  C   UNL d   1      46.558 -18.353  40.246  0.00  0.00     0.000 A 
ATOM     27  C   UNL d   1      46.083 -17.987  39.687  0.00  0.00     0.002 A 
ENDBRANCH  21  22
ENDBRANCH  20  21
ENDBRANCH  19  20
ENDBRANCH  17  19
ENDBRANCH  16  17
ENDBRANCH   3  16
BRANCH   4  28
ATOM     28  C   UNL d   1      45.897 -15.608  37.042  0.00  0.00     0.125 C 
ATOM     29  N   UNL d   1      46.647 -15.526  36.693  0.00  0.00    -0.146 N 
ENDBRANCH   4  28
TORSDOF 7
ENDMDL
