MODEL 1
REMARK VINA RESULT:      -9.9      0.000      0.000
REMARK  5 active torsions:
REMARK  status: ('A' for Active; 'I' for Inactive)
REMARK    1  A    between atoms: O_5  and  C_1 
REMARK    2  A    between atoms: C_10  and  C_2 
REMARK    3  A    between atoms: C_3  and  O_5 
REMARK    4  A    between atoms: C_6  and  C_3 
REMARK    5  A    between atoms: N_11  and  C_10 
ROOT
ATOM      1  C   UNL d   1      53.248  33.005  53.936  0.00  0.00     0.122 A 
ATOM      2  C   UNL d   1      52.818  33.485  53.422  0.00  0.00     0.043 A 
ATOM      3  C   UNL d   1      53.731  33.346  54.511  0.00  0.00     0.105 A 
ATOM      4  C   UNL d   1      53.783  34.166  54.572  0.00  0.00     0.030 A 
ATOM      5  C   UNL d   1      53.352  34.637  54.057  0.00  0.00     0.059 A 
ATOM      6  C   UNL d   1      52.870  34.305  53.483  0.00  0.00     0.015 A 
ATOM      7  N   UNL d   1      54.156  32.867  55.019  0.00  0.00    -0.242 NA
ATOM      8 CL   UNL d   1      53.421  35.465  54.137  0.00  0.00    -0.082 Cl
ATOM      9  C   UNL d   1      54.260  34.499  55.140  0.00  0.00     0.004 A 
ATOM     10  C   UNL d   1      54.639  33.208  55.594  0.00  0.00     0.099 A 
ATOM     11  C   UNL d   1      54.691  34.028  55.654  0.00  0.00     0.021 A 
ENDROOT
BRANCH   1  12
ATOM     12  O   UNL d   1      53.208  32.260  53.889  0.00  0.00    -0.271 OA
BRANCH  12  13
ATOM     13  C   UNL d   1      53.633  31.514  53.452  0.00  0.00     0.302 C 
ATOM     14  O   UNL d   1      54.395  31.771  52.850  0.00  0.00    -0.259 OA
BRANCH  13  15
ATOM     15  C   UNL d   1      53.376  30.741  53.575  0.00  0.00     0.091 A 
ATOM     16  C   UNL d   1      52.990  30.331  52.964  0.00  0.00     0.145 A 
ATOM     17  F   UNL d   1      52.828  30.665  52.172  0.00  0.00    -0.204 F 
ATOM     18  C   UNL d   1      52.731  29.548  53.093  0.00  0.00     0.030 A 
ATOM     19  C   UNL d   1      52.857  29.176  53.830  0.00  0.00     0.002 A 
ATOM     20  C   UNL d   1      53.243  29.589  54.437  0.00  0.00     0.000 A 
ATOM     21  C   UNL d   1      53.502  30.371  54.308  0.00  0.00     0.008 A 
ENDBRANCH  13  15
ENDBRANCH  12  13
ENDBRANCH   1  12
BRANCH   2  22
ATOM     22  C   UNL d   1      52.245  33.297  52.740  0.00  0.00     0.082 C 
BRANCH  22  23
ATOM     23  N   UNL d   1      51.484  33.602  52.756  0.00  0.00    -0.299 N 
ATOM     24  C   UNL d   1      51.259  34.160  52.203  0.00  0.00     0.107 A 
ATOM     25  C   UNL d   1      50.495  34.477  52.207  0.00  0.00     0.142 A 
ATOM     26  O   UNL d   1      49.965  34.224  52.774  0.00  0.00    -0.300 OA
ATOM     27  C   UNL d   1      50.190  33.658  53.337  0.00  0.00     0.142 A 
ATOM     28  C   UNL d   1      50.951  33.355  53.319  0.00  0.00     0.107 A 
ENDBRANCH  22  23
ENDBRANCH   2  22
TORSDOF 5
ENDMDL
MODEL 2
REMARK VINA RESULT:      -9.5      1.135      2.997
REMARK  5 active torsions:
REMARK  status: ('A' for Active; 'I' for Inactive)
REMARK    1  A    between atoms: O_5  and  C_1 
REMARK    2  A    between atoms: C_10  and  C_2 
REMARK    3  A    between atoms: C_3  and  O_5 
REMARK    4  A    between atoms: C_6  and  C_3 
REMARK    5  A    between atoms: N_11  and  C_10 
ROOT
ATOM      1  C   UNL d   1      52.683  32.727  53.461  0.00  0.00     0.122 A 
ATOM      2  C   UNL d   1      53.382  33.158  53.533  0.00  0.00     0.043 A 
ATOM      3  C   UNL d   1      51.980  33.113  53.266  0.00  0.00     0.105 A 
ATOM      4  C   UNL d   1      51.977  33.928  53.143  0.00  0.00     0.030 A 
ATOM      5  C   UNL d   1      52.677  34.349  53.217  0.00  0.00     0.059 A 
ATOM      6  C   UNL d   1      53.380  33.973  53.410  0.00  0.00     0.015 A 
ATOM      7  N   UNL d   1      51.289  32.682  53.195  0.00  0.00    -0.242 NA
ATOM      8 CL   UNL d   1      52.650  35.174  53.088  0.00  0.00    -0.082 Cl
ATOM      9  C   UNL d   1      51.283  34.304  52.952  0.00  0.00     0.004 A 
ATOM     10  C   UNL d   1      50.586  33.068  53.000  0.00  0.00     0.099 A 
ATOM     11  C   UNL d   1      50.583  33.883  52.878  0.00  0.00     0.021 A 
ENDROOT
BRANCH   1  12
ATOM     12  O   UNL d   1      52.675  31.988  53.570  0.00  0.00    -0.271 OA
BRANCH  12  13
ATOM     13  C   UNL d   1      52.843  31.162  53.103  0.00  0.00     0.302 C 
ATOM     14  O   UNL d   1      52.900  31.258  52.105  0.00  0.00    -0.259 OA
BRANCH  13  15
ATOM     15  C   UNL d   1      52.929  30.450  53.509  0.00  0.00     0.091 A 
ATOM     16  C   UNL d   1      53.644  30.028  53.458  0.00  0.00     0.145 A 
ATOM     17  F   UNL d   1      54.337  30.288  52.990  0.00  0.00    -0.204 F 
ATOM     18  C   UNL d   1      53.728  29.308  53.870  0.00  0.00     0.030 A 
ATOM     19  C   UNL d   1      53.100  29.010  54.334  0.00  0.00     0.002 A 
ATOM     20  C   UNL d   1      52.389  29.434  54.383  0.00  0.00     0.000 A 
ATOM     21  C   UNL d   1      52.306  30.154  53.970  0.00  0.00     0.008 A 
ENDBRANCH  13  15
ENDBRANCH  12  13
ENDBRANCH   1  12
BRANCH   2  22
ATOM     22  C   UNL d   1      54.236  32.915  53.736  0.00  0.00     0.082 C 
BRANCH  22  23
ATOM     23  N   UNL d   1      54.599  33.233  54.399  0.00  0.00    -0.299 N 
ATOM     24  C   UNL d   1      55.253  33.715  54.311  0.00  0.00     0.107 A 
ATOM     25  C   UNL d   1      55.629  34.043  54.970  0.00  0.00     0.142 A 
ATOM     26  O   UNL d   1      55.339  33.878  55.714  0.00  0.00    -0.300 OA
ATOM     27  C   UNL d   1      54.675  33.389  55.807  0.00  0.00     0.142 A 
ATOM     28  C   UNL d   1      54.314  33.072  55.144  0.00  0.00     0.107 A 
ENDBRANCH  22  23
ENDBRANCH   2  22
TORSDOF 5
ENDMDL
MODEL 3
REMARK VINA RESULT:      -9.2      1.587      3.586
REMARK  5 active torsions:
REMARK  status: ('A' for Active; 'I' for Inactive)
REMARK    1  A    between atoms: O_5  and  C_1 
REMARK    2  A    between atoms: C_10  and  C_2 
REMARK    3  A    between atoms: C_3  and  O_5 
REMARK    4  A    between atoms: C_6  and  C_3 
REMARK    5  A    between atoms: N_11  and  C_10 
ROOT
ATOM      1  C   UNL d   1      52.782  33.377  53.619  0.00  0.00     0.122 A 
ATOM      2  C   UNL d   1      53.104  32.666  53.353  0.00  0.00     0.043 A 
ATOM      3  C   UNL d   1      53.168  33.810  54.206  0.00  0.00     0.105 A 
ATOM      4  C   UNL d   1      53.874  33.532  54.526  0.00  0.00     0.030 A 
ATOM      5  C   UNL d   1      54.188  32.824  54.256  0.00  0.00     0.059 A 
ATOM      6  C   UNL d   1      53.810  32.388  53.673  0.00  0.00     0.015 A 
ATOM      7  N   UNL d   1      52.845  34.514  54.467  0.00  0.00    -0.242 NA
ATOM      8 CL   UNL d   1      54.905  32.562  54.595  0.00  0.00    -0.082 Cl
ATOM      9  C   UNL d   1      54.251  33.961  55.104  0.00  0.00     0.004 A 
ATOM     10  C   UNL d   1      53.231  34.947  55.054  0.00  0.00     0.099 A 
ATOM     11  C   UNL d   1      53.938  34.669  55.374  0.00  0.00     0.021 A 
ENDROOT
BRANCH   1  12
ATOM     12  O   UNL d   1      52.142  33.638  53.336  0.00  0.00    -0.271 OA
BRANCH  12  13
ATOM     13  C   UNL d   1      51.814  34.227  52.647  0.00  0.00     0.302 C 
ATOM     14  O   UNL d   1      52.536  34.703  52.136  0.00  0.00    -0.259 OA
BRANCH  13  15
ATOM     15  C   UNL d   1      51.007  34.316  52.507  0.00  0.00     0.091 A 
ATOM     16  C   UNL d   1      50.713  34.269  51.731  0.00  0.00     0.145 A 
ATOM     17  F   UNL d   1      51.210  34.126  51.024  0.00  0.00    -0.204 F 
ATOM     18  C   UNL d   1      49.896  34.360  51.593  0.00  0.00     0.030 A 
ATOM     19  C   UNL d   1      49.372  34.498  52.229  0.00  0.00     0.002 A 
ATOM     20  C   UNL d   1      49.669  34.544  53.002  0.00  0.00     0.000 A 
ATOM     21  C   UNL d   1      50.486  34.453  53.139  0.00  0.00     0.008 A 
ENDBRANCH  13  15
ENDBRANCH  12  13
ENDBRANCH   1  12
BRANCH   2  22
ATOM     22  C   UNL d   1      52.830  32.063  52.728  0.00  0.00     0.082 C 
BRANCH  22  23
ATOM     23  N   UNL d   1      52.672  31.291  52.955  0.00  0.00    -0.299 N 
ATOM     24  C   UNL d   1      53.216  30.702  52.795  0.00  0.00     0.107 A 
ATOM     25  C   UNL d   1      53.070  29.919  53.018  0.00  0.00     0.142 A 
ATOM     26  O   UNL d   1      52.372  29.740  53.401  0.00  0.00    -0.300 OA
ATOM     27  C   UNL d   1      51.818  30.335  53.565  0.00  0.00     0.142 A 
ATOM     28  C   UNL d   1      51.979  31.106  53.338  0.00  0.00     0.107 A 
ENDBRANCH  22  23
ENDBRANCH   2  22
TORSDOF 5
ENDMDL
MODEL 4
REMARK VINA RESULT:      -7.2      1.673      4.172
REMARK  5 active torsions:
REMARK  status: ('A' for Active; 'I' for Inactive)
REMARK    1  A    between atoms: O_5  and  C_1 
REMARK    2  A    between atoms: C_10  and  C_2 
REMARK    3  A    between atoms: C_3  and  O_5 
REMARK    4  A    between atoms: C_6  and  C_3 
REMARK    5  A    between atoms: N_11  and  C_10 
ROOT
ATOM      1  C   UNL d   1      52.821  32.395  53.316  0.00  0.00     0.122 A 
ATOM      2  C   UNL d   1      53.596  32.619  53.490  0.00  0.00     0.043 A 
ATOM      3  C   UNL d   1      52.633  31.596  53.231  0.00  0.00     0.105 A 
ATOM      4  C   UNL d   1      53.218  31.023  53.321  0.00  0.00     0.030 A 
ATOM      5  C   UNL d   1      53.986  31.254  53.494  0.00  0.00     0.059 A 
ATOM      6  C   UNL d   1      54.181  32.046  53.579  0.00  0.00     0.015 A 
ATOM      7  N   UNL d   1      51.864  31.378  53.059  0.00  0.00    -0.242 NA
ATOM      8 CL   UNL d   1      54.562  30.655  53.580  0.00  0.00    -0.082 Cl
ATOM      9  C   UNL d   1      53.028  30.237  53.237  0.00  0.00     0.004 A 
ATOM     10  C   UNL d   1      51.676  30.580  52.974  0.00  0.00     0.099 A 
ATOM     11  C   UNL d   1      52.261  30.006  53.064  0.00  0.00     0.021 A 
ENDROOT
BRANCH   1  12
ATOM     12  O   UNL d   1      52.283  32.907  53.233  0.00  0.00    -0.271 OA
BRANCH  12  13
ATOM     13  C   UNL d   1      51.967  33.564  52.602  0.00  0.00     0.302 C 
ATOM     14  O   UNL d   1      52.592  33.731  51.835  0.00  0.00    -0.259 OA
BRANCH  13  15
ATOM     15  C   UNL d   1      51.242  33.942  52.705  0.00  0.00     0.091 A 
ATOM     16  C   UNL d   1      50.781  34.139  52.042  0.00  0.00     0.145 A 
ATOM     17  F   UNL d   1      51.011  33.971  51.214  0.00  0.00    -0.204 F 
ATOM     18  C   UNL d   1      50.048  34.522  52.149  0.00  0.00     0.030 A 
ATOM     19  C   UNL d   1      49.775  34.708  52.917  0.00  0.00     0.002 A 
ATOM     20  C   UNL d   1      50.239  34.509  53.575  0.00  0.00     0.000 A 
ATOM     21  C   UNL d   1      50.971  34.127  53.467  0.00  0.00     0.008 A 
ENDBRANCH  13  15
ENDBRANCH  12  13
ENDBRANCH   1  12
BRANCH   2  22
ATOM     22  C   UNL d   1      53.986  33.431  53.617  0.00  0.00     0.082 C 
BRANCH  22  23
ATOM     23  N   UNL d   1      54.378  33.585  54.322  0.00  0.00    -0.299 N 
ATOM     24  C   UNL d   1      55.189  33.686  54.321  0.00  0.00     0.107 A 
ATOM     25  C   UNL d   1      55.597  33.841  55.023  0.00  0.00     0.142 A 
ATOM     26  O   UNL d   1      55.178  33.892  55.721  0.00  0.00    -0.300 OA
ATOM     27  C   UNL d   1      54.355  33.789  55.726  0.00  0.00     0.142 A 
ATOM     28  C   UNL d   1      53.966  33.636  55.021  0.00  0.00     0.107 A 
ENDBRANCH  22  23
ENDBRANCH   2  22
TORSDOF 5
ENDMDL
