MODEL 1
REMARK VINA RESULT:       1.6      0.000      0.000
REMARK  8 active torsions:
REMARK  status: ('A' for Active; 'I' for Inactive)
REMARK    1  A    between atoms: C_4  and  C_1 
REMARK    2  A    between atoms: C_10  and  C_2 
REMARK    3  A    between atoms: C_15  and  C_9 
REMARK    4  A    between atoms: O_21  and  C_10 
REMARK    5  A    between atoms: O_22  and  C_15 
REMARK    6  A    between atoms: C_24  and  C_17 
REMARK    7  A    between atoms: C_25  and  O_21 
REMARK    8  A    between atoms: C_26  and  O_22 
ROOT
ATOM      1  C   UNL d   1     -41.760-122.642 -52.165  0.00  0.00     0.090 A 
ATOM      2  C   UNL d   1     -41.511-121.857 -52.203  0.00  0.00     0.168 A 
ATOM      3  C   UNL d   1     -42.013-123.026 -52.850  0.00  0.00     0.201 A 
ATOM      4  C   UNL d   1     -42.016-122.628 -53.566  0.00  0.00     0.062 A 
ATOM      5  O   UNL d   1     -41.515-121.458 -52.925  0.00  0.00    -0.301 OA
ATOM      6  C   UNL d   1     -41.768-121.843 -53.603  0.00  0.00     0.106 A 
ATOM      7  C   UNL d   1     -42.264-123.012 -54.222  0.00  0.00     0.008 A 
ATOM      8  C   UNL d   1     -41.767-121.444 -54.297  0.00  0.00     0.067 A 
ATOM      9  C   UNL d   1     -42.020-121.829 -54.982  0.00  0.00     0.198 A 
ATOM     10  C   UNL d   1     -42.269-122.614 -54.944  0.00  0.00     0.039 A 
ATOM     11  O   UNL d   1     -42.262-123.811 -52.812  0.00  0.00    -0.286 OA
ATOM     12  O   UNL d   1     -42.022-121.408 -55.732  0.00  0.00    -0.286 OA
ENDROOT
BRANCH   1  13
ATOM     13  C   UNL d   1     -41.761-123.040 -51.471  0.00  0.00     0.105 A 
ATOM     14  O   UNL d   1     -42.380-123.019 -50.962  0.00  0.00    -0.302 OA
ATOM     15  C   UNL d   1     -42.197-123.493 -50.297  0.00  0.00     0.163 A 
ATOM     16  C   UNL d   1     -41.438-123.807 -50.418  0.00  0.00     0.032 A 
ATOM     17  C   UNL d   1     -41.164-123.521 -51.158  0.00  0.00     0.027 A 
BRANCH  15  18
ATOM     18  C   UNL d   1     -42.698-123.625 -49.627  0.00  0.00     0.323 C 
ATOM     19  O   UNL d   1     -43.485-123.817 -49.724  0.00  0.00    -0.257 OA
BRANCH  18  20
ATOM     20  O   UNL d   1     -42.386-123.558 -48.852  0.00  0.00    -0.270 OA
BRANCH  20  21
ATOM     21  C   UNL d   1     -42.859-123.304 -48.232  0.00  0.00     0.126 C 
ATOM     22  C   UNL d   1     -42.574-123.261 -47.473  0.00  0.00     0.029 C 
ENDBRANCH  20  21
ENDBRANCH  18  20
ENDBRANCH  15  18
ENDBRANCH   1  13
BRANCH   2  23
ATOM     23  C   UNL d   1     -41.252-121.450 -51.524  0.00  0.00     0.323 C 
ATOM     24  O   UNL d   1     -41.123-121.880 -50.827  0.00  0.00    -0.257 OA
BRANCH  23  25
ATOM     25  O   UNL d   1     -41.123-120.638 -51.534  0.00  0.00    -0.270 OA
BRANCH  25  26
ATOM     26  C   UNL d   1     -41.129-120.211 -50.822  0.00  0.00     0.126 C 
ATOM     27  C   UNL d   1     -41.180-119.389 -50.838  0.00  0.00     0.029 C 
ENDBRANCH  25  26
ENDBRANCH  23  25
ENDBRANCH   2  23
BRANCH  10  28
ATOM     28  C   UNL d   1     -42.527-122.998 -55.656  0.00  0.00     0.003 C 
ATOM     29  C   UNL d   1     -42.611-123.817 -55.692  0.00  0.00     0.000 C 
ENDBRANCH  10  28
TORSDOF 8
ENDMDL
