MODEL 1
REMARK VINA RESULT:      -2.2      0.000      0.000
REMARK  2 active torsions:
REMARK  status: ('A' for Active; 'I' for Inactive)
REMARK    1  A    between atoms: C_11  and  C_1 
REMARK    2  A    between atoms: C_13  and  C_11 
ROOT
ATOM      1  C   UNL d   1      46.641 -19.600  43.255  0.00  0.00     0.058 A 
ATOM      2  C   UNL d   1      46.634 -18.658  42.280  0.00  0.00    -0.008 A 
ATOM      3  C   UNL d   1      46.632 -18.989  41.926  0.00  0.00    -0.008 A 
ATOM      4  C   UNL d   1      46.634 -20.246  42.071  0.00  0.00     0.045 A 
ATOM      5  C   UNL d   1      46.637 -19.094  42.675  0.00  0.00    -0.019 A 
ATOM      6  C   UNL d   1      46.639 -18.745  43.086  0.00  0.00    -0.019 A 
ATOM      7  C   UNL d   1      46.639 -20.329  42.869  0.00  0.00     0.021 A 
ATOM      8  C   UNL d   1      46.631 -18.081  41.680  0.00  0.00    -0.001 A 
ATOM      9  C   UNL d   1      46.631 -19.682  41.555  0.00  0.00    -0.022 A 
ATOM     10  C   UNL d   1      46.633 -19.404  41.885  0.00  0.00    -0.022 A 
ENDROOT
BRANCH   1  11
ATOM     11  C   UNL d   1      46.645 -20.019  43.966  0.00  0.00     0.004 C 
BRANCH  11  12
ATOM     12  C   UNL d   1      46.235 -19.716  44.614  0.00  0.00     0.118 C 
ATOM     13  N   UNL d   1      45.618 -20.155  44.954  0.00  0.00    -0.147 N 
ENDBRANCH  11  12
ENDBRANCH   1  11
TORSDOF 2
ENDMDL
MODEL 2
REMARK VINA RESULT:      -1.8      5.664      6.627
REMARK  2 active torsions:
REMARK  status: ('A' for Active; 'I' for Inactive)
REMARK    1  A    between atoms: C_11  and  C_1 
REMARK    2  A    between atoms: C_13  and  C_11 
ROOT
ATOM      1  C   UNL d   1      45.160 -13.171  43.875  0.00  0.00     0.058 A 
ATOM      2  C   UNL d   1      45.075 -14.351  44.538  0.00  0.00    -0.008 A 
ATOM      3  C   UNL d   1      45.507 -14.291  44.749  0.00  0.00    -0.008 A 
ATOM      4  C   UNL d   1      46.289 -13.306  44.601  0.00  0.00     0.045 A 
ATOM      5  C   UNL d   1      45.147 -13.833  44.267  0.00  0.00    -0.019 A 
ATOM      6  C   UNL d   1      44.669 -13.877  44.020  0.00  0.00    -0.019 A 
ATOM      7  C   UNL d   1      45.884 -12.839  44.089  0.00  0.00     0.021 A 
ATOM      8  C   UNL d   1      45.026 -15.075  44.946  0.00  0.00    -0.001 A 
ATOM      9  C   UNL d   1      46.199 -13.978  44.955  0.00  0.00    -0.022 A 
ATOM     10  C   UNL d   1      45.817 -14.011  44.756  0.00  0.00    -0.022 A 
ENDROOT
BRANCH   1  11
ATOM     11  C   UNL d   1      45.037 -12.504  43.403  0.00  0.00     0.004 C 
BRANCH  11  12
ATOM     12  C   UNL d   1      44.514 -12.554  42.768  0.00  0.00     0.118 C 
ATOM     13  N   UNL d   1      44.635 -12.081  42.096  0.00  0.00    -0.147 N 
ENDBRANCH  11  12
ENDBRANCH   1  11
TORSDOF 2
ENDMDL
MODEL 3
REMARK VINA RESULT:      -1.8      1.307      2.597
REMARK  2 active torsions:
REMARK  status: ('A' for Active; 'I' for Inactive)
REMARK    1  A    between atoms: C_11  and  C_1 
REMARK    2  A    between atoms: C_13  and  C_11 
ROOT
ATOM      1  C   UNL d   1      46.638 -19.422  42.952  0.00  0.00     0.058 A 
ATOM      2  C   UNL d   1      46.636 -19.985  44.185  0.00  0.00    -0.008 A 
ATOM      3  C   UNL d   1      46.631 -19.556  44.408  0.00  0.00    -0.008 A 
ATOM      4  C   UNL d   1      46.623 -18.418  43.853  0.00  0.00     0.045 A 
ATOM      5  C   UNL d   1      46.637 -19.706  43.667  0.00  0.00    -0.019 A 
ATOM      6  C   UNL d   1      46.643 -20.172  43.396  0.00  0.00    -0.019 A 
ATOM      7  C   UNL d   1      46.630 -18.606  43.073  0.00  0.00     0.021 A 
ATOM      8  C   UNL d   1      46.635 -20.329  44.944  0.00  0.00    -0.001 A 
ATOM      9  C   UNL d   1      46.623 -18.778  44.527  0.00  0.00    -0.022 A 
ATOM     10  C   UNL d   1      46.628 -19.151  44.309  0.00  0.00    -0.022 A 
ENDROOT
BRANCH   1  11
ATOM     11  C   UNL d   1      46.642 -19.264  42.142  0.00  0.00     0.004 C 
BRANCH  11  12
ATOM     12  C   UNL d   1      46.627 -19.893  41.610  0.00  0.00     0.118 C 
ATOM     13  N   UNL d   1      46.513 -19.747  40.800  0.00  0.00    -0.147 N 
ENDBRANCH  11  12
ENDBRANCH   1  11
TORSDOF 2
ENDMDL
MODEL 4
REMARK VINA RESULT:       0.4      7.617      7.744
REMARK  2 active torsions:
REMARK  status: ('A' for Active; 'I' for Inactive)
REMARK    1  A    between atoms: C_11  and  C_1 
REMARK    2  A    between atoms: C_13  and  C_11 
ROOT
ATOM      1  C   UNL d   1      44.511 -15.407  36.765  0.00  0.00     0.058 A 
ATOM      2  C   UNL d   1      45.430 -14.513  37.204  0.00  0.00    -0.008 A 
ATOM      3  C   UNL d   1      45.797 -14.753  36.999  0.00  0.00    -0.008 A 
ATOM      4  C   UNL d   1      45.717 -15.825  36.330  0.00  0.00     0.045 A 
ATOM      5  C   UNL d   1      45.060 -14.921  36.996  0.00  0.00    -0.019 A 
ATOM      6  C   UNL d   1      44.635 -14.671  37.215  0.00  0.00    -0.019 A 
ATOM      7  C   UNL d   1      44.930 -15.979  36.343  0.00  0.00     0.021 A 
ATOM      8  C   UNL d   1      45.997 -13.965  37.472  0.00  0.00    -0.001 A 
ATOM      9  C   UNL d   1      46.201 -15.297  36.598  0.00  0.00    -0.022 A 
ATOM     10  C   UNL d   1      45.859 -15.098  36.772  0.00  0.00    -0.022 A 
ENDROOT
BRANCH   1  11
ATOM     11  C   UNL d   1      43.826 -15.835  36.590  0.00  0.00     0.004 C 
BRANCH  11  12
ATOM     12  C   UNL d   1      43.139 -15.427  36.387  0.00  0.00     0.118 C 
ATOM     13  N   UNL d   1      42.417 -15.835  36.337  0.00  0.00    -0.147 N 
ENDBRANCH  11  12
ENDBRANCH   1  11
TORSDOF 2
ENDMDL
