MODEL 1
REMARK VINA RESULT:      12.0      0.000      0.000
REMARK  3 active torsions:
REMARK  status: ('A' for Active; 'I' for Inactive)
REMARK    1  A    between atoms: C_2  and  C_1 
REMARK    2  A    between atoms: C_3  and  C_1 
REMARK    3  A    between atoms: C_5  and  C_2 
ROOT
ATOM      1  C   UNL d   1      58.897  49.644  50.244  0.00  0.00     0.000 C 
ENDROOT
BRANCH   1   2
ATOM      2  C   UNL d   1      58.160  49.708  50.605  0.00  0.00     0.000 C 
BRANCH   2   3
ATOM      3  C   UNL d   1      57.476  49.648  50.145  0.00  0.00     0.000 A 
ATOM      4  C   UNL d   1      57.532  49.697  49.321  0.00  0.00     0.000 A 
ATOM      5  C   UNL d   1      56.854  49.638  48.857  0.00  0.00     0.000 A 
ATOM      6  C   UNL d   1      56.113  49.529  49.216  0.00  0.00     0.000 A 
ATOM      7  C   UNL d   1      56.056  49.481  50.036  0.00  0.00     0.000 A 
ATOM      8  C   UNL d   1      56.735  49.540  50.503  0.00  0.00     0.000 A 
ENDBRANCH   2   3
ENDBRANCH   1   2
BRANCH   1   9
ATOM      9  C   UNL d   1      59.581  49.659  50.701  0.00  0.00     0.000 A 
ATOM     10  C   UNL d   1      59.523  49.683  51.524  0.00  0.00     0.002 A 
ATOM     11  C   UNL d   1      60.207  49.698  51.982  0.00  0.00     0.021 A 
ATOM     12  C   UNL d   1      60.949  49.689  51.622  0.00  0.00     0.103 A 
ATOM     13  C   UNL d   1      61.003  49.665  50.798  0.00  0.00     0.021 A 
ATOM     14  N   UNL d   1      61.633  49.704  52.087  0.00  0.00    -0.148 N 
ATOM     15  C   UNL d   1      60.319  49.649  50.337  0.00  0.00     0.002 A 
ENDBRANCH   1   9
TORSDOF 3
ENDMDL
