MODEL 1
REMARK VINA RESULT:      80.6      0.000      0.000
REMARK  5 active torsions:
REMARK  status: ('A' for Active; 'I' for Inactive)
REMARK    1  A    between atoms: N_7  and  C_1 
REMARK    2  A    between atoms: C_14  and  N_4 
REMARK    3  A    between atoms: C_6  and  N_7 
REMARK    4  A    between atoms: C_13  and  N_8 
REMARK    5  A    between atoms: C_17  and  C_13 
ROOT
ATOM      1  C   UNL d   1     -49.198  27.647  34.787  0.00  0.00     0.159 A 
ATOM      2  C   UNL d   1     -48.705  28.300  34.708  0.00  0.00     0.298 A 
ATOM      3  N   UNL d   1     -49.034  28.190  35.983  0.00  0.00    -0.238 N 
ATOM      4  N   UNL d   1     -48.604  28.636  35.450  0.00  0.00    -0.209 N 
ATOM      5  C   UNL d   1     -49.401  27.579  35.579  0.00  0.00     0.104 A 
ATOM      6  O   UNL d   1     -48.370  28.571  34.005  0.00  0.00    -0.263 OA
ATOM      7  C   UNL d   1     -49.091  28.328  36.795  0.00  0.00     0.120 C 
ATOM      8  C   UNL d   1     -49.886  27.002  35.904  0.00  0.00     0.022 C 
ENDROOT
BRANCH   1   9
ATOM      9  N   UNL d   1     -49.441  27.152  34.178  0.00  0.00    -0.216 NA
BRANCH   9  10
ATOM     10  C   UNL d   1     -50.232  27.142  33.945  0.00  0.00     0.180 A 
ATOM     11  N   UNL d   1     -50.672  26.479  33.742  0.00  0.00    -0.285 N 
ATOM     12  C   UNL d   1     -51.430  26.730  33.548  0.00  0.00     0.072 A 
ATOM     13  C   UNL d   1     -52.053  26.241  33.311  0.00  0.00     0.020 C 
ATOM     14  C   UNL d   1     -51.462  27.542  33.629  0.00  0.00     0.056 A 
ATOM     15  S   UNL d   1     -50.721  27.806  33.876  0.00  0.00    -0.048 SA
BRANCH  11  16
ATOM     16  C   UNL d   1     -50.406  25.705  33.734  0.00  0.00     0.082 C 
BRANCH  16  17
ATOM     17  C   UNL d   1     -50.934  25.076  33.596  0.00  0.00     0.018 A 
ATOM     18  C   UNL d   1     -51.745  25.132  33.433  0.00  0.00     0.002 A 
ATOM     19  C   UNL d   1     -52.202  24.438  33.306  0.00  0.00     0.000 A 
ATOM     20  C   UNL d   1     -51.834  23.689  33.344  0.00  0.00     0.000 A 
ATOM     21  C   UNL d   1     -51.013  23.632  33.509  0.00  0.00     0.000 A 
ATOM     22  C   UNL d   1     -50.561  24.324  33.635  0.00  0.00     0.002 A 
ENDBRANCH  16  17
ENDBRANCH  11  16
ENDBRANCH   9  10
ENDBRANCH   1   9
BRANCH   4  23
ATOM     23  C   UNL d   1     -48.151  29.301  35.625  0.00  0.00     0.085 A 
ATOM     24  C   UNL d   1     -48.290  29.719  36.314  0.00  0.00     0.019 A 
ATOM     25  C   UNL d   1     -47.838  30.383  36.487  0.00  0.00     0.002 A 
ATOM     26  C   UNL d   1     -47.245  30.634  35.974  0.00  0.00     0.000 A 
ATOM     27  C   UNL d   1     -47.107  30.210  35.278  0.00  0.00     0.002 A 
ATOM     28  C   UNL d   1     -47.559  29.544  35.103  0.00  0.00     0.019 A 
ENDBRANCH   4  23
TORSDOF 5
ENDMDL
