MODEL 1
REMARK VINA RESULT:     123.0      0.000      0.000
REMARK  4 active torsions:
REMARK  status: ('A' for Active; 'I' for Inactive)
REMARK    1  A    between atoms: N_10  and  C_3 
REMARK    2  A    between atoms: C_11  and  C_5 
REMARK    3  A    between atoms: C_12  and  N_10 
REMARK    4  A    between atoms: O_18  and  C_15 
ROOT
ATOM      1  N   UNL d   1      59.510  47.546  50.769  0.00  0.00    -0.184 N 
ATOM      2  C   UNL d   1      60.238  47.146  50.654  0.00  0.00     0.168 A 
ATOM      3  C   UNL d   1      59.497  48.373  50.799  0.00  0.00     0.217 A 
ATOM      4  N   UNL d   1      58.833  46.300  50.820  0.00  0.00    -0.162 NA
ATOM      5  C   UNL d   1      60.251  46.340  50.624  0.00  0.00     0.055 A 
ATOM      6  N   UNL d   1      60.928  47.587  50.573  0.00  0.00    -0.227 NA
ATOM      7  C   UNL d   1      60.187  48.794  50.718  0.00  0.00     0.066 A 
ATOM      8  C   UNL d   1      59.551  45.906  50.707  0.00  0.00     0.104 A 
ATOM      9  C   UNL d   1      60.919  48.401  50.602  0.00  0.00     0.087 A 
ATOM     10  C   UNL d   1      60.347  49.589  50.723  0.00  0.00     0.006 A 
ATOM     11  C   UNL d   1      59.573  45.089  50.676  0.00  0.00     0.023 C 
ATOM     12  C   UNL d   1      61.511  48.965  50.539  0.00  0.00     0.019 A 
ATOM     13  C   UNL d   1      61.148  49.708  50.615  0.00  0.00     0.002 A 
ENDROOT
BRANCH   3  14
ATOM     14  N   UNL d   1      58.764  48.780  50.915  0.00  0.00    -0.383 NA
BRANCH  14  15
ATOM     15  C   UNL d   1      57.979  49.089  50.930  0.00  0.00     0.135 A 
ATOM     16  C   UNL d   1      57.564  49.185  50.208  0.00  0.00     0.056 A 
ATOM     17  C   UNL d   1      56.765  49.499  50.215  0.00  0.00     0.097 A 
ATOM     18  C   UNL d   1      56.406  49.708  50.959  0.00  0.00     0.024 A 
ATOM     19  C   UNL d   1      56.833  49.607  51.678  0.00  0.00     0.005 A 
ATOM     20  C   UNL d   1      57.625  49.296  51.669  0.00  0.00     0.032 A 
BRANCH  17  21
ATOM     21  O   UNL d   1      56.345  49.597  49.501  0.00  0.00    -0.328 OA
ATOM     22  C   UNL d   1      56.342  48.985  48.917  0.00  0.00     0.181 C 
ENDBRANCH  17  21
ENDBRANCH  14  15
ENDBRANCH   3  14
BRANCH   5  23
ATOM     23  C   UNL d   1      60.964  45.948  50.512  0.00  0.00     0.004 A 
ATOM     24  C   UNL d   1      61.402  46.074  49.833  0.00  0.00     0.000 A 
ATOM     25  C   UNL d   1      62.123  45.678  49.719  0.00  0.00     0.000 A 
ATOM     26  C   UNL d   1      62.392  45.164  50.286  0.00  0.00     0.000 A 
ATOM     27  C   UNL d   1      61.953  45.035  50.972  0.00  0.00     0.000 A 
ATOM     28  C   UNL d   1      61.243  45.426  51.081  0.00  0.00     0.000 A 
ENDBRANCH   5  23
TORSDOF 4
ENDMDL
