MODEL 1
REMARK VINA RESULT:      68.1      0.000      0.000
REMARK  8 active torsions:
REMARK  status: ('A' for Active; 'I' for Inactive)
REMARK    1  A    between atoms: N_6  and  C_1 
REMARK    2  A    between atoms: N_7  and  C_2 
REMARK       I    between atoms: C_8  and  N_6 
REMARK       I    between atoms: C_9  and  N_7 
REMARK    3  A    between atoms: C_14  and  C_8 
REMARK    4  A    between atoms: C_15  and  C_9 
REMARK    5  A    between atoms: O_12  and  C_14 
REMARK    6  A    between atoms: C_16  and  O_12 
REMARK    7  A    between atoms: O_13  and  C_15 
REMARK    8  A    between atoms: C_17  and  O_13 
ROOT
ATOM      1  C   UNL d   1      61.061  47.001  50.587  0.00  0.00     0.232 A 
ATOM      2  C   UNL d   1      61.054  47.758  50.915  0.00  0.00     0.232 A 
ATOM      3  N   UNL d   1      60.591  46.522  51.082  0.00  0.00    -0.081 NA
ATOM      4  N   UNL d   1      60.597  47.748  51.586  0.00  0.00    -0.081 NA
ATOM      5  O   UNL d   1      60.311  47.008  51.700  0.00  0.00    -0.103 OA
ENDROOT
BRANCH   1   6
ATOM      6  N   UNL d   1      61.489  46.858  49.895  0.00  0.00    -0.182 NA
ATOM      7  C   UNL d   1      61.711  46.081  49.702  0.00  0.00     0.306 C 
ATOM      8  O   UNL d   1      62.139  45.920  49.014  0.00  0.00    -0.263 OA
BRANCH   7   9
ATOM      9  C   UNL d   1      61.499  45.455  50.212  0.00  0.00     0.185 C 
BRANCH   9  10
ATOM     10  O   UNL d   1      61.579  44.671  49.953  0.00  0.00    -0.300 OA
BRANCH  10  11
ATOM     11  C   UNL d   1      61.789  44.078  50.484  0.00  0.00     0.100 A 
ATOM     12  C   UNL d   1      62.430  43.585  50.301  0.00  0.00     0.025 A 
ATOM     13  C   UNL d   1      62.643  42.990  50.831  0.00  0.00     0.002 A 
ATOM     14  C   UNL d   1      62.231  42.883  51.531  0.00  0.00     0.000 A 
ATOM     15  C   UNL d   1      61.588  43.377  51.716  0.00  0.00     0.002 A 
ATOM     16  C   UNL d   1      61.368  43.980  51.185  0.00  0.00     0.025 A 
ENDBRANCH  10  11
ENDBRANCH   9  10
ENDBRANCH   7   9
ENDBRANCH   1   6
BRANCH   2  17
ATOM     17  N   UNL d   1      61.458  48.428  50.597  0.00  0.00    -0.182 NA
ATOM     18  C   UNL d   1      61.036  49.066  50.282  0.00  0.00     0.306 C 
ATOM     19  O   UNL d   1      61.439  49.706  49.979  0.00  0.00    -0.263 OA
BRANCH  18  20
ATOM     20  C   UNL d   1      60.196  49.045  50.279  0.00  0.00     0.185 C 
BRANCH  20  21
ATOM     21  O   UNL d   1      59.758  49.673  50.577  0.00  0.00    -0.300 OA
BRANCH  21  22
ATOM     22  C   UNL d   1      58.938  49.679  50.475  0.00  0.00     0.100 A 
ATOM     23  C   UNL d   1      58.418  49.663  51.110  0.00  0.00     0.025 A 
ATOM     24  C   UNL d   1      57.603  49.668  51.046  0.00  0.00     0.002 A 
ATOM     25  C   UNL d   1      57.303  49.691  50.262  0.00  0.00     0.000 A 
ATOM     26  C   UNL d   1      57.814  49.708  49.617  0.00  0.00     0.002 A 
ATOM     27  C   UNL d   1      58.632  49.702  49.711  0.00  0.00     0.025 A 
ENDBRANCH  21  22
ENDBRANCH  20  21
ENDBRANCH  18  20
ENDBRANCH   2  17
TORSDOF 8
ENDMDL
