MODEL 1
REMARK VINA RESULT:      -0.9      0.000      0.000
REMARK  4 active torsions:
REMARK  status: ('A' for Active; 'I' for Inactive)
REMARK    1  A    between atoms: C_2  and  S_1 
REMARK    2  A    between atoms: N_3  and  S_1 
REMARK    3  A    between atoms: C_4  and  C_6 
REMARK       I    between atoms: N_5  and  C_4 
REMARK    4  A    between atoms: C_11  and  N_8 
ROOT
ATOM      1  C   UNL d   1     -41.687-122.528 -53.850  0.00  0.00     0.104 A 
ATOM      2  C   UNL d   1     -41.398-122.286 -52.477  0.00  0.00     0.057 A 
ATOM      3  C   UNL d   1     -41.679-122.018 -53.207  0.00  0.00     0.018 A 
ATOM      4  C   UNL d   1     -41.420-123.301 -53.777  0.00  0.00     0.012 A 
ATOM      5  C   UNL d   1     -41.129-123.061 -52.397  0.00  0.00     0.005 A 
ATOM      6  C   UNL d   1     -41.140-123.569 -53.047  0.00  0.00     0.001 A 
ATOM      7  C   UNL d   1     -41.428-123.811 -54.420  0.00  0.00     0.001 C 
ENDROOT
BRANCH   2   8
ATOM      8  C   UNL d   1     -41.384-121.785 -51.821  0.00  0.00     0.265 C 
ATOM      9  N   UNL d   1     -41.627-122.075 -51.087  0.00  0.00    -0.269 N 
ATOM     10  C   UNL d   1     -41.614-121.582 -50.434  0.00  0.00     0.102 A 
ATOM     11  C   UNL d   1     -41.879-122.859 -51.023  0.00  0.00     0.102 A 
ATOM     12  C   UNL d   1     -41.857-121.872 -49.701  0.00  0.00     0.100 A 
ATOM     13  N   UNL d   1     -42.111-122.655 -49.628  0.00  0.00    -0.301 N 
ATOM     14  C   UNL d   1     -42.120-123.146 -50.290  0.00  0.00     0.100 A 
ATOM     15  O   UNL d   1     -41.132-121.011 -51.900  0.00  0.00    -0.267 OA
BRANCH  13  16
ATOM     16  C   UNL d   1     -42.353-122.946 -48.895  0.00  0.00     0.064 A 
ATOM     17  C   UNL d   1     -41.930-122.746 -48.213  0.00  0.00     0.020 A 
ATOM     18  C   UNL d   1     -42.173-123.037 -47.480  0.00  0.00     0.031 A 
ATOM     19  C   UNL d   1     -42.835-123.525 -47.422  0.00  0.00     0.140 A 
ATOM     20  C   UNL d   1     -43.260-123.724 -48.113  0.00  0.00     0.031 A 
ATOM     21  F   UNL d   1     -43.079-123.815 -46.690  0.00  0.00    -0.204 F 
ATOM     22  C   UNL d   1     -43.017-123.433 -48.847  0.00  0.00     0.020 A 
ENDBRANCH  13  16
ENDBRANCH   2   8
BRANCH   1  23
ATOM     23  S   UNL d   1     -41.967-122.260 -54.580  0.00  0.00     0.271 S 
ATOM     24  O   UNL d   1     -42.699-122.611 -54.428  0.00  0.00    -0.200 OA
ATOM     25  O   UNL d   1     -41.123-121.855 -54.755  0.00  0.00    -0.200 OA
BRANCH  23  26
ATOM     26  N   UNL d   1     -42.189-121.967 -55.318  0.00  0.00    -0.229 N 
ATOM     27  C   UNL d   1     -42.875-122.251 -55.672  0.00  0.00     0.092 A 
ATOM     28  C   UNL d   1     -43.102-121.958 -56.414  0.00  0.00     0.020 A 
ATOM     29  C   UNL d   1     -42.638-121.389 -56.783  0.00  0.00     0.003 A 
ATOM     30  C   UNL d   1     -41.959-121.111 -56.427  0.00  0.00     0.020 A 
ATOM     31  C   UNL d   1     -41.732-121.396 -55.697  0.00  0.00     0.092 A 
ENDBRANCH  23  26
ENDBRANCH   1  23
TORSDOF 4
ENDMDL
