MODEL 1
REMARK VINA RESULT:      -4.3      0.000      0.000
REMARK  6 active torsions:
REMARK  status: ('A' for Active; 'I' for Inactive)
REMARK    1  A    between atoms: C_6  and  C_1 
REMARK    2  A    between atoms: C_9  and  N_3 
REMARK       I    between atoms: N_7  and  C_6 
REMARK    3  A    between atoms: C_8  and  N_7 
REMARK    4  A    between atoms: C_10  and  C_9 
REMARK    5  A    between atoms: O_25  and  C_15 
REMARK    6  A    between atoms: O_26  and  C_20 
ROOT
ATOM      1  C   UNL d   1     -41.592-122.609 -51.393  0.00  0.00     0.199 A 
ATOM      2  C   UNL d   1     -41.339-123.024 -52.054  0.00  0.00     0.211 A 
ATOM      3  N   UNL d   1     -41.339-122.507 -52.694  0.00  0.00    -0.190 N 
ATOM      4  N   UNL d   1     -41.751-121.831 -51.619  0.00  0.00    -0.122 NA
ATOM      5  N   UNL d   1     -41.593-121.764 -52.434  0.00  0.00    -0.058 NA
ATOM      6  N   UNL d   1     -41.123-123.817 -52.075  0.00  0.00    -0.125 N 
ENDROOT
BRANCH   1   7
ATOM      7  C   UNL d   1     -41.676-122.911 -50.633  0.00  0.00     0.302 C 
ATOM      8  N   UNL d   1     -42.304-122.665 -50.158  0.00  0.00    -0.204 NA
ATOM      9  O   UNL d   1     -41.128-123.462 -50.344  0.00  0.00    -0.263 OA
BRANCH   8  10
ATOM     10  C   UNL d   1     -42.384-122.972 -49.393  0.00  0.00     0.109 A 
ATOM     11  C   UNL d   1     -41.743-122.968 -48.874  0.00  0.00     0.045 A 
ATOM     12  C   UNL d   1     -41.823-123.271 -48.118  0.00  0.00     0.096 A 
ATOM     13  C   UNL d   1     -42.544-123.584 -47.867  0.00  0.00     0.026 A 
ATOM     14  C   UNL d   1     -43.193-123.589 -48.389  0.00  0.00     0.028 A 
ATOM     15  C   UNL d   1     -43.106-123.281 -49.151  0.00  0.00     0.112 A 
BRANCH  12  16
ATOM     16  O   UNL d   1     -41.181-123.267 -47.599  0.00  0.00    -0.328 OA
ATOM     17  C   UNL d   1     -41.288-123.077 -46.812  0.00  0.00     0.181 C 
ENDBRANCH  12  16
BRANCH  15  18
ATOM     18  O   UNL d   1     -43.739-123.283 -49.670  0.00  0.00    -0.327 OA
ATOM     19  C   UNL d   1     -44.394-123.766 -49.530  0.00  0.00     0.181 C 
ENDBRANCH  15  18
ENDBRANCH   8  10
ENDBRANCH   1   7
BRANCH   3  20
ATOM     20  C   UNL d   1     -41.123-122.689 -53.464  0.00  0.00     0.106 C 
BRANCH  20  21
ATOM     21  C   UNL d   1     -41.618-122.493 -54.098  0.00  0.00     0.047 A 
ATOM     22  C   UNL d   1     -41.721-123.019 -54.716  0.00  0.00     0.142 A 
ATOM     23  C   UNL d   1     -42.216-122.820 -55.348  0.00  0.00     0.036 A 
ATOM     24  F   UNL d   1     -41.337-123.745 -54.715  0.00  0.00    -0.204 F 
ATOM     25  C   UNL d   1     -42.607-122.092 -55.359  0.00  0.00     0.037 A 
ATOM     26  C   UNL d   1     -42.497-121.561 -54.726  0.00  0.00     0.007 A 
ATOM     27 BR   UNL d   1     -43.102-121.886 -55.986  0.00  0.00    -0.049 Br
ATOM     28  C   UNL d   1     -42.002-121.767 -54.099  0.00  0.00     0.004 A 
ENDBRANCH  20  21
ENDBRANCH   3  20
TORSDOF 6
ENDMDL
