MODEL 1
REMARK VINA RESULT:      -0.6      0.000      0.000
REMARK  3 active torsions:
REMARK  status: ('A' for Active; 'I' for Inactive)
REMARK    1  A    between atoms: N_2  and  S_1 
REMARK    2  A    between atoms: C_4  and  S_1 
REMARK    3  A    between atoms: C_11  and  C_3 
ROOT
ATOM      1  N   UNL d   1     -41.447-121.459 -51.866  0.00  0.00    -0.213 N 
ATOM      2  C   UNL d   1     -41.664-121.668 -51.094  0.00  0.00     0.157 A 
ATOM      3  N   UNL d   1     -41.472-121.032 -50.602  0.00  0.00    -0.224 NA
ATOM      4  C   UNL d   1     -41.124-120.700 -51.846  0.00  0.00     0.114 A 
ATOM      5  C   UNL d   1     -41.141-120.438 -51.064  0.00  0.00     0.120 A 
ENDROOT
BRANCH   1   6
ATOM      6  S   UNL d   1     -41.539-121.930 -52.537  0.00  0.00     0.273 S 
ATOM      7  O   UNL d   1     -41.956-121.322 -52.906  0.00  0.00    -0.200 OA
ATOM      8  O   UNL d   1     -41.123-122.535 -52.170  0.00  0.00    -0.200 OA
BRANCH   6   9
ATOM      9  C   UNL d   1     -41.630-122.399 -53.206  0.00  0.00     0.104 A 
ATOM     10  C   UNL d   1     -42.157-122.178 -53.803  0.00  0.00     0.015 A 
ATOM     11  C   UNL d   1     -42.255-122.643 -54.478  0.00  0.00     0.028 A 
ATOM     12  C   UNL d   1     -42.779-122.420 -55.067  0.00  0.00     0.002 C 
ATOM     13  C   UNL d   1     -41.813-123.342 -54.552  0.00  0.00     0.140 A 
ATOM     14  C   UNL d   1     -41.289-123.565 -53.963  0.00  0.00     0.030 A 
ATOM     15  F   UNL d   1     -41.904-123.811 -55.221  0.00  0.00    -0.204 F 
ATOM     16  C   UNL d   1     -41.198-123.094 -53.291  0.00  0.00     0.015 A 
ENDBRANCH   6   9
ENDBRANCH   1   6
BRANCH   2  17
ATOM     17  C   UNL d   1     -42.008-122.379 -50.859  0.00  0.00     0.035 A 
ATOM     18  C   UNL d   1     -42.831-122.451 -50.830  0.00  0.00     0.003 A 
ATOM     19  C   UNL d   1     -43.179-123.161 -50.596  0.00  0.00     0.000 A 
ATOM     20  C   UNL d   1     -42.700-123.800 -50.391  0.00  0.00     0.000 A 
ATOM     21  C   UNL d   1     -41.876-123.728 -50.420  0.00  0.00     0.000 A 
ATOM     22  C   UNL d   1     -41.532-123.018 -50.654  0.00  0.00     0.003 A 
ENDBRANCH   2  17
TORSDOF 3
ENDMDL
