MODEL 1
REMARK VINA RESULT:      64.0      0.000      0.000
REMARK  4 active torsions:
REMARK  status: ('A' for Active; 'I' for Inactive)
REMARK    1  A    between atoms: N_11  and  C_4 
REMARK    2  A    between atoms: C_22  and  N_15 
REMARK    3  A    between atoms: O_29  and  C_17 
REMARK    4  A    between atoms: C_21  and  C_22 
ROOT
ATOM      1  N   UNL d   1      46.129 -17.974  41.398  0.00  0.00    -0.195 N 
ATOM      2  C   UNL d   1      46.295 -18.429  42.042  0.00  0.00     0.168 A 
ATOM      3  C   UNL d   1      46.291 -18.115  42.772  0.00  0.00     0.073 A 
ATOM      4  C   UNL d   1      46.138 -18.305  40.677  0.00  0.00     0.153 A 
ATOM      5  N   UNL d   1      45.955 -16.888  42.209  0.00  0.00    -0.143 NA
ATOM      6  C   UNL d   1      46.120 -17.343  42.854  0.00  0.00     0.185 A 
ATOM      7  N   UNL d   1      46.464 -19.203  41.948  0.00  0.00    -0.227 NA
ATOM      8  C   UNL d   1      46.454 -18.565  43.409  0.00  0.00     0.007 A 
ATOM      9  N   UNL d   1      46.112 -17.010  43.586  0.00  0.00    -0.225 NA
ATOM     10  C   UNL d   1      46.305 -19.070  40.579  0.00  0.00     0.057 A 
ATOM     11  C   UNL d   1      46.450 -18.250  44.139  0.00  0.00     0.019 A 
ATOM     12  C   UNL d   1      46.471 -19.525  41.224  0.00  0.00     0.086 A 
ATOM     13  C   UNL d   1      46.277 -17.465  44.231  0.00  0.00     0.083 A 
ATOM     14  C   UNL d   1      46.624 -19.341  43.314  0.00  0.00     0.000 C 
ATOM     15  C   UNL d   1      46.647 -20.329  41.122  0.00  0.00     0.021 C 
ATOM     16  C   UNL d   1      46.272 -17.146  44.954  0.00  0.00     0.021 C 
ENDROOT
BRANCH   4  17
ATOM     17  N   UNL d   1      45.966 -17.829  40.018  0.00  0.00    -0.286 N 
ATOM     18  C   UNL d   1      46.330 -17.288  39.501  0.00  0.00     0.101 A 
ATOM     19  C   UNL d   1      45.903 -16.936  38.889  0.00  0.00     0.100 A 
ATOM     20  N   UNL d   1      45.100 -17.129  38.794  0.00  0.00    -0.300 N 
ATOM     21  C   UNL d   1      44.733 -17.660  39.297  0.00  0.00     0.100 A 
ATOM     22  C   UNL d   1      45.162 -18.016  39.916  0.00  0.00     0.101 A 
BRANCH  20  23
ATOM     23  C   UNL d   1      44.674 -16.782  38.190  0.00  0.00     0.080 C 
BRANCH  23  24
ATOM     24  C   UNL d   1      44.976 -16.117  37.779  0.00  0.00     0.020 A 
ATOM     25  C   UNL d   1      44.960 -15.364  38.116  0.00  0.00     0.033 A 
ATOM     26  C   UNL d   1      45.261 -14.703  37.705  0.00  0.00     0.162 A 
ATOM     27  F   UNL d   1      45.243 -13.951  38.046  0.00  0.00    -0.202 F 
ATOM     28  C   UNL d   1      45.580 -14.811  36.942  0.00  0.00     0.121 A 
ATOM     29  C   UNL d   1      45.601 -15.563  36.593  0.00  0.00     0.027 A 
ATOM     30  C   UNL d   1      45.301 -16.220  37.004  0.00  0.00     0.004 A 
BRANCH  28  31
ATOM     31  O   UNL d   1      45.880 -14.158  36.530  0.00  0.00    -0.326 OA
ATOM     32  C   UNL d   1      46.640 -13.877  36.684  0.00  0.00     0.181 C 
ENDBRANCH  28  31
ENDBRANCH  23  24
ENDBRANCH  20  23
ENDBRANCH   4  17
TORSDOF 4
ENDMDL
