MODEL 1
REMARK VINA RESULT:      -4.9      0.000      0.000
REMARK  3 active torsions:
REMARK  status: ('A' for Active; 'I' for Inactive)
REMARK    1  A    between atoms: N_5  and  C_2 
REMARK    2  A    between atoms: C_14  and  C_4 
REMARK       I    between atoms: C_7  and  N_5 
REMARK    3  A    between atoms: C_8  and  C_7 
ROOT
ATOM      1  S   UNL d   1      58.418  -0.076  30.457  0.00  0.00    -0.026 SA
ATOM      2  C   UNL d   1      57.644   0.176  30.598  0.00  0.00     0.219 A 
ATOM      3  N   UNL d   1      57.961   0.346  29.304  0.00  0.00    -0.139 NA
ATOM      4  C   UNL d   1      58.603   0.031  29.667  0.00  0.00     0.135 A 
ATOM      5  N   UNL d   1      57.357   0.441  29.875  0.00  0.00    -0.121 NA
ENDROOT
BRANCH   2   6
ATOM      6  N   UNL d   1      57.169   0.200  31.280  0.00  0.00    -0.181 NA
ATOM      7  C   UNL d   1      56.874  -0.496  31.577  0.00  0.00     0.287 C 
ATOM      8  O   UNL d   1      57.028  -1.232  31.226  0.00  0.00    -0.265 OA
BRANCH   7   9
ATOM      9  C   UNL d   1      56.415  -0.470  32.236  0.00  0.00     0.087 A 
ATOM     10  S   UNL d   1      56.156  -1.123  32.643  0.00  0.00    -0.082 SA
ATOM     11  C   UNL d   1      55.697  -0.851  33.290  0.00  0.00     0.036 A 
ATOM     12  C   UNL d   1      55.687  -0.054  33.263  0.00  0.00     0.008 A 
ATOM     13  C   UNL d   1      56.116   0.206  32.631  0.00  0.00     0.012 A 
ENDBRANCH   7   9
ENDBRANCH   2   6
BRANCH   4  14
ATOM     14  C   UNL d   1      59.347  -0.164  29.313  0.00  0.00     0.026 C 
ATOM     15  C   UNL d   1      60.054   0.198  29.540  0.00  0.00     0.002 C 
ATOM     16  C   UNL d   1      59.366  -0.744  28.711  0.00  0.00     0.002 C 
ENDBRANCH   4  14
TORSDOF 3
ENDMDL
MODEL 2
REMARK VINA RESULT:      -4.3      1.169      4.127
REMARK  3 active torsions:
REMARK  status: ('A' for Active; 'I' for Inactive)
REMARK    1  A    between atoms: N_5  and  C_2 
REMARK    2  A    between atoms: C_14  and  C_4 
REMARK       I    between atoms: C_7  and  N_5 
REMARK    3  A    between atoms: C_8  and  C_7 
ROOT
ATOM      1  S   UNL d   1      56.283   0.390  32.380  0.00  0.00    -0.026 SA
ATOM      2  C   UNL d   1      56.674  -0.123  31.863  0.00  0.00     0.219 A 
ATOM      3  N   UNL d   1      56.219  -0.796  32.934  0.00  0.00    -0.139 NA
ATOM      4  C   UNL d   1      56.010  -0.027  33.029  0.00  0.00     0.135 A 
ATOM      5  N   UNL d   1      56.633  -0.867  32.211  0.00  0.00    -0.121 NA
ENDROOT
BRANCH   2   6
ATOM      6  N   UNL d   1      57.054  -0.014  31.133  0.00  0.00    -0.181 NA
ATOM      7  C   UNL d   1      57.765   0.379  31.116  0.00  0.00     0.287 C 
ATOM      8  O   UNL d   1      58.127   0.675  31.800  0.00  0.00    -0.265 OA
BRANCH   7   9
ATOM      9  C   UNL d   1      58.131   0.483  30.407  0.00  0.00     0.087 A 
ATOM     10  S   UNL d   1      58.935   0.480  30.300  0.00  0.00    -0.082 SA
ATOM     11  C   UNL d   1      59.082   0.607  29.484  0.00  0.00     0.036 A 
ATOM     12  C   UNL d   1      58.376   0.682  29.120  0.00  0.00     0.008 A 
ATOM     13  C   UNL d   1      57.779   0.611  29.657  0.00  0.00     0.012 A 
ENDBRANCH   7   9
ENDBRANCH   2   6
BRANCH   4  14
ATOM     14  C   UNL d   1      55.584   0.311  33.678  0.00  0.00     0.026 C 
ATOM     15  C   UNL d   1      54.759   0.311  33.714  0.00  0.00     0.002 C 
ATOM     16  C   UNL d   1      56.015   0.658  34.305  0.00  0.00     0.002 C 
ENDBRANCH   4  14
TORSDOF 3
ENDMDL
MODEL 3
REMARK VINA RESULT:      -3.3      1.183      3.873
REMARK  3 active torsions:
REMARK  status: ('A' for Active; 'I' for Inactive)
REMARK    1  A    between atoms: N_5  and  C_2 
REMARK    2  A    between atoms: C_14  and  C_4 
REMARK       I    between atoms: C_7  and  N_5 
REMARK    3  A    between atoms: C_8  and  C_7 
ROOT
ATOM      1  S   UNL d   1      57.730  -0.244  31.296  0.00  0.00    -0.026 SA
ATOM      2  C   UNL d   1      57.919  -0.106  30.503  0.00  0.00     0.219 A 
ATOM      3  N   UNL d   1      56.897   0.679  30.883  0.00  0.00    -0.139 NA
ATOM      4  C   UNL d   1      57.107   0.237  31.518  0.00  0.00     0.135 A 
ATOM      5  N   UNL d   1      57.397   0.474  30.244  0.00  0.00    -0.121 NA
ENDROOT
BRANCH   2   6
ATOM      6  N   UNL d   1      58.490  -0.425  29.991  0.00  0.00    -0.181 NA
ATOM      7  C   UNL d   1      58.426  -1.204  29.770  0.00  0.00     0.287 C 
ATOM      8  O   UNL d   1      57.812  -1.695  30.035  0.00  0.00    -0.265 OA
BRANCH   7   9
ATOM      9  C   UNL d   1      58.980  -1.510  29.274  0.00  0.00     0.087 A 
ATOM     10  S   UNL d   1      59.017  -2.290  29.050  0.00  0.00    -0.082 SA
ATOM     11  C   UNL d   1      59.673  -2.373  28.533  0.00  0.00     0.036 A 
ATOM     12  C   UNL d   1      60.013  -1.656  28.456  0.00  0.00     0.008 A 
ATOM     13  C   UNL d   1      59.613  -1.111  28.895  0.00  0.00     0.012 A 
ENDBRANCH   7   9
ENDBRANCH   2   6
BRANCH   4  14
ATOM     14  C   UNL d   1      56.758   0.253  32.290  0.00  0.00     0.026 C 
ATOM     15  C   UNL d   1      56.000  -0.038  32.440  0.00  0.00     0.002 C 
ATOM     16  C   UNL d   1      57.199   0.575  32.924  0.00  0.00     0.002 C 
ENDBRANCH   4  14
TORSDOF 3
ENDMDL
