MODEL 1
REMARK VINA RESULT:      77.9      0.000      0.000
REMARK  6 active torsions:
REMARK  status: ('A' for Active; 'I' for Inactive)
REMARK    1  A    between atoms: O_10  and  C_1 
REMARK    2  A    between atoms: O_9  and  C_6 
REMARK    3  A    between atoms: O_12  and  C_8 
REMARK    4  A    between atoms: C_13  and  O_9 
REMARK    5  A    between atoms: C_19  and  O_10 
REMARK    6  A    between atoms: C_14  and  O_12 
ROOT
ATOM      1  C   UNL d   1     -59.232 -99.071 -42.501  0.00  0.00     0.161 A 
ATOM      2  C   UNL d   1     -57.781 -98.946 -43.286  0.00  0.00     0.128 A 
ATOM      3  C   UNL d   1     -58.504 -98.959 -43.719  0.00  0.00     0.066 A 
ATOM      4  C   UNL d   1     -59.220 -99.021 -43.319  0.00  0.00     0.222 A 
ATOM      5  O   UNL d   1     -57.789 -98.996 -42.461  0.00  0.00    -0.303 OA
ATOM      6  C   UNL d   1     -57.058 -98.884 -43.682  0.00  0.00     0.149 A 
ATOM      7  C   UNL d   1     -58.510 -99.058 -42.068  0.00  0.00     0.126 A 
ATOM      8  C   UNL d   1     -57.054 -98.834 -44.501  0.00  0.00     0.128 A 
ATOM      9  C   UNL d   1     -58.490 -98.909 -44.540  0.00  0.00     0.007 A 
ATOM     10  O   UNL d   1     -59.926 -99.033 -43.742  0.00  0.00    -0.284 OA
ATOM     11  C   UNL d   1     -57.777 -98.847 -44.934  0.00  0.00     0.027 A 
ATOM     12  C   UNL d   1     -58.525 -99.110 -41.229  0.00  0.00     0.029 C 
ENDROOT
BRANCH   1  13
ATOM     13  O   UNL d   1     -59.957 -99.134 -42.087  0.00  0.00    -0.302 OA
BRANCH  13  14
ATOM     14  C   UNL d   1     -59.948 -99.343 -41.291  0.00  0.00     0.100 A 
ATOM     15  C   UNL d   1     -59.935 -98.757 -40.713  0.00  0.00     0.025 A 
ATOM     16  C   UNL d   1     -59.926 -98.967 -39.913  0.00  0.00     0.002 A 
ATOM     17  C   UNL d   1     -59.930 -99.763 -39.694  0.00  0.00     0.000 A 
ATOM     18  C   UNL d   1     -59.943-100.348 -40.276  0.00  0.00     0.002 A 
ATOM     19  C   UNL d   1     -59.952-100.138 -41.076  0.00  0.00     0.025 A 
ENDBRANCH  13  14
ENDBRANCH   1  13
BRANCH   6  20
ATOM     20  O   UNL d   1     -56.355 -98.871 -43.260  0.00  0.00    -0.269 OA
BRANCH  20  21
ATOM     21  C   UNL d   1     -55.890 -99.550 -43.213  0.00  0.00     0.300 C 
ATOM     22  O   UNL d   1     -56.217-100.285 -43.394  0.00  0.00    -0.259 OA
ATOM     23  C   UNL d   1     -55.097 -99.494 -42.984  0.00  0.00     0.074 C 
ENDBRANCH  20  21
ENDBRANCH   6  20
BRANCH   8  24
ATOM     24  O   UNL d   1     -56.322 -98.770 -44.914  0.00  0.00    -0.271 OA
BRANCH  24  25
ATOM     25  C   UNL d   1     -55.941 -99.450 -45.189  0.00  0.00     0.300 C 
ATOM     26  O   UNL d   1     -56.361 -99.986 -45.646  0.00  0.00    -0.259 OA
ATOM     27  C   UNL d   1     -55.150 -99.586 -45.007  0.00  0.00     0.074 C 
ENDBRANCH  24  25
ENDBRANCH   8  24
TORSDOF 6
ENDMDL
