MODEL 1
REMARK VINA RESULT:      -8.8      0.000      0.000
REMARK  4 active torsions:
REMARK  status: ('A' for Active; 'I' for Inactive)
REMARK    1  A    between atoms: C_4  and  C_1 
REMARK    2  A    between atoms: N_7  and  C_4 
REMARK    3  A    between atoms: C_10  and  C_4 
REMARK    4  A    between atoms: C_8  and  N_7 
ROOT
ATOM      1  C   UNL d   1      53.588  32.707  54.341  0.00  0.00     0.085 C 
ENDROOT
BRANCH   1   2
ATOM      2  C   UNL d   1      53.757  32.069  53.844  0.00  0.00     0.037 A 
ATOM      3  C   UNL d   1      54.174  32.069  53.131  0.00  0.00     0.083 A 
ATOM      4  N   UNL d   1      54.215  31.367  52.832  0.00  0.00    -0.245 NA
ATOM      5  C   UNL d   1      54.503  32.743  52.787  0.00  0.00     0.021 C 
ATOM      6  C   UNL d   1      53.816  30.827  53.339  0.00  0.00     0.081 A 
ATOM      7  C   UNL d   1      53.528  31.268  53.975  0.00  0.00     0.021 A 
ATOM      8  C   UNL d   1      53.683  30.005  53.299  0.00  0.00     0.019 A 
ATOM      9  C   UNL d   1      53.106  30.890  54.574  0.00  0.00     0.002 A 
ATOM     10  C   UNL d   1      52.969  30.081  54.545  0.00  0.00     0.000 A 
ATOM     11  C   UNL d   1      53.256  29.640  53.910  0.00  0.00     0.002 A 
ENDBRANCH   1   2
BRANCH   1  12
ATOM     12  N   UNL d   1      52.814  32.948  54.417  0.00  0.00    -0.227 NA
BRANCH  12  13
ATOM     13  C   UNL d   1      52.522  33.564  53.980  0.00  0.00     0.162 A 
ATOM     14  N   UNL d   1      52.841  34.315  54.043  0.00  0.00    -0.225 NA
ATOM     15  C   UNL d   1      52.521  34.954  53.576  0.00  0.00     0.101 A 
ATOM     16  C   UNL d   1      51.904  34.789  53.081  0.00  0.00     0.021 A 
ATOM     17  C   UNL d   1      51.582  34.046  53.013  0.00  0.00     0.005 A 
ATOM     18  C   UNL d   1      51.880  33.426  53.456  0.00  0.00     0.039 A 
ATOM     19  C   UNL d   1      50.949  33.924  52.492  0.00  0.00     0.000 C 
ENDBRANCH  12  13
ENDBRANCH   1  12
BRANCH   1  20
ATOM     20  C   UNL d   1      54.194  33.094  54.753  0.00  0.00     0.021 A 
ATOM     21  C   UNL d   1      54.146  33.118  55.574  0.00  0.00     0.022 A 
ATOM     22  C   UNL d   1      54.752  33.505  55.987  0.00  0.00     0.099 A 
ATOM     23  N   UNL d   1      55.381  33.851  55.571  0.00  0.00    -0.242 NA
ATOM     24  C   UNL d   1      55.406  33.814  54.757  0.00  0.00     0.099 A 
ATOM     25  C   UNL d   1      54.823  33.440  54.338  0.00  0.00     0.022 A 
ENDBRANCH   1  20
TORSDOF 4
ENDMDL
MODEL 2
REMARK VINA RESULT:      -8.0      0.911      3.251
REMARK  4 active torsions:
REMARK  status: ('A' for Active; 'I' for Inactive)
REMARK    1  A    between atoms: C_4  and  C_1 
REMARK    2  A    between atoms: N_7  and  C_4 
REMARK    3  A    between atoms: C_10  and  C_4 
REMARK    4  A    between atoms: C_8  and  N_7 
ROOT
ATOM      1  C   UNL d   1      52.874  32.767  53.766  0.00  0.00     0.085 C 
ENDROOT
BRANCH   1   2
ATOM      2  C   UNL d   1      52.573  33.305  53.216  0.00  0.00     0.037 A 
ATOM      3  C   UNL d   1      52.966  33.680  52.594  0.00  0.00     0.083 A 
ATOM      4  N   UNL d   1      52.497  34.141  52.205  0.00  0.00    -0.245 NA
ATOM      5  C   UNL d   1      53.764  33.568  52.417  0.00  0.00     0.021 C 
ATOM      6  C   UNL d   1      51.730  34.108  52.549  0.00  0.00     0.081 A 
ATOM      7  C   UNL d   1      51.777  33.583  53.184  0.00  0.00     0.021 A 
ATOM      8  C   UNL d   1      51.010  34.486  52.364  0.00  0.00     0.019 A 
ATOM      9  C   UNL d   1      51.105  33.433  53.637  0.00  0.00     0.002 A 
ATOM     10  C   UNL d   1      50.391  33.798  53.465  0.00  0.00     0.000 A 
ATOM     11  C   UNL d   1      50.343  34.323  52.830  0.00  0.00     0.002 A 
ENDBRANCH   1   2
BRANCH   1  12
ATOM     12  N   UNL d   1      52.491  32.056  53.867  0.00  0.00    -0.227 NA
BRANCH  12  13
ATOM     13  C   UNL d   1      52.777  31.375  53.535  0.00  0.00     0.162 A 
ATOM     14  N   UNL d   1      52.876  31.308  52.726  0.00  0.00    -0.225 NA
ATOM     15  C   UNL d   1      53.179  30.583  52.393  0.00  0.00     0.101 A 
ATOM     16  C   UNL d   1      53.359  29.979  52.899  0.00  0.00     0.021 A 
ATOM     17  C   UNL d   1      53.264  30.038  53.704  0.00  0.00     0.005 A 
ATOM     18  C   UNL d   1      52.974  30.729  54.035  0.00  0.00     0.039 A 
ATOM     19  C   UNL d   1      53.461  29.393  54.185  0.00  0.00     0.000 C 
ENDBRANCH  12  13
ENDBRANCH   1  12
BRANCH   1  20
ATOM     20  C   UNL d   1      53.553  32.949  54.206  0.00  0.00     0.021 A 
ATOM     21  C   UNL d   1      53.461  33.106  55.008  0.00  0.00     0.022 A 
ATOM     22  C   UNL d   1      54.139  33.288  55.448  0.00  0.00     0.099 A 
ATOM     23  N   UNL d   1      54.882  33.306  55.077  0.00  0.00    -0.242 NA
ATOM     24  C   UNL d   1      54.947  33.145  54.280  0.00  0.00     0.099 A 
ATOM     25  C   UNL d   1      54.295  32.966  53.835  0.00  0.00     0.022 A 
ENDBRANCH   1  20
TORSDOF 4
ENDMDL
MODEL 3
REMARK VINA RESULT:      -7.9      0.985      3.477
REMARK  4 active torsions:
REMARK  status: ('A' for Active; 'I' for Inactive)
REMARK    1  A    between atoms: C_4  and  C_1 
REMARK    2  A    between atoms: N_7  and  C_4 
REMARK    3  A    between atoms: C_10  and  C_4 
REMARK    4  A    between atoms: C_8  and  N_7 
ROOT
ATOM      1  C   UNL d   1      53.075  32.622  53.842  0.00  0.00     0.085 C 
ENDROOT
BRANCH   1   2
ATOM      2  C   UNL d   1      53.858  32.877  53.913  0.00  0.00     0.037 A 
ATOM      3  C   UNL d   1      54.457  32.861  53.346  0.00  0.00     0.083 A 
ATOM      4  N   UNL d   1      55.110  33.147  53.622  0.00  0.00    -0.245 NA
ATOM      5  C   UNL d   1      54.361  32.572  52.579  0.00  0.00     0.021 C 
ATOM      6  C   UNL d   1      54.991  33.384  54.421  0.00  0.00     0.081 A 
ATOM      7  C   UNL d   1      54.205  33.214  54.604  0.00  0.00     0.021 A 
ATOM      8  C   UNL d   1      55.495  33.726  54.991  0.00  0.00     0.019 A 
ATOM      9  C   UNL d   1      53.917  33.386  55.357  0.00  0.00     0.002 A 
ATOM     10  C   UNL d   1      54.403  33.722  55.927  0.00  0.00     0.000 A 
ATOM     11  C   UNL d   1      55.189  33.891  55.744  0.00  0.00     0.002 A 
ENDBRANCH   1   2
BRANCH   1  12
ATOM     12  N   UNL d   1      52.855  31.930  54.209  0.00  0.00    -0.227 NA
BRANCH  12  13
ATOM     13  C   UNL d   1      52.895  31.219  53.821  0.00  0.00     0.162 A 
ATOM     14  N   UNL d   1      52.637  31.145  53.049  0.00  0.00    -0.225 NA
ATOM     15  C   UNL d   1      52.686  30.389  52.655  0.00  0.00     0.101 A 
ATOM     16  C   UNL d   1      52.990  29.765  53.069  0.00  0.00     0.021 A 
ATOM     17  C   UNL d   1      53.248  29.831  53.836  0.00  0.00     0.005 A 
ATOM     18  C   UNL d   1      53.206  30.551  54.224  0.00  0.00     0.039 A 
ATOM     19  C   UNL d   1      53.553  29.164  54.221  0.00  0.00     0.000 C 
ENDBRANCH  12  13
ENDBRANCH   1  12
BRANCH   1  20
ATOM     20  C   UNL d   1      52.525  33.063  53.406  0.00  0.00     0.021 A 
ATOM     21  C   UNL d   1      51.802  33.235  53.759  0.00  0.00     0.022 A 
ATOM     22  C   UNL d   1      51.252  33.676  53.323  0.00  0.00     0.099 A 
ATOM     23  N   UNL d   1      51.439  33.929  52.555  0.00  0.00    -0.242 NA
ATOM     24  C   UNL d   1      52.163  33.746  52.227  0.00  0.00     0.099 A 
ATOM     25  C   UNL d   1      52.711  33.317  52.638  0.00  0.00     0.022 A 
ENDBRANCH   1  20
TORSDOF 4
ENDMDL
MODEL 4
REMARK VINA RESULT:      -7.6      0.871      2.695
REMARK  4 active torsions:
REMARK  status: ('A' for Active; 'I' for Inactive)
REMARK    1  A    between atoms: C_4  and  C_1 
REMARK    2  A    between atoms: N_7  and  C_4 
REMARK    3  A    between atoms: C_10  and  C_4 
REMARK    4  A    between atoms: C_8  and  N_7 
ROOT
ATOM      1  C   UNL d   1      53.244  32.507  53.883  0.00  0.00     0.085 C 
ENDROOT
BRANCH   1   2
ATOM      2  C   UNL d   1      54.008  32.818  53.952  0.00  0.00     0.037 A 
ATOM      3  C   UNL d   1      54.598  32.861  53.377  0.00  0.00     0.083 A 
ATOM      4  N   UNL d   1      55.232  33.187  53.652  0.00  0.00    -0.245 NA
ATOM      5  C   UNL d   1      54.512  32.587  52.603  0.00  0.00     0.021 C 
ATOM      6  C   UNL d   1      55.108  33.392  54.459  0.00  0.00     0.081 A 
ATOM      7  C   UNL d   1      54.339  33.160  54.647  0.00  0.00     0.021 A 
ATOM      8  C   UNL d   1      55.594  33.755  55.032  0.00  0.00     0.019 A 
ATOM      9  C   UNL d   1      54.051  33.289  55.409  0.00  0.00     0.002 A 
ATOM     10  C   UNL d   1      54.519  33.645  55.981  0.00  0.00     0.000 A 
ATOM     11  C   UNL d   1      55.288  33.877  55.793  0.00  0.00     0.002 A 
ENDBRANCH   1   2
BRANCH   1  12
ATOM     12  N   UNL d   1      52.612  32.984  54.070  0.00  0.00    -0.227 NA
BRANCH  12  13
ATOM     13  C   UNL d   1      52.214  33.397  53.497  0.00  0.00     0.162 A 
ATOM     14  N   UNL d   1      52.617  33.830  52.932  0.00  0.00    -0.225 NA
ATOM     15  C   UNL d   1      52.182  34.258  52.335  0.00  0.00     0.101 A 
ATOM     16  C   UNL d   1      51.375  34.219  52.352  0.00  0.00     0.021 A 
ATOM     17  C   UNL d   1      50.968  33.792  52.910  0.00  0.00     0.005 A 
ATOM     18  C   UNL d   1      51.374  33.376  53.488  0.00  0.00     0.039 A 
ATOM     19  C   UNL d   1      50.140  33.780  52.889  0.00  0.00     0.000 C 
ENDBRANCH  12  13
ENDBRANCH   1  12
BRANCH   1  20
ATOM     20  C   UNL d   1      53.127  31.727  53.630  0.00  0.00     0.021 A 
ATOM     21  C   UNL d   1      53.087  31.139  54.203  0.00  0.00     0.022 A 
ATOM     22  C   UNL d   1      52.969  30.358  53.950  0.00  0.00     0.099 A 
ATOM     23  N   UNL d   1      52.895  30.191  53.140  0.00  0.00    -0.242 NA
ATOM     24  C   UNL d   1      52.938  30.793  52.591  0.00  0.00     0.099 A 
ATOM     25  C   UNL d   1      53.053  31.560  52.820  0.00  0.00     0.022 A 
ENDBRANCH   1  20
TORSDOF 4
ENDMDL
MODEL 5
REMARK VINA RESULT:      -7.0      1.401      3.569
REMARK  4 active torsions:
REMARK  status: ('A' for Active; 'I' for Inactive)
REMARK    1  A    between atoms: C_4  and  C_1 
REMARK    2  A    between atoms: N_7  and  C_4 
REMARK    3  A    between atoms: C_10  and  C_4 
REMARK    4  A    between atoms: C_8  and  N_7 
ROOT
ATOM      1  C   UNL d   1      52.115  34.015  53.488  0.00  0.00     0.085 C 
ENDROOT
BRANCH   1   2
ATOM      2  C   UNL d   1      51.711  34.160  52.781  0.00  0.00     0.037 A 
ATOM      3  C   UNL d   1      52.021  34.258  52.023  0.00  0.00     0.083 A 
ATOM      4  N   UNL d   1      51.469  34.383  51.509  0.00  0.00    -0.245 NA
ATOM      5  C   UNL d   1      52.826  34.226  51.844  0.00  0.00     0.021 C 
ATOM      6  C   UNL d   1      50.723  34.377  51.900  0.00  0.00     0.081 A 
ATOM      7  C   UNL d   1      50.875  34.236  52.699  0.00  0.00     0.021 A 
ATOM      8  C   UNL d   1      49.942  34.480  51.629  0.00  0.00     0.019 A 
ATOM      9  C   UNL d   1      50.247  34.198  53.231  0.00  0.00     0.002 A 
ATOM     10  C   UNL d   1      49.473  34.298  52.976  0.00  0.00     0.000 A 
ATOM     11  C   UNL d   1      49.321  34.439  52.178  0.00  0.00     0.002 A 
ENDBRANCH   1   2
BRANCH   1  12
ATOM     12  N   UNL d   1      52.059  33.275  53.824  0.00  0.00    -0.227 NA
BRANCH  12  13
ATOM     13  C   UNL d   1      52.635  32.717  53.707  0.00  0.00     0.162 A 
ATOM     14  N   UNL d   1      53.406  32.850  53.945  0.00  0.00    -0.225 NA
ATOM     15  C   UNL d   1      54.001  32.252  53.814  0.00  0.00     0.101 A 
ATOM     16  C   UNL d   1      53.774  31.565  53.454  0.00  0.00     0.021 A 
ATOM     17  C   UNL d   1      53.010  31.425  53.215  0.00  0.00     0.005 A 
ATOM     18  C   UNL d   1      52.431  31.992  53.335  0.00  0.00     0.039 A 
ATOM     19  C   UNL d   1      52.823  30.706  52.850  0.00  0.00     0.000 C 
ENDBRANCH  12  13
ENDBRANCH   1  12
BRANCH   1  20
ATOM     20  C   UNL d   1      52.567  34.610  53.846  0.00  0.00     0.021 A 
ATOM     21  C   UNL d   1      52.401  34.801  54.629  0.00  0.00     0.022 A 
ATOM     22  C   UNL d   1      52.852  35.396  54.987  0.00  0.00     0.099 A 
ATOM     23  N   UNL d   1      53.450  35.779  54.557  0.00  0.00    -0.242 NA
ATOM     24  C   UNL d   1      53.595  35.572  53.781  0.00  0.00     0.099 A 
ATOM     25  C   UNL d   1      53.164  34.994  53.416  0.00  0.00     0.022 A 
ENDBRANCH   1  20
TORSDOF 4
ENDMDL
MODEL 6
REMARK VINA RESULT:      -6.9      1.060      2.708
REMARK  4 active torsions:
REMARK  status: ('A' for Active; 'I' for Inactive)
REMARK    1  A    between atoms: C_4  and  C_1 
REMARK    2  A    between atoms: N_7  and  C_4 
REMARK    3  A    between atoms: C_10  and  C_4 
REMARK    4  A    between atoms: C_8  and  N_7 
ROOT
ATOM      1  C   UNL d   1      52.376  32.889  53.597  0.00  0.00     0.085 C 
ENDROOT
BRANCH   1   2
ATOM      2  C   UNL d   1      52.791  32.274  53.233  0.00  0.00     0.037 A 
ATOM      3  C   UNL d   1      53.449  32.320  52.738  0.00  0.00     0.083 A 
ATOM      4  N   UNL d   1      53.676  31.627  52.510  0.00  0.00    -0.245 NA
ATOM      5  C   UNL d   1      53.813  33.027  52.517  0.00  0.00     0.021 C 
ATOM      6  C   UNL d   1      53.170  31.046  52.848  0.00  0.00     0.081 A 
ATOM      7  C   UNL d   1      52.613  31.452  53.302  0.00  0.00     0.021 A 
ATOM      8  C   UNL d   1      53.149  30.214  52.797  0.00  0.00     0.019 A 
ATOM      9  C   UNL d   1      52.034  31.029  53.709  0.00  0.00     0.002 A 
ATOM     10  C   UNL d   1      52.003  30.210  53.666  0.00  0.00     0.000 A 
ATOM     11  C   UNL d   1      52.559  29.804  53.212  0.00  0.00     0.002 A 
ENDBRANCH   1   2
BRANCH   1  12
ATOM     12  N   UNL d   1      52.495  33.024  54.391  0.00  0.00    -0.227 NA
BRANCH  12  13
ATOM     13  C   UNL d   1      53.025  33.581  54.647  0.00  0.00     0.162 A 
ATOM     14  N   UNL d   1      52.865  34.380  54.577  0.00  0.00    -0.225 NA
ATOM     15  C   UNL d   1      53.434  34.953  54.852  0.00  0.00     0.101 A 
ATOM     16  C   UNL d   1      54.121  34.680  55.177  0.00  0.00     0.021 A 
ATOM     17  C   UNL d   1      54.288  33.888  55.250  0.00  0.00     0.005 A 
ATOM     18  C   UNL d   1      53.749  33.328  54.990  0.00  0.00     0.039 A 
ATOM     19  C   UNL d   1      55.006  33.653  55.590  0.00  0.00     0.000 C 
ENDBRANCH  12  13
ENDBRANCH   1  12
BRANCH   1  20
ATOM     20  C   UNL d   1      51.849  33.359  53.162  0.00  0.00     0.021 A 
ATOM     21  C   UNL d   1      51.065  33.388  53.409  0.00  0.00     0.022 A 
ATOM     22  C   UNL d   1      50.539  33.858  52.974  0.00  0.00     0.099 A 
ATOM     23  N   UNL d   1      50.810  34.281  52.313  0.00  0.00    -0.242 NA
ATOM     24  C   UNL d   1      51.593  34.236  52.089  0.00  0.00     0.099 A 
ATOM     25  C   UNL d   1      52.120  33.782  52.501  0.00  0.00     0.022 A 
ENDBRANCH   1  20
TORSDOF 4
ENDMDL
MODEL 7
REMARK VINA RESULT:      -6.2      1.137      3.522
REMARK  4 active torsions:
REMARK  status: ('A' for Active; 'I' for Inactive)
REMARK    1  A    between atoms: C_4  and  C_1 
REMARK    2  A    between atoms: N_7  and  C_4 
REMARK    3  A    between atoms: C_10  and  C_4 
REMARK    4  A    between atoms: C_8  and  N_7 
ROOT
ATOM      1  C   UNL d   1      52.482  32.714  53.572  0.00  0.00     0.085 C 
ENDROOT
BRANCH   1   2
ATOM      2  C   UNL d   1      52.225  33.271  53.018  0.00  0.00     0.037 A 
ATOM      3  C   UNL d   1      52.658  33.635  52.416  0.00  0.00     0.083 A 
ATOM      4  N   UNL d   1      52.225  34.120  52.015  0.00  0.00    -0.245 NA
ATOM      5  C   UNL d   1      53.457  33.490  52.268  0.00  0.00     0.021 C 
ATOM      6  C   UNL d   1      51.444  34.117  52.330  0.00  0.00     0.081 A 
ATOM      7  C   UNL d   1      51.445  33.584  52.959  0.00  0.00     0.021 A 
ATOM      8  C   UNL d   1      50.749  34.528  52.122  0.00  0.00     0.019 A 
ATOM      9  C   UNL d   1      50.749  33.458  53.385  0.00  0.00     0.002 A 
ATOM     10  C   UNL d   1      50.059  33.856  53.190  0.00  0.00     0.000 A 
ATOM     11  C   UNL d   1      50.059  34.389  52.561  0.00  0.00     0.002 A 
ENDBRANCH   1   2
BRANCH   1  12
ATOM     12  N   UNL d   1      52.559  32.945  54.349  0.00  0.00    -0.227 NA
BRANCH  12  13
ATOM     13  C   UNL d   1      53.279  33.157  54.654  0.00  0.00     0.162 A 
ATOM     14  N   UNL d   1      53.854  32.597  54.808  0.00  0.00    -0.225 NA
ATOM     15  C   UNL d   1      54.608  32.838  55.129  0.00  0.00     0.101 A 
ATOM     16  C   UNL d   1      54.725  33.624  55.272  0.00  0.00     0.021 A 
ATOM     17  C   UNL d   1      54.159  34.187  55.122  0.00  0.00     0.005 A 
ATOM     18  C   UNL d   1      53.432  33.968  54.814  0.00  0.00     0.039 A 
ATOM     19  C   UNL d   1      54.323  34.983  55.284  0.00  0.00     0.000 C 
ENDBRANCH  12  13
ENDBRANCH   1  12
BRANCH   1  20
ATOM     20  C   UNL d   1      52.657  31.938  53.342  0.00  0.00     0.021 A 
ATOM     21  C   UNL d   1      52.142  31.341  53.577  0.00  0.00     0.022 A 
ATOM     22  C   UNL d   1      52.318  30.564  53.346  0.00  0.00     0.099 A 
ATOM     23  N   UNL d   1      52.995  30.409  52.893  0.00  0.00    -0.242 NA
ATOM     24  C   UNL d   1      53.490  31.019  52.672  0.00  0.00     0.099 A 
ATOM     25  C   UNL d   1      53.335  31.782  52.888  0.00  0.00     0.022 A 
ENDBRANCH   1  20
TORSDOF 4
ENDMDL
