MODEL 1
REMARK VINA RESULT:      37.8      0.000      0.000
REMARK  6 active torsions:
REMARK  status: ('A' for Active; 'I' for Inactive)
REMARK    1  A    between atoms: S_15  and  C_4 
REMARK    2  A    between atoms: C_7  and  N_13 
REMARK    3  A    between atoms: S_20  and  C_11 
REMARK       I    between atoms: N_13  and  C_16 
REMARK    4  A    between atoms: C_21  and  S_15 
REMARK    5  A    between atoms: C_16  and  C_21 
REMARK    6  A    between atoms: C_23  and  S_20 
ROOT
ATOM      1  S   UNL d   1      14.360  12.605  -2.052  0.00  0.00    -0.044 SA
ENDROOT
BRANCH   1   2
ATOM      2  C   UNL d   1      14.036  12.998  -2.712  0.00  0.00     0.182 A 
ATOM      3  N   UNL d   1      14.191  13.808  -2.831  0.00  0.00    -0.222 NA
ATOM      4  C   UNL d   1      13.874  14.190  -3.477  0.00  0.00     0.095 A 
ATOM      5  C   UNL d   1      13.401  13.781  -4.015  0.00  0.00     0.104 A 
ATOM      6  C   UNL d   1      13.932  14.973  -3.729  0.00  0.00     0.026 A 
ATOM      7  C   UNL d   1      13.244  12.990  -3.907  0.00  0.00     0.274 A 
ATOM      8  S   UNL d   1      13.167  14.311  -4.599  0.00  0.00    -0.081 SA
ATOM      9  N   UNL d   1      13.563  12.588  -3.250  0.00  0.00    -0.251 N 
ATOM     10  O   UNL d   1      12.771  12.580  -4.445  0.00  0.00    -0.266 OA
ATOM     11  C   UNL d   1      13.406  11.780  -3.137  0.00  0.00     0.104 C 
ATOM     12  C   UNL d   1      13.499  15.048  -4.418  0.00  0.00     0.031 A 
ATOM     13  C   UNL d   1      13.413  15.745  -4.851  0.00  0.00     0.007 C 
ENDBRANCH   1   2
BRANCH   1  14
ATOM     14  C   UNL d   1      14.388  12.991  -1.322  0.00  0.00     0.101 C 
BRANCH  14  15
ATOM     15  C   UNL d   1      14.539  12.561  -0.634  0.00  0.00     0.288 C 
ATOM     16  N   UNL d   1      14.960  12.907  -0.015  0.00  0.00    -0.181 NA
ATOM     17  O   UNL d   1      14.269  11.783  -0.565  0.00  0.00    -0.265 OA
BRANCH  16  18
ATOM     18  C   UNL d   1      15.229  13.684  -0.084  0.00  0.00     0.219 A 
ATOM     19  S   UNL d   1      14.839  14.405  -0.128  0.00  0.00    -0.019 SA
ATOM     20  C   UNL d   1      15.400  15.001  -0.192  0.00  0.00     0.165 A 
ATOM     21  N   UNL d   1      16.130  14.650  -0.188  0.00  0.00    -0.133 NA
ATOM     22  N   UNL d   1      16.035  13.837  -0.121  0.00  0.00    -0.120 NA
BRANCH  20  23
ATOM     23  S   UNL d   1      15.258  15.812  -0.251  0.00  0.00    -0.059 SA
BRANCH  23  24
ATOM     24  C   UNL d   1      15.147  16.151  -0.989  0.00  0.00     0.037 C 
ATOM     25  C   UNL d   1      15.251  16.973  -1.085  0.00  0.00     0.008 C 
ENDBRANCH  23  24
ENDBRANCH  20  23
ENDBRANCH  16  18
ENDBRANCH  14  15
ENDBRANCH   1  14
TORSDOF 6
ENDMDL
