MODEL 1
REMARK VINA RESULT:      -8.1      0.000      0.000
REMARK  3 active torsions:
REMARK  status: ('A' for Active; 'I' for Inactive)
REMARK    1  A    between atoms: C_7  and  C_1 
REMARK    2  A    between atoms: N_9  and  C_7 
REMARK    3  A    between atoms: C_8  and  N_9 
ROOT
ATOM      1  C   UNL d   1      53.255  31.962  53.513  0.00  0.00     0.146 A 
ATOM      2  C   UNL d   1      53.627  31.470  54.067  0.00  0.00     0.304 A 
ATOM      3  C   UNL d   1      52.803  31.595  52.891  0.00  0.00     0.304 A 
ATOM      4  O   UNL d   1      52.743  30.796  52.848  0.00  0.00    -0.277 OA
ATOM      5  O   UNL d   1      53.551  30.649  54.002  0.00  0.00    -0.277 OA
ATOM      6  C   UNL d   1      53.131  30.301  53.424  0.00  0.00     0.203 A 
ATOM      7  O   UNL d   1      52.422  32.088  52.326  0.00  0.00    -0.259 OA
ATOM      8  O   UNL d   1      54.092  31.835  54.706  0.00  0.00    -0.259 OA
ATOM      9  C   UNL d   1      53.306  29.569  53.711  0.00  0.00     0.062 C 
ATOM     10  C   UNL d   1      52.837  29.640  53.041  0.00  0.00     0.062 C 
ENDROOT
BRANCH   1  11
ATOM     11  C   UNL d   1      53.316  32.783  53.558  0.00  0.00     0.129 C 
BRANCH  11  12
ATOM     12  N   UNL d   1      52.737  33.207  53.938  0.00  0.00    -0.057 NA
BRANCH  12  13
ATOM     13  C   UNL d   1      52.847  34.022  54.072  0.00  0.00     0.750 A 
ATOM     14  N   UNL d   1      53.068  34.301  54.837  0.00  0.00    -0.058 NA
ATOM     15  C   UNL d   1      53.171  35.121  54.941  0.00  0.00     0.120 A 
ATOM     16  C   UNL d   1      53.066  35.649  54.339  0.00  0.00     0.043 A 
ATOM     17  C   UNL d   1      52.849  35.366  53.595  0.00  0.00     0.120 A 
ATOM     18  N   UNL d   1      52.742  34.571  53.465  0.00  0.00    -0.058 NA
ENDBRANCH  12  13
ENDBRANCH  11  12
ENDBRANCH   1  11
TORSDOF 3
ENDMDL
MODEL 2
REMARK VINA RESULT:      -7.6      1.525      3.992
REMARK  3 active torsions:
REMARK  status: ('A' for Active; 'I' for Inactive)
REMARK    1  A    between atoms: C_7  and  C_1 
REMARK    2  A    between atoms: N_9  and  C_7 
REMARK    3  A    between atoms: C_8  and  N_9 
ROOT
ATOM      1  C   UNL d   1      53.155  33.313  54.258  0.00  0.00     0.146 A 
ATOM      2  C   UNL d   1      53.813  33.714  54.563  0.00  0.00     0.304 A 
ATOM      3  C   UNL d   1      52.483  33.774  54.012  0.00  0.00     0.304 A 
ATOM      4  O   UNL d   1      52.493  34.574  54.076  0.00  0.00    -0.277 OA
ATOM      5  O   UNL d   1      53.800  34.539  54.620  0.00  0.00    -0.277 OA
ATOM      6  C   UNL d   1      53.176  34.975  54.391  0.00  0.00     0.203 A 
ATOM      7  O   UNL d   1      51.811  33.374  53.702  0.00  0.00    -0.259 OA
ATOM      8  O   UNL d   1      54.506  33.251  54.818  0.00  0.00    -0.259 OA
ATOM      9  C   UNL d   1      53.551  35.656  54.599  0.00  0.00     0.062 C 
ATOM     10  C   UNL d   1      52.794  35.691  54.285  0.00  0.00     0.062 C 
ENDROOT
BRANCH   1  11
ATOM     11  C   UNL d   1      53.145  32.490  54.193  0.00  0.00     0.129 C 
BRANCH  11  12
ATOM     12  N   UNL d   1      53.398  32.142  53.504  0.00  0.00    -0.057 NA
BRANCH  12  13
ATOM     13  C   UNL d   1      53.289  31.322  53.396  0.00  0.00     0.750 A 
ATOM     14  N   UNL d   1      52.882  31.034  52.715  0.00  0.00    -0.058 NA
ATOM     15  C   UNL d   1      52.788  30.211  52.633  0.00  0.00     0.120 A 
ATOM     16  C   UNL d   1      53.071  29.688  53.179  0.00  0.00     0.043 A 
ATOM     17  C   UNL d   1      53.468  29.980  53.841  0.00  0.00     0.120 A 
ATOM     18  N   UNL d   1      53.574  30.779  53.947  0.00  0.00    -0.058 NA
ENDBRANCH  12  13
ENDBRANCH  11  12
ENDBRANCH   1  11
TORSDOF 3
ENDMDL
MODEL 3
REMARK VINA RESULT:      -7.5      2.244      3.323
REMARK  3 active torsions:
REMARK  status: ('A' for Active; 'I' for Inactive)
REMARK    1  A    between atoms: C_7  and  C_1 
REMARK    2  A    between atoms: N_9  and  C_7 
REMARK    3  A    between atoms: C_8  and  N_9 
ROOT
ATOM      1  C   UNL d   1      53.055  34.005  53.736  0.00  0.00     0.146 A 
ATOM      2  C   UNL d   1      53.428  33.266  53.771  0.00  0.00     0.304 A 
ATOM      3  C   UNL d   1      53.323  34.615  54.266  0.00  0.00     0.304 A 
ATOM      4  O   UNL d   1      53.920  34.472  54.783  0.00  0.00    -0.277 OA
ATOM      5  O   UNL d   1      54.042  33.142  54.313  0.00  0.00    -0.277 OA
ATOM      6  C   UNL d   1      54.296  33.707  54.810  0.00  0.00     0.203 A 
ATOM      7  O   UNL d   1      52.949  35.368  54.236  0.00  0.00    -0.259 OA
ATOM      8  O   UNL d   1      53.162  32.635  53.233  0.00  0.00    -0.259 OA
ATOM      9  C   UNL d   1      54.846  33.210  55.125  0.00  0.00     0.062 C 
ATOM     10  C   UNL d   1      54.786  33.979  55.406  0.00  0.00     0.062 C 
ENDROOT
BRANCH   1  11
ATOM     11  C   UNL d   1      52.442  34.151  53.204  0.00  0.00     0.129 C 
BRANCH  11  12
ATOM     12  N   UNL d   1      51.689  33.911  53.388  0.00  0.00    -0.057 NA
BRANCH  12  13
ATOM     13  C   UNL d   1      51.060  34.102  52.874  0.00  0.00     0.750 A 
ATOM     14  N   UNL d   1      51.172  34.078  52.038  0.00  0.00    -0.058 NA
ATOM     15  C   UNL d   1      50.527  34.275  51.550  0.00  0.00     0.120 A 
ATOM     16  C   UNL d   1      49.807  34.485  51.850  0.00  0.00     0.043 A 
ATOM     17  C   UNL d   1      49.708  34.505  52.668  0.00  0.00     0.120 A 
ATOM     18  N   UNL d   1      50.321  34.319  53.169  0.00  0.00    -0.058 NA
ENDBRANCH  12  13
ENDBRANCH  11  12
ENDBRANCH   1  11
TORSDOF 3
ENDMDL
