MODEL 1
REMARK VINA RESULT:       6.0      0.000      0.000
REMARK  6 active torsions:
REMARK  status: ('A' for Active; 'I' for Inactive)
REMARK    1  A    between atoms: O_8  and  C_1 
REMARK    2  A    between atoms: C_10  and  C_5 
REMARK    3  A    between atoms: C_12  and  O_8 
REMARK    4  A    between atoms: N_9  and  C_10 
REMARK    5  A    between atoms: O_24  and  C_17 
REMARK    6  A    between atoms: C_28  and  O_24 
ROOT
ATOM      1  C   UNL d   1      58.244   0.099  30.317  0.00  0.00     0.161 A 
ATOM      2  C   UNL d   1      57.552   0.362  31.804  0.00  0.00     0.108 A 
ATOM      3  C   UNL d   1      58.380   0.288  31.741  0.00  0.00     0.064 A 
ATOM      4  C   UNL d   1      58.721   0.157  30.999  0.00  0.00     0.222 A 
ATOM      5  C   UNL d   1      57.210   0.493  32.546  0.00  0.00     0.079 A 
ATOM      6  O   UNL d   1      57.064   0.307  31.137  0.00  0.00    -0.305 OA
ATOM      7  C   UNL d   1      57.417   0.174  30.386  0.00  0.00     0.126 A 
ATOM      8  C   UNL d   1      58.847   0.345  32.410  0.00  0.00     0.009 A 
ATOM      9  C   UNL d   1      57.686   0.549  33.215  0.00  0.00     0.199 A 
ATOM     10  O   UNL d   1      59.541   0.083  30.931  0.00  0.00    -0.284 OA
ATOM     11  C   UNL d   1      58.505   0.476  33.147  0.00  0.00     0.042 A 
ATOM     12  O   UNL d   1      57.343   0.680  33.952  0.00  0.00    -0.286 OA
ATOM     13  C   UNL d   1      56.941   0.117  29.716  0.00  0.00     0.029 C 
ENDROOT
BRANCH   1  14
ATOM     14  O   UNL d   1      58.591  -0.032  29.579  0.00  0.00    -0.300 OA
BRANCH  14  15
ATOM     15  C   UNL d   1      58.755  -0.801  29.338  0.00  0.00     0.123 A 
ATOM     16  C   UNL d   1      59.372  -0.942  28.810  0.00  0.00     0.123 A 
ATOM     17  C   UNL d   1      59.540  -1.706  28.567  0.00  0.00     0.027 A 
ATOM     18  C   UNL d   1      59.094  -2.339  28.848  0.00  0.00     0.002 A 
ATOM     19  C   UNL d   1      58.470  -2.199  29.383  0.00  0.00     0.002 A 
ATOM     20  C   UNL d   1      58.304  -1.430  29.625  0.00  0.00     0.027 A 
BRANCH  16  21
ATOM     21  O   UNL d   1      59.821  -0.311  28.526  0.00  0.00    -0.303 OA
BRANCH  21  22
ATOM     22  C   UNL d   1      60.637  -0.390  28.455  0.00  0.00     0.123 C 
ATOM     23  C   UNL d   1      61.133   0.247  28.615  0.00  0.00     0.029 C 
ENDBRANCH  21  22
ENDBRANCH  16  21
ENDBRANCH  14  15
ENDBRANCH   1  14
BRANCH   5  24
ATOM     24  C   UNL d   1      56.392   0.568  32.622  0.00  0.00     0.086 C 
BRANCH  24  25
ATOM     25  N   UNL d   1      55.959  -0.047  32.973  0.00  0.00    -0.300 N 
ATOM     26  C   UNL d   1      55.927  -0.792  32.616  0.00  0.00     0.100 A 
ATOM     27  C   UNL d   1      55.499  -1.396  32.968  0.00  0.00     0.100 A 
ATOM     28  N   UNL d   1      55.098  -1.266  33.677  0.00  0.00    -0.299 N 
ATOM     29  C   UNL d   1      55.129  -0.521  34.035  0.00  0.00     0.100 A 
ATOM     30  C   UNL d   1      54.668  -1.873  34.029  0.00  0.00     0.100 C 
ATOM     31  C   UNL d   1      55.562   0.094  33.683  0.00  0.00     0.100 A 
ENDBRANCH  24  25
ENDBRANCH   5  24
TORSDOF 6
ENDMDL
MODEL 2
REMARK VINA RESULT:       6.4      1.360      2.355
REMARK  6 active torsions:
REMARK  status: ('A' for Active; 'I' for Inactive)
REMARK    1  A    between atoms: O_8  and  C_1 
REMARK    2  A    between atoms: C_10  and  C_5 
REMARK    3  A    between atoms: C_12  and  O_8 
REMARK    4  A    between atoms: N_9  and  C_10 
REMARK    5  A    between atoms: O_24  and  C_17 
REMARK    6  A    between atoms: C_28  and  O_24 
ROOT
ATOM      1  C   UNL d   1      58.358  -1.691  29.455  0.00  0.00     0.161 A 
ATOM      2  C   UNL d   1      57.539  -0.963  30.703  0.00  0.00     0.108 A 
ATOM      3  C   UNL d   1      57.955  -0.495  30.153  0.00  0.00     0.064 A 
ATOM      4  C   UNL d   1      58.362  -0.861  29.533  0.00  0.00     0.222 A 
ATOM      5  C   UNL d   1      57.131  -0.598  31.324  0.00  0.00     0.079 A 
ATOM      6  O   UNL d   1      57.525  -1.789  30.640  0.00  0.00    -0.305 OA
ATOM      7  C   UNL d   1      57.940  -2.154  30.007  0.00  0.00     0.126 A 
ATOM      8  C   UNL d   1      57.958   0.320  30.230  0.00  0.00     0.009 A 
ATOM      9  C   UNL d   1      57.139   0.222  31.394  0.00  0.00     0.199 A 
ATOM     10  O   UNL d   1      58.776  -0.402  28.985  0.00  0.00    -0.284 OA
ATOM     11  C   UNL d   1      57.553   0.681  30.847  0.00  0.00     0.042 A 
ATOM     12  O   UNL d   1      56.733   0.584  32.013  0.00  0.00    -0.286 OA
ATOM     13  C   UNL d   1      57.932  -2.975  29.936  0.00  0.00     0.029 C 
ENDROOT
BRANCH   1  14
ATOM     14  O   UNL d   1      58.766  -2.051  28.833  0.00  0.00    -0.300 OA
BRANCH  14  15
ATOM     15  C   UNL d   1      59.555  -2.264  28.935  0.00  0.00     0.123 A 
ATOM     16  C   UNL d   1      59.790  -3.041  28.794  0.00  0.00     0.123 A 
ATOM     17  C   UNL d   1      60.574  -3.259  28.894  0.00  0.00     0.027 A 
ATOM     18  C   UNL d   1      61.132  -2.702  29.135  0.00  0.00     0.002 A 
ATOM     19  C   UNL d   1      60.896  -1.915  29.278  0.00  0.00     0.002 A 
ATOM     20  C   UNL d   1      60.108  -1.701  29.176  0.00  0.00     0.027 A 
BRANCH  16  21
ATOM     21  O   UNL d   1      59.235  -3.600  28.553  0.00  0.00    -0.303 OA
BRANCH  21  22
ATOM     22  C   UNL d   1      59.390  -4.401  28.658  0.00  0.00     0.123 C 
ATOM     23  C   UNL d   1      58.827  -4.966  28.456  0.00  0.00     0.029 C 
ENDBRANCH  21  22
ENDBRANCH  16  21
ENDBRANCH  14  15
ENDBRANCH   1  14
BRANCH   5  24
ATOM     24  C   UNL d   1      56.715  -1.050  31.874  0.00  0.00     0.086 C 
BRANCH  24  25
ATOM     25  N   UNL d   1      56.407  -0.681  32.550  0.00  0.00    -0.300 N 
ATOM     26  C   UNL d   1      55.589  -0.615  32.653  0.00  0.00     0.100 A 
ATOM     27  C   UNL d   1      55.289  -0.250  33.323  0.00  0.00     0.100 A 
ATOM     28  N   UNL d   1      55.797   0.053  33.898  0.00  0.00    -0.299 N 
ATOM     29  C   UNL d   1      56.616  -0.012  33.795  0.00  0.00     0.100 A 
ATOM     30  C   UNL d   1      55.496   0.420  34.570  0.00  0.00     0.100 C 
ATOM     31  C   UNL d   1      56.925  -0.382  33.118  0.00  0.00     0.100 A 
ENDBRANCH  24  25
ENDBRANCH   5  24
TORSDOF 6
ENDMDL
