MODEL 1
REMARK VINA RESULT:     115.8      0.000      0.000
REMARK  3 active torsions:
REMARK  status: ('A' for Active; 'I' for Inactive)
REMARK    1  A    between atoms: C_15  and  C_3 
REMARK    2  A    between atoms: C_10  and  N_4 
REMARK    3  A    between atoms: N_6  and  C_5 
ROOT
ATOM      1  C   UNL d   1     -49.886  27.156  34.665  0.00  0.00     0.070 A 
ATOM      2  C   UNL d   1     -49.301  27.705  34.808  0.00  0.00     0.152 A 
ATOM      3  C   UNL d   1     -50.170  27.204  35.777  0.00  0.00     0.023 A 
ATOM      4  N   UNL d   1     -49.110  28.046  35.465  0.00  0.00    -0.290 N 
ATOM      5  C   UNL d   1     -49.994  26.861  33.914  0.00  0.00     0.153 A 
ATOM      6  C   UNL d   1     -49.627  27.702  35.872  0.00  0.00     0.082 A 
ATOM      7  N   UNL d   1     -48.823  27.960  34.201  0.00  0.00    -0.206 NA
ATOM      8  N   UNL d   1     -49.516  27.117  33.306  0.00  0.00    -0.206 NA
ATOM      9  C   UNL d   1     -48.931  27.666  33.449  0.00  0.00     0.202 A 
ENDROOT
BRANCH   5  10
ATOM     10  N   UNL d   1     -50.598  26.296  33.770  0.00  0.00    -0.285 N 
ATOM     11  C   UNL d   1     -50.415  25.484  33.789  0.00  0.00     0.106 A 
ATOM     12  C   UNL d   1     -51.002  24.924  33.649  0.00  0.00     0.118 A 
ATOM     13  C   UNL d   1     -50.825  24.101  33.666  0.00  0.00     0.028 C 
ATOM     14  O   UNL d   1     -51.796  25.174  33.485  0.00  0.00    -0.304 OA
ATOM     15  C   UNL d   1     -51.979  25.986  33.466  0.00  0.00     0.118 A 
ATOM     16  C   UNL d   1     -51.377  26.549  33.610  0.00  0.00     0.106 A 
ATOM     17  C   UNL d   1     -52.757  26.239  33.306  0.00  0.00     0.028 C 
ENDBRANCH   5  10
BRANCH   3  18
ATOM     18  C   UNL d   1     -50.718  26.852  36.253  0.00  0.00     0.002 A 
ATOM     19  C   UNL d   1     -51.501  26.826  36.034  0.00  0.00     0.000 A 
ATOM     20  C   UNL d   1     -52.049  26.471  36.514  0.00  0.00     0.000 A 
ATOM     21  C   UNL d   1     -51.825  26.133  37.229  0.00  0.00     0.000 A 
ATOM     22  C   UNL d   1     -51.030  26.160  37.449  0.00  0.00     0.000 A 
ATOM     23  C   UNL d   1     -50.483  26.517  36.964  0.00  0.00     0.000 A 
ENDBRANCH   3  18
BRANCH   4  24
ATOM     24  C   UNL d   1     -48.525  28.605  35.646  0.00  0.00     0.066 A 
ATOM     25  C   UNL d   1     -48.541  29.033  36.362  0.00  0.00     0.020 A 
ATOM     26  C   UNL d   1     -47.956  29.592  36.543  0.00  0.00     0.031 A 
ATOM     27  C   UNL d   1     -47.333  29.737  36.004  0.00  0.00     0.140 A 
ATOM     28  C   UNL d   1     -47.300  29.318  35.282  0.00  0.00     0.031 A 
ATOM     29  F   UNL d   1     -46.748  30.296  36.185  0.00  0.00    -0.204 F 
ATOM     30  C   UNL d   1     -47.897  28.753  35.105  0.00  0.00     0.020 A 
ENDBRANCH   4  24
TORSDOF 3
ENDMDL
