MODEL 1
REMARK VINA RESULT:      28.4      0.000      0.000
REMARK  5 active torsions:
REMARK  status: ('A' for Active; 'I' for Inactive)
REMARK    1  A    between atoms: N_4  and  C_2 
REMARK    2  A    between atoms: S_8  and  C_3 
REMARK    3  A    between atoms: C_10  and  S_8 
REMARK    4  A    between atoms: C_9  and  C_10 
REMARK    5  A    between atoms: C_12  and  C_9 
ROOT
ATOM      1  N   UNL d   1      13.263  13.018  -3.686  0.00  0.00    -0.203 NA
ATOM      2  C   UNL d   1      13.372  13.407  -4.413  0.00  0.00     0.152 A 
ATOM      3  C   UNL d   1      13.221  12.208  -3.667  0.00  0.00     0.196 A 
ATOM      4  C   UNL d   1      13.434  13.007  -5.085  0.00  0.00     0.057 A 
ATOM      5  N   UNL d   1      13.287  11.788  -4.373  0.00  0.00    -0.221 NA
ATOM      6  C   UNL d   1      13.395  12.177  -5.100  0.00  0.00     0.087 A 
ATOM      7  C   UNL d   1      13.465  11.782  -5.829  0.00  0.00     0.021 C 
ENDROOT
BRANCH   3   8
ATOM      8  S   UNL d   1      13.115  11.792  -2.971  0.00  0.00    -0.045 SA
BRANCH   8   9
ATOM      9  C   UNL d   1      13.719  11.801  -2.408  0.00  0.00     0.080 C 
BRANCH   9  10
ATOM     10  C   UNL d   1      13.563  11.887  -1.589  0.00  0.00     0.202 C 
ATOM     11  O   UNL d   1      12.816  11.779  -1.274  0.00  0.00    -0.286 OA
BRANCH  10  12
ATOM     12  C   UNL d   1      14.213  12.084  -1.137  0.00  0.00     0.040 A 
ATOM     13  C   UNL d   1      14.102  12.606  -0.471  0.00  0.00     0.003 A 
ATOM     14  C   UNL d   1      14.713  12.813  -0.017  0.00  0.00     0.000 A 
ATOM     15  C   UNL d   1      15.473  12.533  -0.174  0.00  0.00     0.000 A 
ATOM     16  C   UNL d   1      15.586  12.037  -0.806  0.00  0.00     0.000 A 
ATOM     17  C   UNL d   1      14.973  11.804  -1.294  0.00  0.00     0.003 A 
ENDBRANCH  10  12
ENDBRANCH   9  10
ENDBRANCH   8   9
ENDBRANCH   3   8
BRANCH   2  18
ATOM     18  N   UNL d   1      13.412  14.250  -4.406  0.00  0.00    -0.285 N 
ATOM     19  C   UNL d   1      12.774  14.684  -4.538  0.00  0.00     0.108 A 
ATOM     20  C   UNL d   1      12.795  15.523  -4.534  0.00  0.00     0.142 A 
ATOM     21  O   UNL d   1      13.549  15.872  -4.378  0.00  0.00    -0.300 OA
ATOM     22  C   UNL d   1      14.165  15.403  -4.251  0.00  0.00     0.142 A 
ATOM     23  C   UNL d   1      14.151  14.600  -4.253  0.00  0.00     0.108 A 
ENDBRANCH   2  18
TORSDOF 5
ENDMDL
