MODEL 1
REMARK VINA RESULT:      14.4      0.000      0.000
REMARK  2 active torsions:
REMARK  status: ('A' for Active; 'I' for Inactive)
REMARK    1  A    between atoms: S_2  and  N_1 
REMARK    2  A    between atoms: C_10  and  S_2 
ROOT
ATOM      1  S   UNL d   1     -51.483  25.340  33.384  0.00  0.00     0.273 S 
ATOM      2  O   UNL d   1     -52.065  25.919  33.306  0.00  0.00    -0.200 OA
ATOM      3  O   UNL d   1     -50.907  24.755  33.463  0.00  0.00    -0.200 OA
ENDROOT
BRANCH   1   4
ATOM      4  N   UNL d   1     -52.060  24.751  33.366  0.00  0.00    -0.207 N 
ATOM      5  C   UNL d   1     -52.839  25.025  33.365  0.00  0.00     0.148 A 
ATOM      6  N   UNL d   1     -53.542  24.582  33.349  0.00  0.00    -0.198 NA
ATOM      7  C   UNL d   1     -53.632  23.775  33.330  0.00  0.00     0.066 A 
ATOM      8  C   UNL d   1     -52.601  24.250  33.350  0.00  0.00     0.169 A 
ATOM      9  C   UNL d   1     -53.052  23.189  33.322  0.00  0.00     0.066 A 
ATOM     10  N   UNL d   1     -52.230  23.277  33.331  0.00  0.00    -0.198 NA
ATOM     11  C   UNL d   1     -51.793  23.972  33.350  0.00  0.00     0.148 A 
ENDBRANCH   1   4
BRANCH   1  12
ATOM     12  C   UNL d   1     -50.903  25.925  33.403  0.00  0.00     0.104 A 
ATOM     13  C   UNL d   1     -51.119  26.718  33.476  0.00  0.00     0.013 A 
ATOM     14  C   UNL d   1     -50.539  27.304  33.495  0.00  0.00     0.001 A 
ATOM     15  C   UNL d   1     -49.743  27.097  33.441  0.00  0.00     0.000 A 
ATOM     16  C   UNL d   1     -49.526  26.304  33.367  0.00  0.00     0.001 A 
ATOM     17  C   UNL d   1     -50.105  25.719  33.349  0.00  0.00     0.013 A 
ENDBRANCH   1  12
TORSDOF 2
ENDMDL
