MODEL 1
REMARK VINA RESULT:      19.1      0.000      0.000
REMARK  2 active torsions:
REMARK  status: ('A' for Active; 'I' for Inactive)
REMARK    1  A    between atoms: S_2  and  C_1 
REMARK    2  A    between atoms: N_3  and  S_2 
ROOT
ATOM      1  C   UNL d   1     -52.299  24.733  33.359  0.00  0.00     0.125 A 
ATOM      2  C   UNL d   1     -53.030  24.557  33.369  0.00  0.00    -0.009 A 
ATOM      3  C   UNL d   1     -53.158  24.934  33.342  0.00  0.00    -0.009 A 
ATOM      4  C   UNL d   1     -51.827  24.136  33.403  0.00  0.00     0.031 A 
ATOM      5  C   UNL d   1     -53.553  24.324  33.383  0.00  0.00    -0.007 A 
ATOM      6  C   UNL d   1     -53.523  23.770  33.421  0.00  0.00    -0.007 A 
ATOM      7  C   UNL d   1     -52.278  23.404  33.452  0.00  0.00     0.045 A 
ATOM      8  C   UNL d   1     -54.400  23.958  33.404  0.00  0.00    -0.001 A 
ATOM      9  C   UNL d   1     -53.066  23.191  33.464  0.00  0.00    -0.022 A 
ATOM     10  C   UNL d   1     -52.957  23.532  33.440  0.00  0.00    -0.022 A 
ENDROOT
BRANCH   1  11
ATOM     11  S   UNL d   1     -51.286  25.103  33.338  0.00  0.00     0.141 S 
ATOM     12  O   UNL d   1     -50.804  24.391  33.309  0.00  0.00    -0.233 OA
BRANCH  11  13
ATOM     13  N   UNL d   1     -50.908  25.884  33.343  0.00  0.00    -0.254 N 
ATOM     14  C   UNL d   1     -51.426  26.521  33.313  0.00  0.00     0.089 A 
ATOM     15  C   UNL d   1     -51.244  27.329  33.310  0.00  0.00     0.020 A 
ATOM     16  C   UNL d   1     -50.511  27.685  33.336  0.00  0.00     0.002 A 
ATOM     17  C   UNL d   1     -49.765  27.335  33.372  0.00  0.00     0.002 A 
ATOM     18  C   UNL d   1     -49.565  26.529  33.391  0.00  0.00     0.020 A 
ATOM     19  C   UNL d   1     -50.079  25.888  33.378  0.00  0.00     0.089 A 
ENDBRANCH  11  13
ENDBRANCH   1  11
TORSDOF 2
ENDMDL
MODEL 2
REMARK VINA RESULT:      21.0      0.561      3.698
REMARK  2 active torsions:
REMARK  status: ('A' for Active; 'I' for Inactive)
REMARK    1  A    between atoms: S_2  and  C_1 
REMARK    2  A    between atoms: N_3  and  S_2 
ROOT
ATOM      1  C   UNL d   1     -51.295  26.274  33.341  0.00  0.00     0.125 A 
ATOM      2  C   UNL d   1     -51.299  27.026  33.349  0.00  0.00    -0.009 A 
ATOM      3  C   UNL d   1     -51.696  27.059  33.358  0.00  0.00    -0.009 A 
ATOM      4  C   UNL d   1     -50.601  25.959  33.322  0.00  0.00     0.031 A 
ATOM      5  C   UNL d   1     -51.197  27.589  33.353  0.00  0.00    -0.007 A 
ATOM      6  C   UNL d   1     -50.652  27.694  33.342  0.00  0.00    -0.007 A 
ATOM      7  C   UNL d   1     -49.997  26.573  33.315  0.00  0.00     0.045 A 
ATOM      8  C   UNL d   1     -51.044  28.499  33.359  0.00  0.00    -0.001 A 
ATOM      9  C   UNL d   1     -49.978  27.389  33.324  0.00  0.00    -0.022 A 
ATOM     10  C   UNL d   1     -50.284  27.201  33.328  0.00  0.00    -0.022 A 
ENDROOT
BRANCH   1  11
ATOM     11  S   UNL d   1     -51.412  25.201  33.331  0.00  0.00     0.141 S 
ATOM     12  O   UNL d   1     -50.605  24.903  33.310  0.00  0.00    -0.233 OA
BRANCH  11  13
ATOM     13  N   UNL d   1     -52.080  24.648  33.340  0.00  0.00    -0.254 N 
ATOM     14  C   UNL d   1     -52.822  24.999  33.310  0.00  0.00     0.089 A 
ATOM     15  C   UNL d   1     -53.563  24.629  33.310  0.00  0.00     0.020 A 
ATOM     16  C   UNL d   1     -53.734  23.832  33.339  0.00  0.00     0.002 A 
ATOM     17  C   UNL d   1     -53.216  23.192  33.376  0.00  0.00     0.002 A 
ATOM     18  C   UNL d   1     -52.386  23.190  33.393  0.00  0.00     0.020 A 
ATOM     19  C   UNL d   1     -51.886  23.842  33.377  0.00  0.00     0.089 A 
ENDBRANCH  11  13
ENDBRANCH   1  11
TORSDOF 2
ENDMDL
