MODEL 1
REMARK VINA RESULT:      49.0      0.000      0.000
REMARK  5 active torsions:
REMARK  status: ('A' for Active; 'I' for Inactive)
REMARK    1  A    between atoms: C_6  and  S_1 
REMARK    2  A    between atoms: N_7  and  S_1 
REMARK    3  A    between atoms: C_15  and  N_7 
REMARK    4  A    between atoms: O_21  and  C_16 
REMARK    5  A    between atoms: C_22  and  O_21 
ROOT
ATOM      1  S   UNL d   1     -50.690  25.837  33.847  0.00  0.00     0.327 S 
ATOM      2  O   UNL d   1     -50.833  26.288  34.519  0.00  0.00    -0.186 OA
ATOM      3  O   UNL d   1     -50.102  26.061  33.319  0.00  0.00    -0.186 OA
ENDROOT
BRANCH   1   4
ATOM      4  C   UNL d   1     -51.135  25.163  33.702  0.00  0.00     0.118 A 
ATOM      5  C   UNL d   1     -51.951  25.186  33.785  0.00  0.00     0.035 A 
ATOM      6  C   UNL d   1     -52.403  24.508  33.640  0.00  0.00     0.105 A 
ATOM      7  N   UNL d   1     -53.215  24.363  33.676  0.00  0.00    -0.189 NA
ATOM      8  C   UNL d   1     -52.028  23.803  33.411  0.00  0.00     0.104 A 
ATOM      9  C   UNL d   1     -53.345  23.567  33.468  0.00  0.00     0.369 A 
ATOM     10  O   UNL d   1     -54.076  23.190  33.433  0.00  0.00    -0.242 OA
ATOM     11  N   UNL d   1     -52.610  23.228  33.306  0.00  0.00    -0.189 NA
ATOM     12  C   UNL d   1     -51.204  23.784  33.328  0.00  0.00     0.022 A 
ATOM     13  C   UNL d   1     -50.763  24.465  33.475  0.00  0.00     0.016 A 
ENDBRANCH   1   4
BRANCH   1  14
ATOM     14  N   UNL d   1     -50.241  26.510  33.984  0.00  0.00    -0.317 NA
BRANCH  14  15
ATOM     15  C   UNL d   1     -49.781  27.198  34.123  0.00  0.00     0.146 A 
ATOM     16  C   UNL d   1     -49.076  27.135  34.559  0.00  0.00     0.035 A 
ATOM     17  C   UNL d   1     -48.624  27.815  34.694  0.00  0.00     0.027 A 
ATOM     18  C   UNL d   1     -48.876  28.545  34.397  0.00  0.00     0.100 A 
ATOM     19  C   UNL d   1     -49.574  28.595  33.967  0.00  0.00     0.027 A 
ATOM     20  C   UNL d   1     -50.026  27.919  33.831  0.00  0.00     0.035 A 
BRANCH  18  21
ATOM     21  O   UNL d   1     -48.427  29.225  34.531  0.00  0.00    -0.305 OA
BRANCH  21  22
ATOM     22  C   UNL d   1     -47.847  29.230  35.099  0.00  0.00     0.123 C 
ATOM     23  C   UNL d   1     -47.685  29.922  35.517  0.00  0.00     0.029 C 
ENDBRANCH  21  22
ENDBRANCH  18  21
ENDBRANCH  14  15
ENDBRANCH   1  14
TORSDOF 5
ENDMDL
