MODEL 1
REMARK VINA RESULT:      -8.1      0.000      0.000
REMARK  5 active torsions:
REMARK  status: ('A' for Active; 'I' for Inactive)
REMARK    1  A    between atoms: N_7  and  C_1 
REMARK    2  A    between atoms: C_4  and  C_3 
REMARK       I    between atoms: C_8  and  N_7 
REMARK    3  A    between atoms: C_15  and  C_8 
REMARK    4  A    between atoms: O_20  and  C_15 
REMARK    5  A    between atoms: C_22  and  O_20 
ROOT
ATOM      1  C   UNL d   1     -46.909  13.607  22.660  0.00  0.00     0.204 A 
ATOM      2  S   UNL d   1     -47.672  13.434  22.407  0.00  0.00    -0.031 SA
ATOM      3  C   UNL d   1     -48.160  14.084  22.595  0.00  0.00     0.119 A 
ATOM      4  N   UNL d   1     -46.913  14.360  23.005  0.00  0.00    -0.123 NA
ATOM      5  N   UNL d   1     -47.689  14.639  22.956  0.00  0.00    -0.143 NA
ENDROOT
BRANCH   1   6
ATOM      6  N   UNL d   1     -46.219  13.155  22.610  0.00  0.00    -0.248 N 
ATOM      7  C   UNL d   1     -46.152  12.466  23.131  0.00  0.00     0.291 C 
ATOM      8  O   UNL d   1     -46.790  12.281  23.668  0.00  0.00    -0.264 OA
ATOM      9  C   UNL d   1     -45.625  13.351  22.091  0.00  0.00     0.104 C 
BRANCH   7  10
ATOM     10  C   UNL d   1     -45.473  11.995  23.103  0.00  0.00     0.184 C 
BRANCH  10  11
ATOM     11  O   UNL d   1     -45.467  11.272  23.526  0.00  0.00    -0.300 OA
BRANCH  11  12
ATOM     12  C   UNL d   1     -44.771  10.819  23.479  0.00  0.00     0.100 A 
ATOM     13  C   UNL d   1     -44.044  11.122  23.234  0.00  0.00     0.025 A 
ATOM     14  C   UNL d   1     -43.377  10.657  23.196  0.00  0.00     0.002 A 
ATOM     15  C   UNL d   1     -43.392   9.845  23.404  0.00  0.00     0.000 A 
ATOM     16  C   UNL d   1     -44.141   9.520  23.659  0.00  0.00     0.002 A 
ATOM     17  C   UNL d   1     -44.834  10.013  23.696  0.00  0.00     0.025 A 
ENDBRANCH  11  12
ENDBRANCH  10  11
ENDBRANCH   7  10
ENDBRANCH   1   6
BRANCH   3  18
ATOM     18  C   UNL d   1     -48.966  14.215  22.471  0.00  0.00     0.081 A 
ATOM     19  C   UNL d   1     -49.608  13.973  22.048  0.00  0.00    -0.017 A 
ATOM     20  C   UNL d   1     -50.296  14.329  22.172  0.00  0.00    -0.008 A 
ATOM     21  C   UNL d   1     -50.938  14.054  21.717  0.00  0.00    -0.001 A 
ATOM     22  C   UNL d   1     -50.211  14.902  22.738  0.00  0.00    -0.022 A 
ATOM     23  C   UNL d   1     -50.445  14.442  22.233  0.00  0.00    -0.008 A 
ATOM     24  C   UNL d   1     -49.720  14.168  22.196  0.00  0.00    -0.017 A 
ATOM     25  C   UNL d   1     -50.365  15.139  22.913  0.00  0.00    -0.022 A 
ATOM     26  C   UNL d   1     -49.609  15.228  23.228  0.00  0.00     0.045 A 
ATOM     27  C   UNL d   1     -48.933  14.806  23.038  0.00  0.00     0.023 A 
ENDBRANCH   3  18
TORSDOF 5
ENDMDL
MODEL 2
REMARK VINA RESULT:      -6.8      1.440      2.043
REMARK  5 active torsions:
REMARK  status: ('A' for Active; 'I' for Inactive)
REMARK    1  A    between atoms: N_7  and  C_1 
REMARK    2  A    between atoms: C_4  and  C_3 
REMARK       I    between atoms: C_8  and  N_7 
REMARK    3  A    between atoms: C_15  and  C_8 
REMARK    4  A    between atoms: O_20  and  C_15 
REMARK    5  A    between atoms: C_22  and  O_20 
ROOT
ATOM      1  C   UNL d   1     -47.772  13.078  23.064  0.00  0.00     0.204 A 
ATOM      2  S   UNL d   1     -48.108  13.827  23.103  0.00  0.00    -0.031 SA
ATOM      3  C   UNL d   1     -48.936  13.742  23.056  0.00  0.00     0.119 A 
ATOM      4  N   UNL d   1     -48.382  12.522  22.993  0.00  0.00    -0.123 NA
ATOM      5  N   UNL d   1     -49.091  12.947  22.990  0.00  0.00    -0.143 NA
ENDROOT
BRANCH   1   6
ATOM      6  N   UNL d   1     -46.978  12.851  23.087  0.00  0.00    -0.248 N 
ATOM      7  C   UNL d   1     -46.467  13.113  22.438  0.00  0.00     0.291 C 
ATOM      8  O   UNL d   1     -46.797  13.588  21.808  0.00  0.00    -0.264 OA
ATOM      9  C   UNL d   1     -46.687  12.399  23.696  0.00  0.00     0.104 C 
BRANCH   7  10
ATOM     10  C   UNL d   1     -45.668  12.902  22.433  0.00  0.00     0.184 C 
BRANCH  10  11
ATOM     11  O   UNL d   1     -45.225  13.022  21.733  0.00  0.00    -0.300 OA
BRANCH  11  12
ATOM     12  C   UNL d   1     -44.425  12.793  21.756  0.00  0.00     0.100 A 
ATOM     13  C   UNL d   1     -44.142  12.166  22.212  0.00  0.00     0.025 A 
ATOM     14  C   UNL d   1     -43.354  11.962  22.216  0.00  0.00     0.002 A 
ATOM     15  C   UNL d   1     -42.787  12.377  21.757  0.00  0.00     0.000 A 
ATOM     16  C   UNL d   1     -43.070  13.028  21.281  0.00  0.00     0.002 A 
ATOM     17  C   UNL d   1     -43.895  13.235  21.282  0.00  0.00     0.025 A 
ENDBRANCH  11  12
ENDBRANCH  10  11
ENDBRANCH   7  10
ENDBRANCH   1   6
BRANCH   3  18
ATOM     18  C   UNL d   1     -49.544  14.301  23.067  0.00  0.00     0.081 A 
ATOM     19  C   UNL d   1     -49.846  14.928  23.475  0.00  0.00    -0.017 A 
ATOM     20  C   UNL d   1     -50.493  15.278  23.203  0.00  0.00    -0.008 A 
ATOM     21  C   UNL d   1     -50.777  15.921  23.649  0.00  0.00    -0.001 A 
ATOM     22  C   UNL d   1     -50.738  14.911  22.524  0.00  0.00    -0.022 A 
ATOM     23  C   UNL d   1     -50.652  15.334  23.102  0.00  0.00    -0.008 A 
ATOM     24  C   UNL d   1     -50.023  14.914  23.273  0.00  0.00    -0.017 A 
ATOM     25  C   UNL d   1     -50.966  14.907  22.281  0.00  0.00    -0.022 A 
ATOM     26  C   UNL d   1     -50.507  14.272  22.027  0.00  0.00     0.045 A 
ATOM     27  C   UNL d   1     -49.834  13.966  22.377  0.00  0.00     0.023 A 
ENDBRANCH   3  18
TORSDOF 5
ENDMDL
MODEL 3
REMARK VINA RESULT:      -6.7      1.671      2.187
REMARK  5 active torsions:
REMARK  status: ('A' for Active; 'I' for Inactive)
REMARK    1  A    between atoms: N_7  and  C_1 
REMARK    2  A    between atoms: C_4  and  C_3 
REMARK       I    between atoms: C_8  and  N_7 
REMARK    3  A    between atoms: C_15  and  C_8 
REMARK    4  A    between atoms: O_20  and  C_15 
REMARK    5  A    between atoms: C_22  and  O_20 
ROOT
ATOM      1  C   UNL d   1     -47.342  13.747  22.789  0.00  0.00     0.204 A 
ATOM      2  S   UNL d   1     -47.902  13.172  22.969  0.00  0.00    -0.031 SA
ATOM      3  C   UNL d   1     -48.659  13.505  22.856  0.00  0.00     0.119 A 
ATOM      4  N   UNL d   1     -47.740  14.437  22.565  0.00  0.00    -0.123 NA
ATOM      5  N   UNL d   1     -48.548  14.272  22.611  0.00  0.00    -0.143 NA
ENDROOT
BRANCH   1   6
ATOM      6  N   UNL d   1     -46.517  13.707  22.809  0.00  0.00    -0.248 N 
ATOM      7  C   UNL d   1     -46.123  13.243  22.192  0.00  0.00     0.291 C 
ATOM      8  O   UNL d   1     -46.593  12.850  21.596  0.00  0.00    -0.264 OA
ATOM      9  C   UNL d   1     -46.091  14.089  23.386  0.00  0.00     0.104 C 
BRANCH   7  10
ATOM     10  C   UNL d   1     -45.299  13.185  22.186  0.00  0.00     0.184 C 
BRANCH  10  11
ATOM     11  O   UNL d   1     -44.923  12.868  21.508  0.00  0.00    -0.300 OA
BRANCH  11  12
ATOM     12  C   UNL d   1     -44.097  12.770  21.552  0.00  0.00     0.100 A 
ATOM     13  C   UNL d   1     -43.728  12.206  22.027  0.00  0.00     0.025 A 
ATOM     14  C   UNL d   1     -42.918  12.132  22.052  0.00  0.00     0.002 A 
ATOM     15  C   UNL d   1     -42.415  12.624  21.596  0.00  0.00     0.000 A 
ATOM     16  C   UNL d   1     -42.787  13.212  21.100  0.00  0.00     0.002 A 
ATOM     17  C   UNL d   1     -43.635  13.284  21.079  0.00  0.00     0.025 A 
ENDBRANCH  11  12
ENDBRANCH  10  11
ENDBRANCH   7  10
ENDBRANCH   1   6
BRANCH   3  18
ATOM     18  C   UNL d   1     -49.415  13.186  22.952  0.00  0.00     0.081 A 
ATOM     19  C   UNL d   1     -49.857  12.679  23.396  0.00  0.00    -0.017 A 
ATOM     20  C   UNL d   1     -50.615  12.585  23.219  0.00  0.00    -0.008 A 
ATOM     21  C   UNL d   1     -51.042  12.055  23.698  0.00  0.00    -0.001 A 
ATOM     22  C   UNL d   1     -50.807  13.049  22.582  0.00  0.00    -0.022 A 
ATOM     23  C   UNL d   1     -50.796  12.592  23.141  0.00  0.00    -0.008 A 
ATOM     24  C   UNL d   1     -50.044  12.763  23.222  0.00  0.00    -0.017 A 
ATOM     25  C   UNL d   1     -51.050  13.144  22.375  0.00  0.00    -0.022 A 
ATOM     26  C   UNL d   1     -50.438  13.597  22.060  0.00  0.00     0.045 A 
ATOM     27  C   UNL d   1     -49.660  13.636  22.312  0.00  0.00     0.023 A 
ENDBRANCH   3  18
TORSDOF 5
ENDMDL
MODEL 4
REMARK VINA RESULT:      -6.2      1.562      5.835
REMARK  5 active torsions:
REMARK  status: ('A' for Active; 'I' for Inactive)
REMARK    1  A    between atoms: N_7  and  C_1 
REMARK    2  A    between atoms: C_4  and  C_3 
REMARK       I    between atoms: C_8  and  N_7 
REMARK    3  A    between atoms: C_15  and  C_8 
REMARK    4  A    between atoms: O_20  and  C_15 
REMARK    5  A    between atoms: C_22  and  O_20 
ROOT
ATOM      1  C   UNL d   1     -46.641  12.779  23.020  0.00  0.00     0.204 A 
ATOM      2  S   UNL d   1     -46.096  13.052  22.469  0.00  0.00    -0.031 SA
ATOM      3  C   UNL d   1     -45.385  12.627  22.577  0.00  0.00     0.119 A 
ATOM      4  N   UNL d   1     -46.280  12.187  23.474  0.00  0.00    -0.123 NA
ATOM      5  N   UNL d   1     -45.510  12.107  23.189  0.00  0.00    -0.143 NA
ENDROOT
BRANCH   1   6
ATOM      6  N   UNL d   1     -47.424  13.011  23.151  0.00  0.00    -0.248 N 
ATOM      7  C   UNL d   1     -47.628  13.839  22.997  0.00  0.00     0.291 C 
ATOM      8  O   UNL d   1     -47.024  14.377  22.721  0.00  0.00    -0.264 OA
ATOM      9  C   UNL d   1     -47.981  12.481  23.415  0.00  0.00     0.104 C 
BRANCH   7  10
ATOM     10  C   UNL d   1     -48.403  14.099  23.119  0.00  0.00     0.184 C 
BRANCH  10  11
ATOM     11  O   UNL d   1     -48.641  14.825  22.775  0.00  0.00    -0.300 OA
BRANCH  11  12
ATOM     12  C   UNL d   1     -49.434  15.050  22.894  0.00  0.00     0.100 A 
ATOM     13  C   UNL d   1     -50.056  14.805  22.411  0.00  0.00     0.025 A 
ATOM     14  C   UNL d   1     -50.823  15.039  22.549  0.00  0.00     0.002 A 
ATOM     15  C   UNL d   1     -51.022  15.543  23.189  0.00  0.00     0.000 A 
ATOM     16  C   UNL d   1     -50.385  15.803  23.696  0.00  0.00     0.002 A 
ATOM     17  C   UNL d   1     -49.586  15.554  23.546  0.00  0.00     0.025 A 
ENDBRANCH  11  12
ENDBRANCH  10  11
ENDBRANCH   7  10
ENDBRANCH   1   6
BRANCH   3  18
ATOM     18  C   UNL d   1     -44.660  12.669  22.184  0.00  0.00     0.081 A 
ATOM     19  C   UNL d   1     -44.241  13.079  21.631  0.00  0.00    -0.017 A 
ATOM     20  C   UNL d   1     -43.510  12.849  21.465  0.00  0.00    -0.008 A 
ATOM     21  C   UNL d   1     -43.106  13.295  20.890  0.00  0.00    -0.001 A 
ATOM     22  C   UNL d   1     -43.317  12.203  21.915  0.00  0.00    -0.022 A 
ATOM     23  C   UNL d   1     -43.335  12.759  21.455  0.00  0.00    -0.008 A 
ATOM     24  C   UNL d   1     -44.059  12.893  21.699  0.00  0.00    -0.017 A 
ATOM     25  C   UNL d   1     -43.081  11.979  21.987  0.00  0.00    -0.022 A 
ATOM     26  C   UNL d   1     -43.665  11.710  22.502  0.00  0.00     0.045 A 
ATOM     27  C   UNL d   1     -44.416  12.015  22.615  0.00  0.00     0.023 A 
ENDBRANCH   3  18
TORSDOF 5
ENDMDL
MODEL 5
REMARK VINA RESULT:      -5.3      3.236      4.251
REMARK  5 active torsions:
REMARK  status: ('A' for Active; 'I' for Inactive)
REMARK    1  A    between atoms: N_7  and  C_1 
REMARK    2  A    between atoms: C_4  and  C_3 
REMARK       I    between atoms: C_8  and  N_7 
REMARK    3  A    between atoms: C_15  and  C_8 
REMARK    4  A    between atoms: O_20  and  C_15 
REMARK    5  A    between atoms: C_22  and  O_20 
ROOT
ATOM      1  C   UNL d   1     -44.180  12.818  21.935  0.00  0.00     0.204 A 
ATOM      2  S   UNL d   1     -44.841  13.298  21.844  0.00  0.00    -0.031 SA
ATOM      3  C   UNL d   1     -45.413  13.059  22.403  0.00  0.00     0.119 A 
ATOM      4  N   UNL d   1     -44.331  12.279  22.545  0.00  0.00    -0.123 NA
ATOM      5  N   UNL d   1     -45.092  12.440  22.822  0.00  0.00    -0.143 NA
ENDROOT
BRANCH   1   6
ATOM      6  N   UNL d   1     -43.463  12.820  21.524  0.00  0.00    -0.248 N 
ATOM      7  C   UNL d   1     -43.055  13.580  21.434  0.00  0.00     0.291 C 
ATOM      8  O   UNL d   1     -43.402  14.286  21.767  0.00  0.00    -0.264 OA
ATOM      9  C   UNL d   1     -43.152  12.136  21.216  0.00  0.00     0.104 C 
BRANCH   7  10
ATOM     10  C   UNL d   1     -42.336  13.613  21.028  0.00  0.00     0.184 C 
BRANCH  10  11
ATOM     11  O   UNL d   1     -41.886  14.319  21.065  0.00  0.00    -0.300 OA
BRANCH  11  12
ATOM     12  C   UNL d   1     -41.162  14.320  20.654  0.00  0.00     0.100 A 
ATOM     13  C   UNL d   1     -41.104  14.344  19.831  0.00  0.00     0.025 A 
ATOM     14  C   UNL d   1     -40.383  14.345  19.453  0.00  0.00     0.002 A 
ATOM     15  C   UNL d   1     -39.661  14.321  19.878  0.00  0.00     0.000 A 
ATOM     16  C   UNL d   1     -39.710  14.296  20.731  0.00  0.00     0.002 A 
ATOM     17  C   UNL d   1     -40.467  14.296  21.120  0.00  0.00     0.025 A 
ENDBRANCH  11  12
ENDBRANCH  10  11
ENDBRANCH   7  10
ENDBRANCH   1   6
BRANCH   3  18
ATOM     18  C   UNL d   1     -46.172  13.341  22.561  0.00  0.00     0.081 A 
ATOM     19  C   UNL d   1     -46.641  13.998  22.547  0.00  0.00    -0.017 A 
ATOM     20  C   UNL d   1     -47.386  13.934  22.781  0.00  0.00    -0.008 A 
ATOM     21  C   UNL d   1     -47.840  14.631  22.753  0.00  0.00    -0.001 A 
ATOM     22  C   UNL d   1     -47.540  13.169  23.002  0.00  0.00    -0.022 A 
ATOM     23  C   UNL d   1     -47.562  13.874  22.846  0.00  0.00    -0.008 A 
ATOM     24  C   UNL d   1     -46.816  13.817  22.640  0.00  0.00    -0.017 A 
ATOM     25  C   UNL d   1     -47.770  12.958  23.118  0.00  0.00    -0.022 A 
ATOM     26  C   UNL d   1     -47.141  12.430  23.055  0.00  0.00     0.045 A 
ATOM     27  C   UNL d   1     -46.380  12.583  22.796  0.00  0.00     0.023 A 
ENDBRANCH   3  18
TORSDOF 5
ENDMDL
