MODEL 1
REMARK VINA RESULT:      -1.1      0.000      0.000
REMARK  3 active torsions:
REMARK  status: ('A' for Active; 'I' for Inactive)
REMARK    1  A    between atoms: C_17  and  N_4 
REMARK    2  A    between atoms: C_11  and  C_5 
REMARK       I    between atoms: N_13  and  C_11 
REMARK    3  A    between atoms: C_21  and  N_13 
ROOT
ATOM      1  C   UNL d   1      59.134  -1.179  29.961  0.00  0.00     0.155 A 
ATOM      2  C   UNL d   1      58.434  -1.589  30.102  0.00  0.00     0.091 A 
ATOM      3  N   UNL d   1      59.728  -1.537  29.511  0.00  0.00    -0.210 NA
ATOM      4  N   UNL d   1      59.233  -0.435  30.261  0.00  0.00    -0.275 N 
ATOM      5  C   UNL d   1      57.947  -0.485  30.849  0.00  0.00     0.094 A 
ATOM      6  C   UNL d   1      58.642  -0.078  30.709  0.00  0.00     0.175 A 
ATOM      7  N   UNL d   1      58.924  -2.707  29.347  0.00  0.00    -0.258 N 
ATOM      8  C   UNL d   1      59.633  -2.291  29.204  0.00  0.00     0.152 A 
ATOM      9  C   UNL d   1      58.324  -2.360  29.794  0.00  0.00     0.269 A 
ATOM     10  C   UNL d   1      57.835  -1.241  30.549  0.00  0.00     0.016 A 
ATOM     11  C   UNL d   1      60.222  -2.637  28.762  0.00  0.00     0.035 A 
ATOM     12  N   UNL d   1      58.745   0.682  31.014  0.00  0.00    -0.128 N 
ATOM     13  C   UNL d   1      58.818  -3.460  29.045  0.00  0.00     0.084 A 
ATOM     14  O   UNL d   1      57.625  -2.759  29.939  0.00  0.00    -0.266 OA
ATOM     15  C   UNL d   1      59.419  -3.807  28.598  0.00  0.00     0.019 A 
ATOM     16  C   UNL d   1      60.128  -3.392  28.455  0.00  0.00     0.005 A 
ATOM     17  C   UNL d   1      60.924  -2.226  28.621  0.00  0.00     0.003 C 
ENDROOT
BRANCH   5  18
ATOM     18  C   UNL d   1      57.351  -0.136  31.295  0.00  0.00     0.282 C 
ATOM     19  N   UNL d   1      57.152  -0.436  32.042  0.00  0.00    -0.208 NA
ATOM     20  O   UNL d   1      56.940   0.528  30.995  0.00  0.00    -0.265 OA
BRANCH  19  21
ATOM     21  C   UNL d   1      56.553  -0.079  32.482  0.00  0.00     0.085 A 
ATOM     22  C   UNL d   1      56.669   0.402  33.136  0.00  0.00     0.019 A 
ATOM     23  C   UNL d   1      55.917   0.636  33.400  0.00  0.00     0.002 A 
ATOM     24  C   UNL d   1      55.350   0.296  32.905  0.00  0.00     0.002 A 
ATOM     25  C   UNL d   1      55.740  -0.143  32.341  0.00  0.00     0.019 A 
ENDBRANCH  19  21
ENDBRANCH   5  18
BRANCH   4  26
ATOM     26  C   UNL d   1      59.935  -0.024  30.120  0.00  0.00     0.067 A 
ATOM     27  C   UNL d   1      60.536   0.100  30.672  0.00  0.00     0.018 A 
ATOM     28  C   UNL d   1      61.126   0.532  30.299  0.00  0.00     0.002 A 
ATOM     29  C   UNL d   1      60.898   0.682  29.510  0.00  0.00     0.002 A 
ATOM     30  C   UNL d   1      60.158   0.333  29.408  0.00  0.00     0.018 A 
ENDBRANCH   4  26
TORSDOF 3
ENDMDL
