MODEL 1
REMARK VINA RESULT:       0.6      0.000      0.000
REMARK  4 active torsions:
REMARK  status: ('A' for Active; 'I' for Inactive)
REMARK    1  A    between atoms: C_8  and  C_1 
REMARK    2  A    between atoms: C_4  and  C_2 
REMARK    3  A    between atoms: O_16  and  C_8 
REMARK    4  A    between atoms: C_21  and  O_16 
ROOT
ATOM      1  C   UNL d   1     -41.588-121.829 -51.527  0.00  0.00     0.099 A 
ATOM      2  C   UNL d   1     -41.522-121.647 -52.329  0.00  0.00     0.096 A 
ATOM      3  C   UNL d   1     -41.498-121.223 -50.956  0.00  0.00     0.093 A 
ATOM      4  C   UNL d   1     -41.280-120.273 -51.998  0.00  0.00     0.369 A 
ATOM      5  N   UNL d   1     -41.343-120.445 -51.197  0.00  0.00    -0.191 NA
ATOM      6  N   UNL d   1     -41.369-120.872 -52.562  0.00  0.00    -0.191 NA
ATOM      7  O   UNL d   1     -41.126-119.496 -52.239  0.00  0.00    -0.242 OA
ATOM      8  C   UNL d   1     -41.561-121.392 -50.157  0.00  0.00     0.021 C 
ENDROOT
BRANCH   2   9
ATOM      9  C   UNL d   1     -41.610-122.239 -52.886  0.00  0.00     0.057 A 
ATOM     10  C   UNL d   1     -41.949-122.076 -53.620  0.00  0.00     0.005 A 
ATOM     11  C   UNL d   1     -42.038-122.675 -54.183  0.00  0.00     0.000 A 
ATOM     12  C   UNL d   1     -42.201-121.303 -53.786  0.00  0.00     0.000 A 
ATOM     13  C   UNL d   1     -42.379-122.503 -54.917  0.00  0.00     0.000 A 
ATOM     14  C   UNL d   1     -41.788-123.439 -54.016  0.00  0.00     0.003 A 
ATOM     15  C   UNL d   1     -42.630-121.737 -55.086  0.00  0.00     0.000 A 
ATOM     16  C   UNL d   1     -42.541-121.138 -54.522  0.00  0.00     0.000 A 
ATOM     17  C   UNL d   1     -41.447-123.611 -53.283  0.00  0.00     0.042 A 
ATOM     18  C   UNL d   1     -41.354-122.988 -52.697  0.00  0.00     0.197 A 
ATOM     19  O   UNL d   1     -41.124-123.816 -52.614  0.00  0.00    -0.286 OA
ENDBRANCH   2   9
BRANCH   1  20
ATOM     20  C   UNL d   1     -41.741-122.605 -51.300  0.00  0.00     0.303 C 
ATOM     21  O   UNL d   1     -41.144-123.166 -51.324  0.00  0.00    -0.259 OA
BRANCH  20  22
ATOM     22  O   UNL d   1     -42.500-122.807 -51.048  0.00  0.00    -0.271 OA
BRANCH  22  23
ATOM     23  C   UNL d   1     -42.586-123.387 -50.473  0.00  0.00     0.126 C 
ATOM     24  C   UNL d   1     -43.212-123.356 -49.945  0.00  0.00     0.029 C 
ENDBRANCH  22  23
ENDBRANCH  20  22
ENDBRANCH   1  20
TORSDOF 4
ENDMDL
