MODEL 1
REMARK VINA RESULT:      -3.5      0.000      0.000
REMARK  4 active torsions:
REMARK  status: ('A' for Active; 'I' for Inactive)
REMARK    1  A    between atoms: C_6  and  C_1 
REMARK    2  A    between atoms: C_7  and  C_4 
REMARK       I    between atoms: N_9  and  C_6 
REMARK    3  A    between atoms: C_23  and  N_9 
REMARK    4  A    between atoms: C_11  and  C_23 
ROOT
ATOM      1  C   UNL d   1      32.964  19.656 -22.177  0.00  0.00     0.168 A 
ATOM      2  N   UNL d   1      33.241  19.452 -21.439  0.00  0.00    -0.121 NA
ATOM      3  C   UNL d   1      32.787  20.468 -22.166  0.00  0.00     0.053 A 
ATOM      4  C   UNL d   1      32.960  20.748 -21.417  0.00  0.00     0.127 A 
ATOM      5  O   UNL d   1      33.240  20.116 -20.971  0.00  0.00    -0.211 OA
ENDROOT
BRANCH   1   6
ATOM      6  C   UNL d   1      32.766  18.713 -23.477  0.00  0.00     0.299 C 
ATOM      7  N   UNL d   1      32.135  18.131 -23.469  0.00  0.00    -0.203 NA
ATOM      8  O   UNL d   1      33.240  18.765 -24.142  0.00  0.00    -0.263 OA
BRANCH   7   9
ATOM      9  C   UNL d   1      32.013  17.619 -24.152  0.00  0.00     0.127 C 
BRANCH   9  10
ATOM     10  C   UNL d   1      31.417  16.998 -24.130  0.00  0.00     0.119 A 
ATOM     11  O   UNL d   1      31.274  16.452 -23.488  0.00  0.00    -0.304 OA
ATOM     12  C   UNL d   1      30.633  15.941 -23.714  0.00  0.00     0.123 A 
ATOM     13  C   UNL d   1      30.370  16.171 -24.513  0.00  0.00     0.029 A 
ATOM     14  C   UNL d   1      30.864  16.833 -24.767  0.00  0.00     0.028 A 
ENDBRANCH   9  10
ENDBRANCH   7   9
ENDBRANCH   1   6
BRANCH   4  15
ATOM     15  C   UNL d   1      32.882  21.498 -21.133  0.00  0.00     0.027 A 
ATOM     16  C   UNL d   1      32.814  21.629 -20.327  0.00  0.00     0.028 A 
ATOM     17  C   UNL d   1      32.736  22.384 -20.049  0.00  0.00     0.119 A 
ATOM     18  O   UNL d   1      32.659  22.676 -19.291  0.00  0.00    -0.300 OA
ATOM     19  C   UNL d   1      32.723  23.023 -20.552  0.00  0.00     0.119 A 
ATOM     20  C   UNL d   1      32.600  23.483 -19.331  0.00  0.00     0.304 A 
ATOM     21  O   UNL d   1      32.640  23.702 -20.112  0.00  0.00    -0.300 OA
ATOM     22  C   UNL d   1      32.791  22.900 -21.365  0.00  0.00     0.026 A 
ATOM     23  C   UNL d   1      32.869  22.150 -21.644  0.00  0.00     0.004 A 
ENDBRANCH   4  15
TORSDOF 4
ENDMDL
MODEL 2
REMARK VINA RESULT:      -2.6      1.256      5.963
REMARK  4 active torsions:
REMARK  status: ('A' for Active; 'I' for Inactive)
REMARK    1  A    between atoms: C_6  and  C_1 
REMARK    2  A    between atoms: C_7  and  C_4 
REMARK       I    between atoms: N_9  and  C_6 
REMARK    3  A    between atoms: C_23  and  N_9 
REMARK    4  A    between atoms: C_11  and  C_23 
ROOT
ATOM      1  C   UNL d   1      33.038  19.822 -23.793  0.00  0.00     0.168 A 
ATOM      2  N   UNL d   1      33.241  19.595 -24.549  0.00  0.00    -0.121 NA
ATOM      3  C   UNL d   1      32.772  19.146 -23.389  0.00  0.00     0.053 A 
ATOM      4  C   UNL d   1      32.817  18.514 -23.906  0.00  0.00     0.127 A 
ATOM      5  O   UNL d   1      33.107  18.797 -24.623  0.00  0.00    -0.211 OA
ENDROOT
BRANCH   1   6
ATOM      6  C   UNL d   1      33.112  21.294 -23.128  0.00  0.00     0.299 C 
ATOM      7  N   UNL d   1      33.178  21.357 -22.275  0.00  0.00    -0.203 NA
ATOM      8  O   UNL d   1      33.088  21.985 -23.569  0.00  0.00    -0.263 OA
BRANCH   7   9
ATOM      9  C   UNL d   1      33.219  22.133 -21.902  0.00  0.00     0.127 C 
BRANCH   9  10
ATOM     10  C   UNL d   1      33.162  22.208 -21.045  0.00  0.00     0.119 A 
ATOM     11  O   UNL d   1      33.241  21.578 -20.473  0.00  0.00    -0.304 OA
ATOM     12  C   UNL d   1      33.143  21.912 -19.698  0.00  0.00     0.123 A 
ATOM     13  C   UNL d   1      33.000  22.768 -19.786  0.00  0.00     0.029 A 
ATOM     14  C   UNL d   1      33.013  22.947 -20.631  0.00  0.00     0.028 A 
ENDBRANCH   9  10
ENDBRANCH   7   9
ENDBRANCH   1   6
BRANCH   4  15
ATOM     15  C   UNL d   1      32.621  17.744 -23.774  0.00  0.00     0.027 A 
ATOM     16  C   UNL d   1      31.833  17.520 -23.736  0.00  0.00     0.028 A 
ATOM     17  C   UNL d   1      31.644  16.746 -23.602  0.00  0.00     0.119 A 
ATOM     18  O   UNL d   1      30.923  16.369 -23.538  0.00  0.00    -0.300 OA
ATOM     19  C   UNL d   1      32.218  16.178 -23.504  0.00  0.00     0.119 A 
ATOM     20  C   UNL d   1      31.055  15.580 -23.402  0.00  0.00     0.304 A 
ATOM     21  O   UNL d   1      31.858  15.459 -23.380  0.00  0.00    -0.300 OA
ATOM     22  C   UNL d   1      33.012  16.396 -23.541  0.00  0.00     0.026 A 
ATOM     23  C   UNL d   1      33.205  17.164 -23.673  0.00  0.00     0.004 A 
ENDBRANCH   4  15
TORSDOF 4
ENDMDL
MODEL 3
REMARK VINA RESULT:      -2.2      1.483      6.062
REMARK  4 active torsions:
REMARK  status: ('A' for Active; 'I' for Inactive)
REMARK    1  A    between atoms: C_6  and  C_1 
REMARK    2  A    between atoms: C_7  and  C_4 
REMARK       I    between atoms: N_9  and  C_6 
REMARK    3  A    between atoms: C_23  and  N_9 
REMARK    4  A    between atoms: C_11  and  C_23 
ROOT
ATOM      1  C   UNL d   1      32.834  20.958 -22.374  0.00  0.00     0.168 A 
ATOM      2  N   UNL d   1      33.160  20.958 -23.120  0.00  0.00    -0.121 NA
ATOM      3  C   UNL d   1      32.710  20.167 -22.152  0.00  0.00     0.053 A 
ATOM      4  C   UNL d   1      32.964  19.694 -22.769  0.00  0.00     0.127 A 
ATOM      5  O   UNL d   1      33.241  20.188 -23.367  0.00  0.00    -0.211 OA
ENDROOT
BRANCH   1   6
ATOM      6  C   UNL d   1      32.466  22.222 -21.434  0.00  0.00     0.299 C 
ATOM      7  N   UNL d   1      32.872  22.306 -20.682  0.00  0.00    -0.203 NA
ATOM      8  O   UNL d   1      31.910  22.786 -21.642  0.00  0.00    -0.263 OA
BRANCH   7   9
ATOM      9  C   UNL d   1      32.690  22.973 -20.167  0.00  0.00     0.127 C 
BRANCH   9  10
ATOM     10  C   UNL d   1      32.892  22.944 -19.330  0.00  0.00     0.119 A 
ATOM     11  O   UNL d   1      33.071  22.244 -18.874  0.00  0.00    -0.304 OA
ATOM     12  C   UNL d   1      33.236  22.485 -18.075  0.00  0.00     0.123 A 
ATOM     13  C   UNL d   1      33.157  23.352 -18.030  0.00  0.00     0.029 A 
ATOM     14  C   UNL d   1      32.942  23.634 -18.818  0.00  0.00     0.028 A 
ENDBRANCH   9  10
ENDBRANCH   7   9
ENDBRANCH   1   6
BRANCH   4  15
ATOM     15  C   UNL d   1      32.958  18.890 -22.819  0.00  0.00     0.027 A 
ATOM     16  C   UNL d   1      32.691  18.520 -23.500  0.00  0.00     0.028 A 
ATOM     17  C   UNL d   1      32.688  17.714 -23.542  0.00  0.00     0.119 A 
ATOM     18  O   UNL d   1      32.458  17.205 -24.137  0.00  0.00    -0.300 OA
ATOM     19  C   UNL d   1      32.945  17.254 -22.922  0.00  0.00     0.119 A 
ATOM     20  C   UNL d   1      32.573  16.443 -23.883  0.00  0.00     0.304 A 
ATOM     21  O   UNL d   1      32.875  16.470 -23.130  0.00  0.00    -0.300 OA
ATOM     22  C   UNL d   1      33.215  17.618 -22.234  0.00  0.00     0.026 A 
ATOM     23  C   UNL d   1      33.219  18.420 -22.188  0.00  0.00     0.004 A 
ENDBRANCH   4  15
TORSDOF 4
ENDMDL
MODEL 4
REMARK VINA RESULT:      -2.0      1.248      1.547
REMARK  4 active torsions:
REMARK  status: ('A' for Active; 'I' for Inactive)
REMARK    1  A    between atoms: C_6  and  C_1 
REMARK    2  A    between atoms: C_7  and  C_4 
REMARK       I    between atoms: N_9  and  C_6 
REMARK    3  A    between atoms: C_23  and  N_9 
REMARK    4  A    between atoms: C_11  and  C_23 
ROOT
ATOM      1  C   UNL d   1      32.443  20.729 -21.798  0.00  0.00     0.168 A 
ATOM      2  N   UNL d   1      31.738  20.657 -21.396  0.00  0.00    -0.121 NA
ATOM      3  C   UNL d   1      32.899  21.303 -21.407  0.00  0.00     0.053 A 
ATOM      4  C   UNL d   1      32.464  21.573 -20.769  0.00  0.00     0.127 A 
ATOM      5  O   UNL d   1      31.746  21.171 -20.767  0.00  0.00    -0.211 OA
ENDROOT
BRANCH   1   6
ATOM      6  C   UNL d   1      32.937  19.938 -23.119  0.00  0.00     0.299 C 
ATOM      7  N   UNL d   1      32.878  19.082 -23.131  0.00  0.00    -0.203 NA
ATOM      8  O   UNL d   1      33.241  20.317 -23.779  0.00  0.00    -0.263 OA
BRANCH   7   9
ATOM      9  C   UNL d   1      33.136  18.642 -23.826  0.00  0.00     0.127 C 
BRANCH   9  10
ATOM     10  C   UNL d   1      32.873  17.831 -23.951  0.00  0.00     0.119 A 
ATOM     11  O   UNL d   1      32.691  17.256 -23.344  0.00  0.00    -0.304 OA
ATOM     12  C   UNL d   1      32.456  16.534 -23.727  0.00  0.00     0.123 A 
ATOM     13  C   UNL d   1      32.492  16.659 -24.590  0.00  0.00     0.029 A 
ATOM     14  C   UNL d   1      32.753  17.472 -24.723  0.00  0.00     0.028 A 
ENDBRANCH   9  10
ENDBRANCH   7   9
ENDBRANCH   1   6
BRANCH   4  15
ATOM     15  C   UNL d   1      32.668  22.130 -20.224  0.00  0.00     0.027 A 
ATOM     16  C   UNL d   1      32.592  21.970 -19.423  0.00  0.00     0.028 A 
ATOM     17  C   UNL d   1      32.799  22.533 -18.882  0.00  0.00     0.119 A 
ATOM     18  O   UNL d   1      32.783  22.530 -18.066  0.00  0.00    -0.300 OA
ATOM     19  C   UNL d   1      33.083  23.260 -19.111  0.00  0.00     0.119 A 
ATOM     20  C   UNL d   1      33.054  23.247 -17.800  0.00  0.00     0.304 A 
ATOM     21  O   UNL d   1      33.241  23.702 -18.447  0.00  0.00    -0.300 OA
ATOM     22  C   UNL d   1      33.162  23.429 -19.914  0.00  0.00     0.026 A 
ATOM     23  C   UNL d   1      32.958  22.871 -20.456  0.00  0.00     0.004 A 
ENDBRANCH   4  15
TORSDOF 4
ENDMDL
MODEL 5
REMARK VINA RESULT:      -1.9      1.534      1.825
REMARK  4 active torsions:
REMARK  status: ('A' for Active; 'I' for Inactive)
REMARK    1  A    between atoms: C_6  and  C_1 
REMARK    2  A    between atoms: C_7  and  C_4 
REMARK       I    between atoms: N_9  and  C_6 
REMARK    3  A    between atoms: C_23  and  N_9 
REMARK    4  A    between atoms: C_11  and  C_23 
ROOT
ATOM      1  C   UNL d   1      33.229  21.297 -23.459  0.00  0.00     0.168 A 
ATOM      2  N   UNL d   1      33.241  22.057 -23.751  0.00  0.00    -0.121 NA
ATOM      3  C   UNL d   1      33.218  21.344 -22.630  0.00  0.00     0.053 A 
ATOM      4  C   UNL d   1      33.223  22.137 -22.427  0.00  0.00     0.127 A 
ATOM      5  O   UNL d   1      33.237  22.574 -23.124  0.00  0.00    -0.211 OA
ENDROOT
BRANCH   1   6
ATOM      6  C   UNL d   1      33.227  19.902 -24.279  0.00  0.00     0.299 C 
ATOM      7  N   UNL d   1      33.212  19.167 -23.837  0.00  0.00    -0.203 NA
ATOM      8  O   UNL d   1      33.239  19.865 -25.097  0.00  0.00    -0.263 OA
BRANCH   7   9
ATOM      9  C   UNL d   1      33.210  18.413 -24.255  0.00  0.00     0.127 C 
BRANCH   9  10
ATOM     10  C   UNL d   1      33.122  17.674 -23.821  0.00  0.00     0.119 A 
ATOM     11  O   UNL d   1      33.200  17.568 -22.976  0.00  0.00    -0.304 OA
ATOM     12  C   UNL d   1      33.066  16.746 -22.801  0.00  0.00     0.123 A 
ATOM     13  C   UNL d   1      32.901  16.331 -23.549  0.00  0.00     0.029 A 
ATOM     14  C   UNL d   1      32.937  16.917 -24.184  0.00  0.00     0.028 A 
ENDBRANCH   9  10
ENDBRANCH   7   9
ENDBRANCH   1   6
BRANCH   4  15
ATOM     15  C   UNL d   1      33.216  22.465 -21.691  0.00  0.00     0.027 A 
ATOM     16  C   UNL d   1      33.232  21.986 -21.026  0.00  0.00     0.028 A 
ATOM     17  C   UNL d   1      33.225  22.322 -20.291  0.00  0.00     0.119 A 
ATOM     18  O   UNL d   1      33.238  21.991 -19.546  0.00  0.00    -0.300 OA
ATOM     19  C   UNL d   1      33.201  23.129 -20.193  0.00  0.00     0.119 A 
ATOM     20  C   UNL d   1      33.222  22.589 -18.998  0.00  0.00     0.304 A 
ATOM     21  O   UNL d   1      33.199  23.297 -19.397  0.00  0.00    -0.300 OA
ATOM     22  C   UNL d   1      33.184  23.618 -20.857  0.00  0.00     0.026 A 
ATOM     23  C   UNL d   1      33.191  23.287 -21.589  0.00  0.00     0.004 A 
ENDBRANCH   4  15
TORSDOF 4
ENDMDL
