MODEL 1
REMARK VINA RESULT:      -6.0      0.000      0.000
REMARK  5 active torsions:
REMARK  status: ('A' for Active; 'I' for Inactive)
REMARK    1  A    between atoms: S_6  and  C_2 
REMARK    2  A    between atoms: C_16  and  S_6 
REMARK    3  A    between atoms: C_8  and  C_16 
REMARK       I    between atoms: N_13  and  C_8 
REMARK    4  A    between atoms: C_19  and  N_13 
REMARK    5  A    between atoms: C_18  and  C_19 
ROOT
ATOM      1  C   UNL d   1     -43.738  12.900  21.690  0.00  0.00     0.286 C 
ATOM      2  N   UNL d   1     -43.200  13.447  21.406  0.00  0.00    -0.206 NA
ATOM      3  O   UNL d   1     -43.497  12.128  21.847  0.00  0.00    -0.265 OA
ENDROOT
BRANCH   1   4
ATOM      4  C   UNL d   1     -44.525  13.114  21.822  0.00  0.00     0.098 C 
BRANCH   4   5
ATOM      5  S   UNL d   1     -44.977  12.707  22.382  0.00  0.00    -0.080 SA
BRANCH   5   6
ATOM      6  C   UNL d   1     -45.738  12.968  22.554  0.00  0.00     0.049 A 
ATOM      7  C   UNL d   1     -46.059  13.708  22.363  0.00  0.00     0.087 A 
ATOM      8  N   UNL d   1     -46.837  13.734  22.641  0.00  0.00    -0.302 N 
ATOM      9  C   UNL d   1     -46.996  13.008  23.005  0.00  0.00     0.065 A 
ATOM     10  C   UNL d   1     -47.364  14.362  22.573  0.00  0.00     0.100 C 
ATOM     11  C   UNL d   1     -46.317  12.538  22.950  0.00  0.00     0.024 A 
ATOM     12  C   UNL d   1     -47.678  12.716  23.381  0.00  0.00     0.018 A 
ATOM     13  C   UNL d   1     -46.318  11.775  23.271  0.00  0.00     0.002 A 
ATOM     14  C   UNL d   1     -46.994  11.488  23.643  0.00  0.00     0.000 A 
ATOM     15  C   UNL d   1     -47.674  11.958  23.698  0.00  0.00     0.002 A 
ENDBRANCH   5   6
ENDBRANCH   4   5
ENDBRANCH   1   4
BRANCH   2  16
ATOM     16  C   UNL d   1     -42.423  13.231  21.278  0.00  0.00     0.102 C 
BRANCH  16  17
ATOM     17  C   UNL d   1     -41.874  13.739  20.942  0.00  0.00     0.021 A 
ATOM     18  C   UNL d   1     -41.700  13.662  20.137  0.00  0.00     0.028 A 
ATOM     19  C   UNL d   1     -41.139  14.178  19.788  0.00  0.00     0.119 A 
ATOM     20  O   UNL d   1     -40.852  14.247  19.035  0.00  0.00    -0.300 OA
ATOM     21  C   UNL d   1     -40.776  14.748  20.257  0.00  0.00     0.119 A 
ATOM     22  C   UNL d   1     -40.308  14.856  19.016  0.00  0.00     0.304 A 
ATOM     23  O   UNL d   1     -40.257  15.173  19.776  0.00  0.00    -0.300 OA
ATOM     24  C   UNL d   1     -40.963  14.812  21.065  0.00  0.00     0.026 A 
ATOM     25  C   UNL d   1     -41.513  14.300  21.393  0.00  0.00     0.004 A 
ENDBRANCH  16  17
ENDBRANCH   2  16
TORSDOF 5
ENDMDL
MODEL 2
REMARK VINA RESULT:      -5.9      5.238      6.207
REMARK  5 active torsions:
REMARK  status: ('A' for Active; 'I' for Inactive)
REMARK    1  A    between atoms: S_6  and  C_2 
REMARK    2  A    between atoms: C_16  and  S_6 
REMARK    3  A    between atoms: C_8  and  C_16 
REMARK       I    between atoms: N_13  and  C_8 
REMARK    4  A    between atoms: C_19  and  N_13 
REMARK    5  A    between atoms: C_18  and  C_19 
ROOT
ATOM      1  C   UNL d   1     -40.469  14.504  19.571  0.00  0.00     0.286 C 
ATOM      2  N   UNL d   1     -40.061  14.785  18.919  0.00  0.00    -0.206 NA
ATOM      3  O   UNL d   1     -41.089  13.972  19.471  0.00  0.00    -0.265 OA
ENDROOT
BRANCH   1   4
ATOM      4  C   UNL d   1     -40.263  14.750  20.332  0.00  0.00     0.098 C 
BRANCH   4   5
ATOM      5  S   UNL d   1     -39.943  14.209  20.869  0.00  0.00    -0.080 SA
BRANCH   5   6
ATOM      6  C   UNL d   1     -39.563  14.487  21.545  0.00  0.00     0.049 A 
ATOM      7  C   UNL d   1     -39.650  15.238  21.884  0.00  0.00     0.087 A 
ATOM      8  N   UNL d   1     -39.167  15.279  22.553  0.00  0.00    -0.302 N 
ATOM      9  C   UNL d   1     -38.781  14.551  22.628  0.00  0.00     0.065 A 
ATOM     10  C   UNL d   1     -39.080  15.922  23.059  0.00  0.00     0.100 C 
ATOM     11  C   UNL d   1     -39.027  14.064  22.004  0.00  0.00     0.024 A 
ATOM     12  C   UNL d   1     -38.234  14.269  23.187  0.00  0.00     0.018 A 
ATOM     13  C   UNL d   1     -38.727  13.295  21.940  0.00  0.00     0.002 A 
ATOM     14  C   UNL d   1     -38.186  13.019  22.495  0.00  0.00     0.000 A 
ATOM     15  C   UNL d   1     -37.940  13.505  23.118  0.00  0.00     0.002 A 
ENDBRANCH   5   6
ENDBRANCH   4   5
ENDBRANCH   1   4
BRANCH   2  16
ATOM     16  C   UNL d   1     -40.267  14.540  18.168  0.00  0.00     0.102 C 
BRANCH  16  17
ATOM     17  C   UNL d   1     -39.785  14.663  17.516  0.00  0.00     0.021 A 
ATOM     18  C   UNL d   1     -39.345  14.028  17.220  0.00  0.00     0.028 A 
ATOM     19  C   UNL d   1     -38.851  14.147  16.554  0.00  0.00     0.119 A 
ATOM     20  O   UNL d   1     -38.361  13.654  16.140  0.00  0.00    -0.300 OA
ATOM     21  C   UNL d   1     -38.817  14.895  16.211  0.00  0.00     0.119 A 
ATOM     22  C   UNL d   1     -38.013  14.077  15.534  0.00  0.00     0.304 A 
ATOM     23  O   UNL d   1     -38.294  14.852  15.574  0.00  0.00    -0.300 OA
ATOM     24  C   UNL d   1     -39.267  15.522  16.521  0.00  0.00     0.026 A 
ATOM     25  C   UNL d   1     -39.746  15.390  17.173  0.00  0.00     0.004 A 
ENDBRANCH  16  17
ENDBRANCH   2  16
TORSDOF 5
ENDMDL
MODEL 3
REMARK VINA RESULT:      -5.6      1.581      6.127
REMARK  5 active torsions:
REMARK  status: ('A' for Active; 'I' for Inactive)
REMARK    1  A    between atoms: S_6  and  C_2 
REMARK    2  A    between atoms: C_16  and  S_6 
REMARK    3  A    between atoms: C_8  and  C_16 
REMARK       I    between atoms: N_13  and  C_8 
REMARK    4  A    between atoms: C_19  and  N_13 
REMARK    5  A    between atoms: C_18  and  C_19 
ROOT
ATOM      1  C   UNL d   1     -43.090  13.123  21.411  0.00  0.00     0.286 C 
ATOM      2  N   UNL d   1     -43.800  13.328  21.760  0.00  0.00    -0.206 NA
ATOM      3  O   UNL d   1     -42.989  12.369  21.095  0.00  0.00    -0.265 OA
ENDROOT
BRANCH   1   4
ATOM      4  C   UNL d   1     -42.469  13.666  21.371  0.00  0.00     0.098 C 
BRANCH   4   5
ATOM      5  S   UNL d   1     -41.946  13.651  20.731  0.00  0.00    -0.080 SA
BRANCH   5   6
ATOM      6  C   UNL d   1     -41.365  14.231  20.669  0.00  0.00     0.049 A 
ATOM      7  C   UNL d   1     -41.123  14.750  21.268  0.00  0.00     0.087 A 
ATOM      8  N   UNL d   1     -40.529  15.238  20.966  0.00  0.00    -0.302 N 
ATOM      9  C   UNL d   1     -40.404  15.020  20.178  0.00  0.00     0.065 A 
ATOM     10  C   UNL d   1     -40.129  15.835  21.368  0.00  0.00     0.100 C 
ATOM     11  C   UNL d   1     -40.921  14.398  19.997  0.00  0.00     0.024 A 
ATOM     12  C   UNL d   1     -39.882  15.310  19.600  0.00  0.00     0.018 A 
ATOM     13  C   UNL d   1     -40.916  14.067  19.239  0.00  0.00     0.002 A 
ATOM     14  C   UNL d   1     -40.398  14.356  18.668  0.00  0.00     0.000 A 
ATOM     15  C   UNL d   1     -39.881  14.977  18.849  0.00  0.00     0.002 A 
ENDBRANCH   5   6
ENDBRANCH   4   5
ENDBRANCH   1   4
BRANCH   2  16
ATOM     16  C   UNL d   1     -44.412  12.788  21.797  0.00  0.00     0.102 C 
BRANCH  16  17
ATOM     17  C   UNL d   1     -45.116  12.945  22.187  0.00  0.00     0.021 A 
ATOM     18  C   UNL d   1     -45.489  12.333  22.599  0.00  0.00     0.028 A 
ATOM     19  C   UNL d   1     -46.209  12.487  22.999  0.00  0.00     0.119 A 
ATOM     20  O   UNL d   1     -46.700  12.021  23.442  0.00  0.00    -0.300 OA
ATOM     21  C   UNL d   1     -46.527  13.246  22.971  0.00  0.00     0.119 A 
ATOM     22  C   UNL d   1     -47.331  12.473  23.698  0.00  0.00     0.304 A 
ATOM     23  O   UNL d   1     -47.228  13.238  23.407  0.00  0.00    -0.300 OA
ATOM     24  C   UNL d   1     -46.139  13.850  22.551  0.00  0.00     0.026 A 
ATOM     25  C   UNL d   1     -45.435  13.684  22.165  0.00  0.00     0.004 A 
ENDBRANCH  16  17
ENDBRANCH   2  16
TORSDOF 5
ENDMDL
MODEL 4
REMARK VINA RESULT:      -5.5      2.936      4.216
REMARK  5 active torsions:
REMARK  status: ('A' for Active; 'I' for Inactive)
REMARK    1  A    between atoms: S_6  and  C_2 
REMARK    2  A    between atoms: C_16  and  S_6 
REMARK    3  A    between atoms: C_8  and  C_16 
REMARK       I    between atoms: N_13  and  C_8 
REMARK    4  A    between atoms: C_19  and  N_13 
REMARK    5  A    between atoms: C_18  and  C_19 
ROOT
ATOM      1  C   UNL d   1     -47.056  14.231  22.672  0.00  0.00     0.286 C 
ATOM      2  N   UNL d   1     -46.564  13.583  22.586  0.00  0.00    -0.206 NA
ATOM      3  O   UNL d   1     -46.768  14.989  22.531  0.00  0.00    -0.265 OA
ENDROOT
BRANCH   1   4
ATOM      4  C   UNL d   1     -47.843  14.132  22.902  0.00  0.00     0.098 C 
BRANCH   4   5
ATOM      5  S   UNL d   1     -48.320  13.576  22.518  0.00  0.00    -0.080 SA
BRANCH   5   6
ATOM      6  C   UNL d   1     -49.138  13.627  22.589  0.00  0.00     0.049 A 
ATOM      7  C   UNL d   1     -49.612  14.267  22.361  0.00  0.00     0.087 A 
ATOM      8  N   UNL d   1     -50.399  14.083  22.532  0.00  0.00    -0.302 N 
ATOM      9  C   UNL d   1     -50.411  13.326  22.866  0.00  0.00     0.065 A 
ATOM     10  C   UNL d   1     -51.057  14.558  22.398  0.00  0.00     0.100 C 
ATOM     11  C   UNL d   1     -49.632  13.047  22.900  0.00  0.00     0.024 A 
ATOM     12  C   UNL d   1     -51.036  12.854  23.144  0.00  0.00     0.018 A 
ATOM     13  C   UNL d   1     -49.477  12.296  23.212  0.00  0.00     0.002 A 
ATOM     14  C   UNL d   1     -50.098  11.831  23.488  0.00  0.00     0.000 A 
ATOM     15  C   UNL d   1     -50.877  12.110  23.453  0.00  0.00     0.002 A 
ENDBRANCH   5   6
ENDBRANCH   4   5
ENDBRANCH   1   4
BRANCH   2  16
ATOM     16  C   UNL d   1     -45.786  13.685  22.358  0.00  0.00     0.102 C 
BRANCH  16  17
ATOM     17  C   UNL d   1     -45.235  13.078  22.387  0.00  0.00     0.021 A 
ATOM     18  C   UNL d   1     -45.357  12.454  22.915  0.00  0.00     0.028 A 
ATOM     19  C   UNL d   1     -44.798  11.831  22.950  0.00  0.00     0.119 A 
ATOM     20  O   UNL d   1     -44.755  11.156  23.394  0.00  0.00    -0.300 OA
ATOM     21  C   UNL d   1     -44.140  11.858  22.455  0.00  0.00     0.119 A 
ATOM     22  C   UNL d   1     -44.077  10.750  23.190  0.00  0.00     0.304 A 
ATOM     23  O   UNL d   1     -43.689  11.183  22.604  0.00  0.00    -0.300 OA
ATOM     24  C   UNL d   1     -44.033  12.493  21.930  0.00  0.00     0.026 A 
ATOM     25  C   UNL d   1     -44.589  13.095  21.907  0.00  0.00     0.004 A 
ENDBRANCH  16  17
ENDBRANCH   2  16
TORSDOF 5
ENDMDL
MODEL 5
REMARK VINA RESULT:      -4.4      5.510      7.029
REMARK  5 active torsions:
REMARK  status: ('A' for Active; 'I' for Inactive)
REMARK    1  A    between atoms: S_6  and  C_2 
REMARK    2  A    between atoms: C_16  and  S_6 
REMARK    3  A    between atoms: C_8  and  C_16 
REMARK       I    between atoms: N_13  and  C_8 
REMARK    4  A    between atoms: C_19  and  N_13 
REMARK    5  A    between atoms: C_18  and  C_19 
ROOT
ATOM      1  C   UNL d   1     -38.605  13.542  18.345  0.00  0.00     0.286 C 
ATOM      2  N   UNL d   1     -38.446  13.875  17.614  0.00  0.00    -0.206 NA
ATOM      3  O   UNL d   1     -38.432  12.748  18.482  0.00  0.00    -0.265 OA
ENDROOT
BRANCH   1   4
ATOM      4  C   UNL d   1     -38.940  13.995  18.949  0.00  0.00     0.098 C 
BRANCH   4   5
ATOM      5  S   UNL d   1     -38.842  13.769  19.739  0.00  0.00    -0.080 SA
BRANCH   5   6
ATOM      6  C   UNL d   1     -39.113  14.265  20.337  0.00  0.00     0.049 A 
ATOM      7  C   UNL d   1     -39.699  14.847  20.267  0.00  0.00     0.087 A 
ATOM      8  N   UNL d   1     -39.795  15.210  21.002  0.00  0.00    -0.302 N 
ATOM      9  C   UNL d   1     -39.266  14.852  21.529  0.00  0.00     0.065 A 
ATOM     10  C   UNL d   1     -40.318  15.818  21.187  0.00  0.00     0.100 C 
ATOM     11  C   UNL d   1     -38.847  14.269  21.116  0.00  0.00     0.024 A 
ATOM     12  C   UNL d   1     -39.114  14.984  22.335  0.00  0.00     0.018 A 
ATOM     13  C   UNL d   1     -38.275  13.818  21.509  0.00  0.00     0.002 A 
ATOM     14  C   UNL d   1     -38.126  13.951  22.308  0.00  0.00     0.000 A 
ATOM     15  C   UNL d   1     -38.546  14.534  22.720  0.00  0.00     0.002 A 
ENDBRANCH   5   6
ENDBRANCH   4   5
ENDBRANCH   1   4
BRANCH   2  16
ATOM     16  C   UNL d   1     -38.115  13.424  17.020  0.00  0.00     0.102 C 
BRANCH  16  17
ATOM     17  C   UNL d   1     -38.069  13.682  16.243  0.00  0.00     0.021 A 
ATOM     18  C   UNL d   1     -38.078  13.122  15.635  0.00  0.00     0.028 A 
ATOM     19  C   UNL d   1     -38.031  13.379  14.840  0.00  0.00     0.119 A 
ATOM     20  O   UNL d   1     -38.026  12.982  14.134  0.00  0.00    -0.300 OA
ATOM     21  C   UNL d   1     -37.978  14.186  14.684  0.00  0.00     0.119 A 
ATOM     22  C   UNL d   1     -37.970  13.526  13.527  0.00  0.00     0.304 A 
ATOM     23  O   UNL d   1     -37.940  14.279  13.864  0.00  0.00    -0.300 OA
ATOM     24  C   UNL d   1     -37.970  14.736  15.307  0.00  0.00     0.026 A 
ATOM     25  C   UNL d   1     -38.017  14.469  16.081  0.00  0.00     0.004 A 
ENDBRANCH  16  17
ENDBRANCH   2  16
TORSDOF 5
ENDMDL
MODEL 6
REMARK VINA RESULT:      -4.3      1.711      2.499
REMARK  5 active torsions:
REMARK  status: ('A' for Active; 'I' for Inactive)
REMARK    1  A    between atoms: S_6  and  C_2 
REMARK    2  A    between atoms: C_16  and  S_6 
REMARK    3  A    between atoms: C_8  and  C_16 
REMARK       I    between atoms: N_13  and  C_8 
REMARK    4  A    between atoms: C_19  and  N_13 
REMARK    5  A    between atoms: C_18  and  C_19 
ROOT
ATOM      1  C   UNL d   1     -45.753  13.095  22.535  0.00  0.00     0.286 C 
ATOM      2  N   UNL d   1     -45.096  13.215  22.062  0.00  0.00    -0.206 NA
ATOM      3  O   UNL d   1     -45.732  12.528  23.132  0.00  0.00    -0.265 OA
ENDROOT
BRANCH   1   4
ATOM      4  C   UNL d   1     -46.440  13.539  22.420  0.00  0.00     0.098 C 
BRANCH   4   5
ATOM      5  S   UNL d   1     -47.180  13.171  22.449  0.00  0.00    -0.080 SA
BRANCH   5   6
ATOM      6  C   UNL d   1     -47.862  13.629  22.394  0.00  0.00     0.049 A 
ATOM      7  C   UNL d   1     -47.948  14.414  22.646  0.00  0.00     0.087 A 
ATOM      8  N   UNL d   1     -48.721  14.655  22.485  0.00  0.00    -0.302 N 
ATOM      9  C   UNL d   1     -49.114  14.017  22.132  0.00  0.00     0.065 A 
ATOM     10  C   UNL d   1     -49.050  15.393  22.642  0.00  0.00     0.100 C 
ATOM     11  C   UNL d   1     -48.581  13.385  22.078  0.00  0.00     0.024 A 
ATOM     12  C   UNL d   1     -49.892  13.932  21.854  0.00  0.00     0.018 A 
ATOM     13  C   UNL d   1     -48.826  12.669  21.745  0.00  0.00     0.002 A 
ATOM     14  C   UNL d   1     -49.598  12.587  21.469  0.00  0.00     0.000 A 
ATOM     15  C   UNL d   1     -50.131  13.219  21.524  0.00  0.00     0.002 A 
ENDBRANCH   5   6
ENDBRANCH   4   5
ENDBRANCH   1   4
BRANCH   2  16
ATOM     16  C   UNL d   1     -44.419  12.774  22.179  0.00  0.00     0.102 C 
BRANCH  16  17
ATOM     17  C   UNL d   1     -43.712  12.941  21.797  0.00  0.00     0.021 A 
ATOM     18  C   UNL d   1     -43.477  13.730  21.721  0.00  0.00     0.028 A 
ATOM     19  C   UNL d   1     -42.757  13.908  21.332  0.00  0.00     0.119 A 
ATOM     20  O   UNL d   1     -42.378  14.605  21.170  0.00  0.00    -0.300 OA
ATOM     21  C   UNL d   1     -42.301  13.290  21.036  0.00  0.00     0.119 A 
ATOM     22  C   UNL d   1     -41.684  14.440  20.772  0.00  0.00     0.304 A 
ATOM     23  O   UNL d   1     -41.631  13.621  20.686  0.00  0.00    -0.300 OA
ATOM     24  C   UNL d   1     -42.552  12.502  21.121  0.00  0.00     0.026 A 
ATOM     25  C   UNL d   1     -43.259  12.344  21.504  0.00  0.00     0.004 A 
ENDBRANCH  16  17
ENDBRANCH   2  16
TORSDOF 5
ENDMDL
MODEL 7
REMARK VINA RESULT:      -4.0      3.020      6.575
REMARK  5 active torsions:
REMARK  status: ('A' for Active; 'I' for Inactive)
REMARK    1  A    between atoms: S_6  and  C_2 
REMARK    2  A    between atoms: C_16  and  S_6 
REMARK    3  A    between atoms: C_8  and  C_16 
REMARK       I    between atoms: N_13  and  C_8 
REMARK    4  A    between atoms: C_19  and  N_13 
REMARK    5  A    between atoms: C_18  and  C_19 
ROOT
ATOM      1  C   UNL d   1     -47.294  13.009  22.131  0.00  0.00     0.286 C 
ATOM      2  N   UNL d   1     -47.935  13.282  22.561  0.00  0.00    -0.206 NA
ATOM      3  O   UNL d   1     -47.288  13.080  21.310  0.00  0.00    -0.265 OA
ENDROOT
BRANCH   1   4
ATOM      4  C   UNL d   1     -46.649  12.662  22.513  0.00  0.00     0.098 C 
BRANCH   4   5
ATOM      5  S   UNL d   1     -45.882  12.922  22.349  0.00  0.00    -0.080 SA
BRANCH   5   6
ATOM      6  C   UNL d   1     -45.245  12.420  22.493  0.00  0.00     0.049 A 
ATOM      7  C   UNL d   1     -45.250  11.746  22.974  0.00  0.00     0.087 A 
ATOM      8  N   UNL d   1     -44.496  11.410  22.960  0.00  0.00    -0.302 N 
ATOM      9  C   UNL d   1     -44.023  11.879  22.468  0.00  0.00     0.065 A 
ATOM     10  C   UNL d   1     -44.249  10.733  23.359  0.00  0.00     0.100 C 
ATOM     11  C   UNL d   1     -44.488  12.501  22.182  0.00  0.00     0.024 A 
ATOM     12  C   UNL d   1     -43.225  11.817  22.245  0.00  0.00     0.018 A 
ATOM     13  C   UNL d   1     -44.156  13.062  21.672  0.00  0.00     0.002 A 
ATOM     14  C   UNL d   1     -43.364  12.998  21.452  0.00  0.00     0.000 A 
ATOM     15  C   UNL d   1     -42.899  12.375  21.739  0.00  0.00     0.002 A 
ENDBRANCH   5   6
ENDBRANCH   4   5
ENDBRANCH   1   4
BRANCH   2  16
ATOM     16  C   UNL d   1     -48.570  13.625  22.179  0.00  0.00     0.102 C 
BRANCH  16  17
ATOM     17  C   UNL d   1     -49.201  13.958  22.583  0.00  0.00     0.021 A 
ATOM     18  C   UNL d   1     -49.417  14.738  22.412  0.00  0.00     0.028 A 
ATOM     19  C   UNL d   1     -50.060  15.084  22.822  0.00  0.00     0.119 A 
ATOM     20  O   UNL d   1     -50.403  15.816  22.785  0.00  0.00    -0.300 OA
ATOM     21  C   UNL d   1     -50.460  14.638  23.386  0.00  0.00     0.119 A 
ATOM     22  C   UNL d   1     -51.020  15.844  23.320  0.00  0.00     0.304 A 
ATOM     23  O   UNL d   1     -51.060  15.112  23.697  0.00  0.00    -0.300 OA
ATOM     24  C   UNL d   1     -50.230  13.855  23.546  0.00  0.00     0.026 A 
ATOM     25  C   UNL d   1     -49.599  13.530  23.137  0.00  0.00     0.004 A 
ENDBRANCH  16  17
ENDBRANCH   2  16
TORSDOF 5
ENDMDL
MODEL 8
REMARK VINA RESULT:      -4.0      6.280      6.663
REMARK  5 active torsions:
REMARK  status: ('A' for Active; 'I' for Inactive)
REMARK    1  A    between atoms: S_6  and  C_2 
REMARK    2  A    between atoms: C_16  and  S_6 
REMARK    3  A    between atoms: C_8  and  C_16 
REMARK       I    between atoms: N_13  and  C_8 
REMARK    4  A    between atoms: C_19  and  N_13 
REMARK    5  A    between atoms: C_18  and  C_19 
ROOT
ATOM      1  C   UNL d   1     -38.811  14.139  19.341  0.00  0.00     0.286 C 
ATOM      2  N   UNL d   1     -38.814  14.570  18.645  0.00  0.00    -0.206 NA
ATOM      3  O   UNL d   1     -39.124  13.377  19.355  0.00  0.00    -0.265 OA
ENDROOT
BRANCH   1   4
ATOM      4  C   UNL d   1     -38.495  14.461  20.033  0.00  0.00     0.098 C 
BRANCH   4   5
ATOM      5  S   UNL d   1     -38.341  13.974  20.683  0.00  0.00    -0.080 SA
BRANCH   5   6
ATOM      6  C   UNL d   1     -38.273  14.309  21.432  0.00  0.00     0.049 A 
ATOM      7  C   UNL d   1     -38.289  15.117  21.612  0.00  0.00     0.087 A 
ATOM      8  N   UNL d   1     -38.203  15.204  22.429  0.00  0.00    -0.302 N 
ATOM      9  C   UNL d   1     -38.134  14.446  22.755  0.00  0.00     0.065 A 
ATOM     10  C   UNL d   1     -38.188  15.910  22.851  0.00  0.00     0.100 C 
ATOM     11  C   UNL d   1     -38.178  13.895  22.137  0.00  0.00     0.024 A 
ATOM     12  C   UNL d   1     -38.036  14.187  23.539  0.00  0.00     0.018 A 
ATOM     13  C   UNL d   1     -38.124  13.087  22.303  0.00  0.00     0.002 A 
ATOM     14  C   UNL d   1     -38.027  12.833  23.080  0.00  0.00     0.000 A 
ATOM     15  C   UNL d   1     -37.984  13.383  23.698  0.00  0.00     0.002 A 
ENDBRANCH   5   6
ENDBRANCH   4   5
ENDBRANCH   1   4
BRANCH   2  16
ATOM     16  C   UNL d   1     -39.127  14.248  17.963  0.00  0.00     0.102 C 
BRANCH  16  17
ATOM     17  C   UNL d   1     -39.608  14.675  17.454  0.00  0.00     0.021 A 
ATOM     18  C   UNL d   1     -40.410  14.754  17.636  0.00  0.00     0.028 A 
ATOM     19  C   UNL d   1     -40.906  15.189  17.120  0.00  0.00     0.119 A 
ATOM     20  O   UNL d   1     -41.696  15.366  17.138  0.00  0.00    -0.300 OA
ATOM     21  C   UNL d   1     -40.581  15.526  16.443  0.00  0.00     0.119 A 
ATOM     22  C   UNL d   1     -41.880  15.813  16.480  0.00  0.00     0.304 A 
ATOM     23  O   UNL d   1     -41.188  15.916  16.043  0.00  0.00    -0.300 OA
ATOM     24  C   UNL d   1     -39.771  15.436  16.275  0.00  0.00     0.026 A 
ATOM     25  C   UNL d   1     -39.298  15.008  16.790  0.00  0.00     0.004 A 
ENDBRANCH  16  17
ENDBRANCH   2  16
TORSDOF 5
ENDMDL
