MODEL 1
REMARK VINA RESULT:      -6.0      0.000      0.000
REMARK  3 active torsions:
REMARK  status: ('A' for Active; 'I' for Inactive)
REMARK       I    between atoms: C_2  and  N_1 
REMARK    1  A    between atoms: C_4  and  C_2 
REMARK    2  A    between atoms: C_6  and  C_4 
REMARK    3  A    between atoms: C_10  and  C_6 
ROOT
ATOM      1  N   UNL d   1     -41.491-122.807 -52.874  0.00  0.00    -0.273 N 
ATOM      2  C   UNL d   1     -41.642-122.366 -52.203  0.00  0.00     0.265 C 
ATOM      3  C   UNL d   1     -41.617-122.564 -53.643  0.00  0.00     0.067 A 
ATOM      4  C   UNL d   1     -41.185-123.571 -52.889  0.00  0.00     0.083 A 
ATOM      5  C   UNL d   1     -41.390-123.178 -54.145  0.00  0.00     0.018 A 
ATOM      6  O   UNL d   1     -41.950-121.605 -52.268  0.00  0.00    -0.267 OA
ATOM      7  C   UNL d   1     -41.123-123.802 -53.683  0.00  0.00     0.021 A 
ATOM      8  C   UNL d   1     -41.912-121.859 -53.962  0.00  0.00     0.018 A 
ATOM      9  C   UNL d   1     -41.457-123.089 -54.966  0.00  0.00     0.002 A 
ATOM     10  C   UNL d   1     -41.977-121.774 -54.778  0.00  0.00     0.002 A 
ATOM     11  C   UNL d   1     -41.750-122.388 -55.284  0.00  0.00     0.000 A 
ENDROOT
BRANCH   2  12
ATOM     12  C   UNL d   1     -41.488-122.681 -51.457  0.00  0.00     0.061 C 
BRANCH  12  13
ATOM     13  C   UNL d   1     -41.744-122.290 -50.779  0.00  0.00     0.005 C 
BRANCH  13  14
ATOM     14  C   UNL d   1     -41.790-122.699 -50.069  0.00  0.00     0.002 A 
ATOM     15  C   UNL d   1     -42.502-122.724 -49.653  0.00  0.00     0.030 A 
ATOM     16  C   UNL d   1     -42.553-123.135 -48.936  0.00  0.00     0.140 A 
ATOM     17  F   UNL d   1     -43.262-123.159 -48.523  0.00  0.00    -0.204 F 
ATOM     18  C   UNL d   1     -41.885-123.522 -48.635  0.00  0.00     0.030 A 
ATOM     19  C   UNL d   1     -41.172-123.496 -49.055  0.00  0.00     0.002 A 
ATOM     20  C   UNL d   1     -41.123-123.086 -49.769  0.00  0.00     0.000 A 
ENDBRANCH  13  14
ENDBRANCH  12  13
ENDBRANCH   2  12
TORSDOF 3
ENDMDL
MODEL 2
REMARK VINA RESULT:      -5.1      1.782      4.720
REMARK  3 active torsions:
REMARK  status: ('A' for Active; 'I' for Inactive)
REMARK       I    between atoms: C_2  and  N_1 
REMARK    1  A    between atoms: C_4  and  C_2 
REMARK    2  A    between atoms: C_6  and  C_4 
REMARK    3  A    between atoms: C_10  and  C_6 
ROOT
ATOM      1  N   UNL d   1     -42.214-122.976 -50.255  0.00  0.00    -0.273 N 
ATOM      2  C   UNL d   1     -41.693-123.263 -50.815  0.00  0.00     0.265 C 
ATOM      3  C   UNL d   1     -42.232-123.189 -49.466  0.00  0.00     0.067 A 
ATOM      4  C   UNL d   1     -42.808-122.423 -50.388  0.00  0.00     0.083 A 
ATOM      5  C   UNL d   1     -42.840-122.769 -49.101  0.00  0.00     0.018 A 
ATOM      6  O   UNL d   1     -41.122-123.817 -50.605  0.00  0.00    -0.267 OA
ATOM      7  C   UNL d   1     -43.199-122.294 -49.668  0.00  0.00     0.021 A 
ATOM      8  C   UNL d   1     -41.771-123.716 -49.023  0.00  0.00     0.018 A 
ATOM      9  C   UNL d   1     -42.990-122.874 -48.294  0.00  0.00     0.002 A 
ATOM     10  C   UNL d   1     -41.924-123.817 -48.221  0.00  0.00     0.002 A 
ATOM     11  C   UNL d   1     -42.533-123.397 -47.852  0.00  0.00     0.000 A 
ENDROOT
BRANCH   2  12
ATOM     12  C   UNL d   1     -41.737-122.998 -51.594  0.00  0.00     0.061 C 
BRANCH  12  13
ATOM     13  C   UNL d   1     -41.125-123.153 -52.122  0.00  0.00     0.005 C 
BRANCH  13  14
ATOM     14  C   UNL d   1     -41.262-123.102 -52.929  0.00  0.00     0.002 A 
ATOM     15  C   UNL d   1     -41.459-122.377 -53.270  0.00  0.00     0.030 A 
ATOM     16  C   UNL d   1     -41.599-122.322 -54.085  0.00  0.00     0.140 A 
ATOM     17  F   UNL d   1     -41.794-121.599 -54.422  0.00  0.00    -0.204 F 
ATOM     18  C   UNL d   1     -41.540-122.998 -54.559  0.00  0.00     0.030 A 
ATOM     19  C   UNL d   1     -41.343-123.725 -54.215  0.00  0.00     0.002 A 
ATOM     20  C   UNL d   1     -41.204-123.779 -53.403  0.00  0.00     0.000 A 
ENDBRANCH  13  14
ENDBRANCH  12  13
ENDBRANCH   2  12
TORSDOF 3
ENDMDL
