MODEL 1
REMARK VINA RESULT:      -4.7      0.000      0.000
REMARK  3 active torsions:
REMARK  status: ('A' for Active; 'I' for Inactive)
REMARK    1  A    between atoms: C_6  and  C_1 
REMARK    2  A    between atoms: C_5  and  N_2 
REMARK    3  A    between atoms: N_4  and  C_6 
ROOT
ATOM      1  N   UNL d   1      57.211   0.041  31.604  0.00  0.00    -0.299 N 
ATOM      2  N   UNL d   1      57.915  -0.277  30.194  0.00  0.00    -0.300 N 
ATOM      3  C   UNL d   1      57.409  -0.722  31.417  0.00  0.00     0.100 A 
ATOM      4  C   UNL d   1      57.364   0.661  31.082  0.00  0.00     0.100 A 
ATOM      5  C   UNL d   1      57.761  -0.882  30.712  0.00  0.00     0.100 A 
ATOM      6  C   UNL d   1      57.717   0.502  30.377  0.00  0.00     0.100 A 
ENDROOT
BRANCH   2   7
ATOM      7  C   UNL d   1      58.284  -0.428  29.452  0.00  0.00     0.084 C 
BRANCH   7   8
ATOM      8  C   UNL d   1      59.101  -0.637  29.400  0.00  0.00     0.057 A 
ATOM      9  C   UNL d   1      59.277  -1.382  29.162  0.00  0.00     0.004 A 
ATOM     10  C   UNL d   1      60.109  -1.605  29.106  0.00  0.00     0.000 A 
ATOM     11  C   UNL d   1      58.693  -1.933  28.972  0.00  0.00     0.000 A 
ATOM     12  C   UNL d   1      60.303  -2.367  28.863  0.00  0.00     0.000 A 
ATOM     13  C   UNL d   1      60.678  -1.068  29.290  0.00  0.00     0.003 A 
ATOM     14  C   UNL d   1      59.687  -2.887  28.683  0.00  0.00     0.000 A 
ATOM     15  C   UNL d   1      58.938  -2.709  28.726  0.00  0.00     0.000 A 
ATOM     16  C   UNL d   1      60.445  -0.280  29.541  0.00  0.00     0.042 A 
ATOM     17  C   UNL d   1      59.697  -0.103  29.584  0.00  0.00     0.197 A 
ATOM     18  O   UNL d   1      59.496   0.682  29.835  0.00  0.00    -0.286 OA
ENDBRANCH   7   8
ENDBRANCH   2   7
BRANCH   1  19
ATOM     19  C   UNL d   1      56.842   0.208  32.342  0.00  0.00     0.092 A 
ATOM     20  C   UNL d   1      57.303   0.503  32.964  0.00  0.00     0.156 A 
ATOM     21  F   UNL d   1      58.112   0.637  32.880  0.00  0.00    -0.203 F 
ATOM     22  C   UNL d   1      56.930   0.671  33.710  0.00  0.00     0.031 A 
ATOM     23  C   UNL d   1      56.117   0.536  33.792  0.00  0.00     0.002 A 
ATOM     24  C   UNL d   1      55.675   0.248  33.178  0.00  0.00     0.002 A 
ATOM     25  C   UNL d   1      56.047   0.079  32.432  0.00  0.00     0.020 A 
ENDBRANCH   1  19
TORSDOF 3
ENDMDL
MODEL 2
REMARK VINA RESULT:      -3.2      1.167      4.577
REMARK  3 active torsions:
REMARK  status: ('A' for Active; 'I' for Inactive)
REMARK    1  A    between atoms: C_6  and  C_1 
REMARK    2  A    between atoms: C_5  and  N_2 
REMARK    3  A    between atoms: N_4  and  C_6 
ROOT
ATOM      1  N   UNL d   1      58.488  -1.354  29.832  0.00  0.00    -0.299 N 
ATOM      2  N   UNL d   1      57.748  -0.224  30.705  0.00  0.00    -0.300 N 
ATOM      3  C   UNL d   1      58.066  -1.567  30.490  0.00  0.00     0.100 A 
ATOM      4  C   UNL d   1      58.546  -0.565  29.600  0.00  0.00     0.100 A 
ATOM      5  C   UNL d   1      57.695  -1.002  30.926  0.00  0.00     0.100 A 
ATOM      6  C   UNL d   1      58.176   0.000  30.037  0.00  0.00     0.100 A 
ENDROOT
BRANCH   2   7
ATOM      7  C   UNL d   1      57.366   0.378  31.152  0.00  0.00     0.084 C 
BRANCH   7   8
ATOM      8  C   UNL d   1      57.494   0.459  31.983  0.00  0.00     0.057 A 
ATOM      9  C   UNL d   1      56.857   0.385  32.463  0.00  0.00     0.004 A 
ATOM     10  C   UNL d   1      56.977   0.466  33.314  0.00  0.00     0.000 A 
ATOM     11  C   UNL d   1      56.100   0.237  32.170  0.00  0.00     0.000 A 
ATOM     12  C   UNL d   1      56.330   0.393  33.819  0.00  0.00     0.000 A 
ATOM     13  C   UNL d   1      57.715   0.610  33.600  0.00  0.00     0.003 A 
ATOM     14  C   UNL d   1      55.590   0.244  33.483  0.00  0.00     0.000 A 
ATOM     15  C   UNL d   1      55.460   0.168  32.727  0.00  0.00     0.000 A 
ATOM     16  C   UNL d   1      58.370   0.682  33.049  0.00  0.00     0.042 A 
ATOM     17  C   UNL d   1      58.239   0.606  32.294  0.00  0.00     0.197 A 
ATOM     18  O   UNL d   1      58.905   0.682  31.775  0.00  0.00    -0.286 OA
ENDBRANCH   7   8
ENDBRANCH   2   7
BRANCH   1  19
ATOM     19  C   UNL d   1      58.876  -1.945  29.375  0.00  0.00     0.092 A 
ATOM     20  C   UNL d   1      59.704  -1.991  29.395  0.00  0.00     0.156 A 
ATOM     21  F   UNL d   1      60.156  -1.473  29.849  0.00  0.00    -0.203 F 
ATOM     22  C   UNL d   1      60.095  -2.588  28.933  0.00  0.00     0.031 A 
ATOM     23  C   UNL d   1      59.637  -3.107  28.477  0.00  0.00     0.002 A 
ATOM     24  C   UNL d   1      58.829  -3.055  28.465  0.00  0.00     0.002 A 
ATOM     25  C   UNL d   1      58.438  -2.458  28.926  0.00  0.00     0.020 A 
ENDBRANCH   1  19
TORSDOF 3
ENDMDL
