MODEL 1
REMARK VINA RESULT:       1.9      0.000      0.000
REMARK  3 active torsions:
REMARK  status: ('A' for Active; 'I' for Inactive)
REMARK    1  A    between atoms: C_6  and  N_1 
REMARK    2  A    between atoms: C_7  and  C_6 
REMARK    3  A    between atoms: C_8  and  C_7 
ROOT
ATOM      1  N   UNL d   1      23.702  13.035  -0.732  0.00  0.00    -0.211 N 
ATOM      2  N   UNL d   1      23.081  13.978  -0.014  0.00  0.00    -0.206 NA
ATOM      3  C   UNL d   1      23.821  13.689  -0.246  0.00  0.00     0.166 A 
ATOM      4  N   UNL d   1      22.879  12.916  -0.804  0.00  0.00    -0.144 NA
ATOM      5  C   UNL d   1      22.493  13.502  -0.357  0.00  0.00     0.184 A 
ATOM      6  C   UNL d   1      24.547  14.008  -0.023  0.00  0.00     0.042 C 
ATOM      7  C   UNL d   1      21.679  13.590  -0.275  0.00  0.00     0.044 C 
ENDROOT
BRANCH   1   8
ATOM      8  C   UNL d   1      24.289  12.571  -1.092  0.00  0.00     0.091 C 
ATOM      9  C   UNL d   1      24.385  11.786  -0.849  0.00  0.00     0.021 C 
BRANCH   8  10
ATOM     10  C   UNL d   1      24.768  12.885  -1.682  0.00  0.00     0.089 C 
BRANCH  10  11
ATOM     11  C   UNL d   1      24.723  12.592  -2.453  0.00  0.00     0.213 C 
ATOM     12  O   UNL d   1      24.727  11.779  -2.586  0.00  0.00    -0.644 OA
ATOM     13  O   UNL d   1      24.674  13.116  -3.091  0.00  0.00    -0.644 OA
ENDBRANCH  10  11
ENDBRANCH   8  10
ENDBRANCH   1   8
TORSDOF 3
ENDMDL
