MODEL 1
REMARK VINA RESULT:      20.4      0.000      0.000
REMARK  5 active torsions:
REMARK  status: ('A' for Active; 'I' for Inactive)
REMARK    1  A    between atoms: C_6  and  N_1 
REMARK    2  A    between atoms: C_7  and  C_2 
REMARK    3  A    between atoms: C_12  and  C_6 
REMARK    4  A    between atoms: C_11  and  C_7 
REMARK       I    between atoms: C_8  and  N_10 
REMARK    5  A    between atoms: N_10  and  C_11 
ROOT
ATOM      1  N   UNL d   1      46.520 -17.971  43.433  0.00  0.00    -0.289 N 
ATOM      2  C   UNL d   1      46.365 -17.475  44.085  0.00  0.00     0.149 A 
ATOM      3  N   UNL d   1      46.274 -17.953  44.754  0.00  0.00    -0.227 NA
ATOM      4  C   UNL d   1      46.523 -18.755  43.703  0.00  0.00     0.083 A 
ATOM      5  C   UNL d   1      46.371 -18.744  44.522  0.00  0.00     0.099 A 
ATOM      6  C   UNL d   1      46.644 -19.477  43.316  0.00  0.00     0.019 A 
ATOM      7  C   UNL d   1      46.342 -19.456  44.946  0.00  0.00     0.021 A 
ATOM      8  C   UNL d   1      46.614 -20.181  43.739  0.00  0.00     0.002 A 
ATOM      9  C   UNL d   1      46.464 -20.170  44.550  0.00  0.00     0.002 A 
ENDROOT
BRANCH   1  10
ATOM     10  C   UNL d   1      46.647 -17.728  42.654  0.00  0.00     0.082 C 
BRANCH  10  11
ATOM     11  C   UNL d   1      46.242 -18.090  42.036  0.00  0.00     0.018 A 
ATOM     12  C   UNL d   1      46.646 -18.591  41.524  0.00  0.00     0.002 A 
ATOM     13  C   UNL d   1      46.243 -18.960  40.898  0.00  0.00     0.000 A 
ATOM     14  C   UNL d   1      45.443 -18.815  40.803  0.00  0.00     0.000 A 
ATOM     15  C   UNL d   1      45.038 -18.311  41.318  0.00  0.00     0.000 A 
ATOM     16  C   UNL d   1      45.442 -17.948  41.937  0.00  0.00     0.002 A 
ENDBRANCH  10  11
ENDBRANCH   1  10
BRANCH   2  17
ATOM     17  C   UNL d   1      46.245 -16.759  44.472  0.00  0.00     0.058 C 
BRANCH  17  18
ATOM     18  C   UNL d   1      45.701 -16.219  44.174  0.00  0.00     0.105 C 
BRANCH  18  19
ATOM     19  N   UNL d   1      45.755 -15.425  44.384  0.00  0.00    -0.206 NA
ATOM     20  C   UNL d   1      45.087 -15.016  44.626  0.00  0.00     0.280 C 
ATOM     21  O   UNL d   1      44.360 -15.403  44.658  0.00  0.00    -0.265 OA
ATOM     22  C   UNL d   1      45.140 -14.219  44.836  0.00  0.00     0.068 C 
ENDBRANCH  18  19
ENDBRANCH  17  18
ENDBRANCH   2  17
TORSDOF 5
ENDMDL
MODEL 2
REMARK VINA RESULT:      20.7      0.949      2.778
REMARK  5 active torsions:
REMARK  status: ('A' for Active; 'I' for Inactive)
REMARK    1  A    between atoms: C_6  and  N_1 
REMARK    2  A    between atoms: C_7  and  C_2 
REMARK    3  A    between atoms: C_12  and  C_6 
REMARK    4  A    between atoms: C_11  and  C_7 
REMARK       I    between atoms: C_8  and  N_10 
REMARK    5  A    between atoms: N_10  and  C_11 
ROOT
ATOM      1  N   UNL d   1      46.587 -18.994  42.587  0.00  0.00    -0.289 N 
ATOM      2  C   UNL d   1      46.565 -18.269  42.998  0.00  0.00     0.149 A 
ATOM      3  N   UNL d   1      46.503 -17.661  42.440  0.00  0.00    -0.227 NA
ATOM      4  C   UNL d   1      46.538 -18.831  41.776  0.00  0.00     0.083 A 
ATOM      5  C   UNL d   1      46.486 -18.004  41.685  0.00  0.00     0.099 A 
ATOM      6  C   UNL d   1      46.534 -19.320  41.108  0.00  0.00     0.019 A 
ATOM      7  C   UNL d   1      46.430 -17.676  40.926  0.00  0.00     0.021 A 
ATOM      8  C   UNL d   1      46.478 -18.992  40.357  0.00  0.00     0.002 A 
ATOM      9  C   UNL d   1      46.427 -18.173  40.266  0.00  0.00     0.002 A 
ENDROOT
BRANCH   1  10
ATOM     10  C   UNL d   1      46.647 -19.745  42.926  0.00  0.00     0.082 C 
BRANCH  10  11
ATOM     11  C   UNL d   1      46.189 -19.941  43.582  0.00  0.00     0.018 A 
ATOM     12  C   UNL d   1      45.371 -19.984  43.508  0.00  0.00     0.002 A 
ATOM     13  C   UNL d   1      44.904 -20.181  44.167  0.00  0.00     0.000 A 
ATOM     14  C   UNL d   1      45.273 -20.330  44.882  0.00  0.00     0.000 A 
ATOM     15  C   UNL d   1      46.096 -20.286  44.955  0.00  0.00     0.000 A 
ATOM     16  C   UNL d   1      46.553 -20.090  44.299  0.00  0.00     0.002 A 
ENDBRANCH  10  11
ENDBRANCH   1  10
BRANCH   2  17
ATOM     17  C   UNL d   1      46.570 -17.780  43.659  0.00  0.00     0.058 C 
BRANCH  17  18
ATOM     18  C   UNL d   1      46.002 -17.190  43.737  0.00  0.00     0.105 C 
BRANCH  18  19
ATOM     19  N   UNL d   1      46.209 -16.461  44.056  0.00  0.00    -0.206 NA
ATOM     20  C   UNL d   1      45.678 -16.050  44.526  0.00  0.00     0.280 C 
ATOM     21  O   UNL d   1      44.934 -16.372  44.680  0.00  0.00    -0.265 OA
ATOM     22  C   UNL d   1      45.885 -15.319  44.847  0.00  0.00     0.068 C 
ENDBRANCH  18  19
ENDBRANCH  17  18
ENDBRANCH   2  17
TORSDOF 5
ENDMDL
