MODEL 1
REMARK VINA RESULT:      20.3      0.000      0.000
REMARK  1 active torsions:
REMARK  status: ('A' for Active; 'I' for Inactive)
REMARK    1  A    between atoms: C_9  and  C_1 
ROOT
ATOM      1  C   UNL d   1      58.221  49.702  50.909  0.00  0.00     0.064 A 
ATOM      2  C   UNL d   1      58.927  49.699  50.469  0.00  0.00     0.199 A 
ATOM      3  C   UNL d   1      59.653  49.699  50.874  0.00  0.00     0.062 A 
ATOM      4  C   UNL d   1      58.241  49.705  51.731  0.00  0.00     0.126 A 
ATOM      5  C   UNL d   1      59.673  49.702  51.696  0.00  0.00     0.106 A 
ATOM      6  O   UNL d   1      58.967  49.705  52.128  0.00  0.00    -0.305 OA
ATOM      7  C   UNL d   1      60.351  49.696  50.434  0.00  0.00     0.009 A 
ATOM      8  C   UNL d   1      60.392  49.702  52.093  0.00  0.00     0.067 A 
ATOM      9  O   UNL d   1      58.907  49.696  49.651  0.00  0.00    -0.286 OA
ATOM     10  C   UNL d   1      61.097  49.699  51.661  0.00  0.00     0.198 A 
ATOM     11  C   UNL d   1      61.077  49.696  50.839  0.00  0.00     0.042 A 
ATOM     12  O   UNL d   1      61.843  49.699  52.058  0.00  0.00    -0.286 OA
ENDROOT
BRANCH   1  13
ATOM     13  C   UNL d   1      57.499  49.703  50.504  0.00  0.00     0.005 A 
ATOM     14  C   UNL d   1      56.790  49.702  50.912  0.00  0.00     0.000 A 
ATOM     15  C   UNL d   1      56.066  49.702  50.503  0.00  0.00     0.000 A 
ATOM     16  C   UNL d   1      56.079  49.703  49.678  0.00  0.00     0.000 A 
ATOM     17  C   UNL d   1      56.787  49.703  49.269  0.00  0.00     0.000 A 
ATOM     18  C   UNL d   1      57.507  49.703  49.671  0.00  0.00     0.000 A 
ENDBRANCH   1  13
TORSDOF 1
ENDMDL
