MODEL 1
REMARK VINA RESULT:      21.0      0.000      0.000
REMARK  4 active torsions:
REMARK  status: ('A' for Active; 'I' for Inactive)
REMARK    1  A    between atoms: N_3  and  C_1 
REMARK    2  A    between atoms: C_4  and  C_2 
REMARK       I    between atoms: C_6  and  N_3 
REMARK    3  A    between atoms: C_18  and  C_6 
REMARK    4  A    between atoms: C_17  and  C_18 
ROOT
ATOM      1  N   UNL d   1      12.774  12.494  -3.710  0.00  0.00    -0.201 NA
ATOM      2  C   UNL d   1      13.255  12.100  -3.171  0.00  0.00     0.280 C 
ATOM      3  O   UNL d   1      13.982  11.780  -3.405  0.00  0.00    -0.265 OA
ENDROOT
BRANCH   2   4
ATOM      4  C   UNL d   1      13.007  12.022  -2.379  0.00  0.00     0.063 C 
BRANCH   4   5
ATOM      5  C   UNL d   1      13.562  12.055  -1.756  0.00  0.00     0.007 A 
ATOM      6  C   UNL d   1      14.328  12.346  -1.887  0.00  0.00     0.026 A 
ATOM      7  C   UNL d   1      14.874  12.376  -1.260  0.00  0.00     0.119 A 
ATOM      8  O   UNL d   1      15.663  12.633  -1.226  0.00  0.00    -0.300 OA
ATOM      9  C   UNL d   1      14.656  12.118  -0.513  0.00  0.00     0.119 A 
ATOM     10  C   UNL d   1      15.928  12.528  -0.437  0.00  0.00     0.304 A 
ATOM     11  O   UNL d   1      15.302  12.213  -0.015  0.00  0.00    -0.300 OA
ATOM     12  C   UNL d   1      13.892  11.827  -0.380  0.00  0.00     0.026 A 
ATOM     13  C   UNL d   1      13.353  11.799  -1.001  0.00  0.00     0.002 A 
ENDBRANCH   4   5
ENDBRANCH   2   4
BRANCH   1  14
ATOM     14  C   UNL d   1      13.014  12.574  -4.493  0.00  0.00     0.119 A 
ATOM     15  C   UNL d   1      13.162  13.277  -4.886  0.00  0.00     0.084 A 
ATOM     16  C   UNL d   1      13.386  13.102  -5.653  0.00  0.00     0.014 A 
ATOM     17  C   UNL d   1      13.381  12.278  -5.749  0.00  0.00     0.037 A 
ATOM     18  S   UNL d   1      13.147  11.953  -5.019  0.00  0.00    -0.067 SA
BRANCH  15  19
ATOM     19  C   UNL d   1      13.100  14.040  -4.577  0.00  0.00     0.299 C 
ATOM     20  O   UNL d   1      13.272  14.204  -3.789  0.00  0.00    -0.264 OA
ATOM     21  N   UNL d   1      12.860  14.651  -5.075  0.00  0.00    -0.102 N 
ENDBRANCH  15  19
ENDBRANCH   1  14
TORSDOF 4
ENDMDL
