MODEL 1
REMARK VINA RESULT:      -6.4      0.000      0.000
REMARK  3 active torsions:
REMARK  status: ('A' for Active; 'I' for Inactive)
REMARK    1  A    between atoms: N_3  and  C_1 
REMARK       I    between atoms: C_5  and  N_3 
REMARK    2  A    between atoms: C_9  and  C_5 
REMARK    3  A    between atoms: O_22  and  C_20 
ROOT
ATOM      1  N   UNL d   1     -41.893-123.247 -51.770  0.00  0.00    -0.183 NA
ATOM      2  C   UNL d   1     -41.522-122.661 -52.218  0.00  0.00     0.281 C 
ATOM      3  O   UNL d   1     -41.132-122.023 -51.826  0.00  0.00    -0.265 OA
ENDROOT
BRANCH   1   4
ATOM      4  C   UNL d   1     -41.887-123.218 -50.946  0.00  0.00     0.197 A 
ATOM      5  N   UNL d   1     -42.493-122.895 -50.479  0.00  0.00    -0.221 NA
ATOM      6  C   UNL d   1     -42.259-122.981 -49.686  0.00  0.00     0.090 A 
ATOM      7  C   UNL d   1     -42.632-122.767 -48.983  0.00  0.00     0.022 A 
ATOM      8  C   UNL d   1     -41.521-123.351 -49.678  0.00  0.00     0.052 A 
ATOM      9  C   UNL d   1     -42.251-122.929 -48.262  0.00  0.00     0.026 A 
ATOM     10  C   UNL d   1     -41.521-123.295 -48.254  0.00  0.00     0.095 A 
ATOM     11  C   UNL d   1     -41.139-123.514 -48.958  0.00  0.00     0.032 A 
ATOM     12  S   UNL d   1     -41.305-123.490 -50.453  0.00  0.00    -0.047 SA
BRANCH  10  13
ATOM     13  O   UNL d   1     -41.123-123.465 -47.516  0.00  0.00    -0.328 OA
ATOM     14  C   UNL d   1     -41.383-123.083 -46.815  0.00  0.00     0.181 C 
ENDBRANCH  10  13
ENDBRANCH   1   4
BRANCH   2  15
ATOM     15  C   UNL d   1     -41.528-122.691 -53.042  0.00  0.00     0.059 A 
ATOM     16  C   UNL d   1     -41.934-122.116 -53.465  0.00  0.00     0.013 A 
ATOM     17  C   UNL d   1     -41.948-122.134 -54.284  0.00  0.00     0.049 A 
ATOM     18  S   UNL d   1     -42.304-121.638 -54.847  0.00  0.00    -0.064 SA
ATOM     19  C   UNL d   1     -41.543-122.745 -54.694  0.00  0.00     0.088 A 
ATOM     20  C   UNL d   1     -42.116-121.948 -55.594  0.00  0.00     0.135 A 
ATOM     21  N   UNL d   1     -41.653-122.622 -55.513  0.00  0.00    -0.236 NA
ATOM     22  C   UNL d   1     -41.129-123.332 -54.277  0.00  0.00     0.020 A 
ATOM     23  C   UNL d   1     -41.124-123.302 -53.453  0.00  0.00     0.006 A 
ENDBRANCH   2  15
TORSDOF 3
ENDMDL
MODEL 2
REMARK VINA RESULT:      -5.7      1.490      5.409
REMARK  3 active torsions:
REMARK  status: ('A' for Active; 'I' for Inactive)
REMARK    1  A    between atoms: N_3  and  C_1 
REMARK       I    between atoms: C_5  and  N_3 
REMARK    2  A    between atoms: C_9  and  C_5 
REMARK    3  A    between atoms: O_22  and  C_20 
ROOT
ATOM      1  N   UNL d   1     -41.335-123.330 -50.980  0.00  0.00    -0.183 NA
ATOM      2  C   UNL d   1     -41.951-123.101 -50.481  0.00  0.00     0.281 C 
ATOM      3  O   UNL d   1     -42.646-122.754 -50.811  0.00  0.00    -0.265 OA
ENDROOT
BRANCH   1   4
ATOM      4  C   UNL d   1     -41.389-123.223 -51.796  0.00  0.00     0.197 A 
ATOM      5  N   UNL d   1     -41.697-123.780 -52.328  0.00  0.00    -0.221 NA
ATOM      6  C   UNL d   1     -41.644-123.445 -53.087  0.00  0.00     0.090 A 
ATOM      7  C   UNL d   1     -41.862-123.738 -53.826  0.00  0.00     0.022 A 
ATOM      8  C   UNL d   1     -41.309-122.695 -53.010  0.00  0.00     0.052 A 
ATOM      9  C   UNL d   1     -41.738-123.262 -54.497  0.00  0.00     0.026 A 
ATOM     10  C   UNL d   1     -41.406-122.520 -54.421  0.00  0.00     0.095 A 
ATOM     11  C   UNL d   1     -41.184-122.219 -53.680  0.00  0.00     0.032 A 
ATOM     12  S   UNL d   1     -41.157-122.571 -52.217  0.00  0.00    -0.047 SA
BRANCH  10  13
ATOM     13  O   UNL d   1     -41.275-122.025 -55.107  0.00  0.00    -0.328 OA
ATOM     14  C   UNL d   1     -41.861-121.999 -55.708  0.00  0.00     0.181 C 
ENDBRANCH  10  13
ENDBRANCH   1   4
BRANCH   2  15
ATOM     15  C   UNL d   1     -41.898-123.208 -49.666  0.00  0.00     0.059 A 
ATOM     16  C   UNL d   1     -42.558-123.460 -49.245  0.00  0.00     0.013 A 
ATOM     17  C   UNL d   1     -42.517-123.570 -48.435  0.00  0.00     0.049 A 
ATOM     18  S   UNL d   1     -43.082-123.814 -47.876  0.00  0.00    -0.064 SA
ATOM     19  C   UNL d   1     -41.796-123.425 -48.029  0.00  0.00     0.088 A 
ATOM     20  C   UNL d   1     -42.703-123.817 -47.137  0.00  0.00     0.135 A 
ATOM     21  N   UNL d   1     -41.920-123.582 -47.218  0.00  0.00    -0.236 NA
ATOM     22  C   UNL d   1     -41.123-123.171 -48.443  0.00  0.00     0.020 A 
ATOM     23  C   UNL d   1     -41.177-123.064 -49.260  0.00  0.00     0.006 A 
ENDBRANCH   2  15
TORSDOF 3
ENDMDL
