MODEL 1
REMARK VINA RESULT:      -3.6      0.000      0.000
REMARK  2 active torsions:
REMARK  status: ('A' for Active; 'I' for Inactive)
REMARK       I    between atoms: N_2  and  C_1 
REMARK    1  A    between atoms: C_4  and  C_1 
REMARK    2  A    between atoms: C_3  and  N_2 
ROOT
ATOM      1  C   UNL d   1      33.114  22.498 -20.296  0.00  0.00     0.085 A 
ATOM      2  C   UNL d   1      33.104  21.877 -21.572  0.00  0.00     0.002 A 
ATOM      3  C   UNL d   1      33.074  21.828 -20.748  0.00  0.00     0.018 A 
ATOM      4  C   UNL d   1      33.173  22.600 -21.944  0.00  0.00     0.000 A 
ATOM      5  C   UNL d   1      33.063  21.201 -22.032  0.00  0.00     0.000 A 
ATOM      6  C   UNL d   1      33.185  23.241 -20.664  0.00  0.00     0.019 A 
ATOM      7  C   UNL d   1      33.215  23.290 -21.490  0.00  0.00     0.002 A 
ATOM      8  C   UNL d   1      33.188  22.475 -22.758  0.00  0.00     0.000 A 
ATOM      9  C   UNL d   1      33.105  21.421 -22.821  0.00  0.00     0.000 A 
ATOM     10  C   UNL d   1      33.004  21.103 -20.376  0.00  0.00     0.002 A 
ATOM     11  C   UNL d   1      32.962  20.399 -20.837  0.00  0.00     0.000 A 
ATOM     12  C   UNL d   1      32.991  20.448 -21.661  0.00  0.00     0.000 A 
ENDROOT
BRANCH   1  13
ATOM     13  N   UNL d   1      33.085  22.449 -19.479  0.00  0.00    -0.206 NA
ATOM     14  C   UNL d   1      32.821  23.088 -19.059  0.00  0.00     0.302 C 
ATOM     15  O   UNL d   1      32.613  23.702 -19.452  0.00  0.00    -0.263 OA
BRANCH  14  16
ATOM     16  C   UNL d   1      32.767  23.104 -18.233  0.00  0.00     0.158 A 
ATOM     17  O   UNL d   1      33.241  22.661 -17.732  0.00  0.00    -0.300 OA
ATOM     18  C   UNL d   1      33.009  22.837 -16.938  0.00  0.00     0.123 A 
ATOM     19  C   UNL d   1      32.406  23.378 -16.963  0.00  0.00     0.029 A 
ATOM     20  C   UNL d   1      32.237  23.560 -17.752  0.00  0.00     0.032 A 
ENDBRANCH  14  16
ENDBRANCH   1  13
TORSDOF 2
ENDMDL
MODEL 2
REMARK VINA RESULT:      -3.2      2.207      4.421
REMARK  2 active torsions:
REMARK  status: ('A' for Active; 'I' for Inactive)
REMARK       I    between atoms: N_2  and  C_1 
REMARK    1  A    between atoms: C_4  and  C_1 
REMARK    2  A    between atoms: C_3  and  N_2 
ROOT
ATOM      1  C   UNL d   1      33.035  21.057 -21.618  0.00  0.00     0.085 A 
ATOM      2  C   UNL d   1      33.031  22.380 -21.103  0.00  0.00     0.002 A 
ATOM      3  C   UNL d   1      32.993  21.856 -21.741  0.00  0.00     0.018 A 
ATOM      4  C   UNL d   1      33.111  22.102 -20.339  0.00  0.00     0.000 A 
ATOM      5  C   UNL d   1      32.989  23.188 -21.224  0.00  0.00     0.000 A 
ATOM      6  C   UNL d   1      33.116  20.762 -20.844  0.00  0.00     0.019 A 
ATOM      7  C   UNL d   1      33.154  21.287 -20.205  0.00  0.00     0.002 A 
ATOM      8  C   UNL d   1      33.132  22.747 -19.827  0.00  0.00     0.000 A 
ATOM      9  C   UNL d   1      33.041  23.563 -20.496  0.00  0.00     0.000 A 
ATOM     10  C   UNL d   1      32.914  22.136 -22.505  0.00  0.00     0.002 A 
ATOM     11  C   UNL d   1      32.870  22.966 -22.644  0.00  0.00     0.000 A 
ATOM     12  C   UNL d   1      32.907  23.489 -22.006  0.00  0.00     0.000 A 
ENDROOT
BRANCH   1  13
ATOM     13  N   UNL d   1      32.997  20.538 -22.250  0.00  0.00    -0.206 NA
ATOM     14  C   UNL d   1      33.108  19.749 -22.114  0.00  0.00     0.302 C 
ATOM     15  O   UNL d   1      33.241  19.533 -21.399  0.00  0.00    -0.263 OA
BRANCH  14  16
ATOM     16  C   UNL d   1      33.083  19.173 -22.708  0.00  0.00     0.158 A 
ATOM     17  O   UNL d   1      32.892  19.326 -23.490  0.00  0.00    -0.300 OA
ATOM     18  C   UNL d   1      32.930  18.594 -23.911  0.00  0.00     0.123 A 
ATOM     19  C   UNL d   1      33.140  18.010 -23.389  0.00  0.00     0.029 A 
ATOM     20  C   UNL d   1      33.240  18.342 -22.638  0.00  0.00     0.032 A 
ENDBRANCH  14  16
ENDBRANCH   1  13
TORSDOF 2
ENDMDL
MODEL 3
REMARK VINA RESULT:      -3.2      1.994      3.495
REMARK  2 active torsions:
REMARK  status: ('A' for Active; 'I' for Inactive)
REMARK       I    between atoms: N_2  and  C_1 
REMARK    1  A    between atoms: C_4  and  C_1 
REMARK    2  A    between atoms: C_3  and  N_2 
ROOT
ATOM      1  C   UNL d   1      33.224  20.314 -22.360  0.00  0.00     0.085 A 
ATOM      2  C   UNL d   1      33.233  19.357 -23.408  0.00  0.00     0.002 A 
ATOM      3  C   UNL d   1      33.229  20.142 -23.151  0.00  0.00     0.018 A 
ATOM      4  C   UNL d   1      33.232  18.742 -22.870  0.00  0.00     0.000 A 
ATOM      5  C   UNL d   1      33.238  19.180 -24.206  0.00  0.00     0.000 A 
ATOM      6  C   UNL d   1      33.223  19.696 -21.802  0.00  0.00     0.019 A 
ATOM      7  C   UNL d   1      33.227  18.909 -22.060  0.00  0.00     0.002 A 
ATOM      8  C   UNL d   1      33.236  18.031 -23.286  0.00  0.00     0.000 A 
ATOM      9  C   UNL d   1      33.241  18.364 -24.291  0.00  0.00     0.000 A 
ATOM     10  C   UNL d   1      33.230  20.757 -23.690  0.00  0.00     0.002 A 
ATOM     11  C   UNL d   1      33.235  20.589 -24.515  0.00  0.00     0.000 A 
ATOM     12  C   UNL d   1      33.239  19.804 -24.772  0.00  0.00     0.000 A 
ENDROOT
BRANCH   1  13
ATOM     13  N   UNL d   1      33.220  21.093 -22.105  0.00  0.00    -0.206 NA
ATOM     14  C   UNL d   1      32.787  21.287 -21.451  0.00  0.00     0.302 C 
ATOM     15  O   UNL d   1      32.404  20.729 -21.107  0.00  0.00    -0.263 OA
BRANCH  14  16
ATOM     16  C   UNL d   1      32.740  22.053 -21.141  0.00  0.00     0.158 A 
ATOM     17  O   UNL d   1      32.202  22.619 -21.392  0.00  0.00    -0.300 OA
ATOM     18  C   UNL d   1      32.338  23.320 -20.939  0.00  0.00     0.123 A 
ATOM     19  C   UNL d   1      32.948  23.177 -20.425  0.00  0.00     0.029 A 
ATOM     20  C   UNL d   1      33.215  22.401 -20.530  0.00  0.00     0.032 A 
ENDBRANCH  14  16
ENDBRANCH   1  13
TORSDOF 2
ENDMDL
MODEL 4
REMARK VINA RESULT:      -3.1      2.613      4.466
REMARK  2 active torsions:
REMARK  status: ('A' for Active; 'I' for Inactive)
REMARK       I    between atoms: N_2  and  C_1 
REMARK    1  A    between atoms: C_4  and  C_1 
REMARK    2  A    between atoms: C_3  and  N_2 
ROOT
ATOM      1  C   UNL d   1      32.978  20.878 -22.402  0.00  0.00     0.085 A 
ATOM      2  C   UNL d   1      32.802  22.153 -21.803  0.00  0.00     0.002 A 
ATOM      3  C   UNL d   1      32.775  21.328 -21.761  0.00  0.00     0.018 A 
ATOM      4  C   UNL d   1      33.032  22.528 -22.491  0.00  0.00     0.000 A 
ATOM      5  C   UNL d   1      32.597  22.610 -21.156  0.00  0.00     0.000 A 
ATOM      6  C   UNL d   1      33.215  21.249 -23.109  0.00  0.00     0.019 A 
ATOM      7  C   UNL d   1      33.241  22.075 -23.151  0.00  0.00     0.002 A 
ATOM      8  C   UNL d   1      33.004  23.341 -22.367  0.00  0.00     0.000 A 
ATOM      9  C   UNL d   1      32.676  23.401 -21.361  0.00  0.00     0.000 A 
ATOM     10  C   UNL d   1      32.544  20.953 -21.071  0.00  0.00     0.002 A 
ATOM     11  C   UNL d   1      32.331  21.412 -20.398  0.00  0.00     0.000 A 
ATOM     12  C   UNL d   1      32.358  22.237 -20.440  0.00  0.00     0.000 A 
ENDROOT
BRANCH   1  13
ATOM     13  N   UNL d   1      32.952  20.060 -22.360  0.00  0.00    -0.206 NA
ATOM     14  C   UNL d   1      32.971  19.634 -23.047  0.00  0.00     0.302 C 
ATOM     15  O   UNL d   1      33.012  20.021 -23.698  0.00  0.00    -0.263 OA
BRANCH  14  16
ATOM     16  C   UNL d   1      32.947  18.807 -23.074  0.00  0.00     0.158 A 
ATOM     17  O   UNL d   1      33.241  18.318 -22.484  0.00  0.00    -0.300 OA
ATOM     18  C   UNL d   1      33.109  17.519 -22.726  0.00  0.00     0.123 A 
ATOM     19  C   UNL d   1      32.743  17.528 -23.449  0.00  0.00     0.029 A 
ATOM     20  C   UNL d   1      32.632  18.312 -23.687  0.00  0.00     0.032 A 
ENDBRANCH  14  16
ENDBRANCH   1  13
TORSDOF 2
ENDMDL
MODEL 5
REMARK VINA RESULT:      -2.4      1.671      2.722
REMARK  2 active torsions:
REMARK  status: ('A' for Active; 'I' for Inactive)
REMARK       I    between atoms: N_2  and  C_1 
REMARK    1  A    between atoms: C_4  and  C_1 
REMARK    2  A    between atoms: C_3  and  N_2 
ROOT
ATOM      1  C   UNL d   1      33.234  20.983 -22.457  0.00  0.00     0.085 A 
ATOM      2  C   UNL d   1      33.235  19.887 -23.359  0.00  0.00     0.002 A 
ATOM      3  C   UNL d   1      33.233  20.185 -22.588  0.00  0.00     0.018 A 
ATOM      4  C   UNL d   1      33.239  20.392 -24.001  0.00  0.00     0.000 A 
ATOM      5  C   UNL d   1      33.233  19.080 -23.494  0.00  0.00     0.000 A 
ATOM      6  C   UNL d   1      33.239  21.508 -23.103  0.00  0.00     0.019 A 
ATOM      7  C   UNL d   1      33.241  21.210 -23.876  0.00  0.00     0.002 A 
ATOM      8  C   UNL d   1      33.241  19.939 -24.689  0.00  0.00     0.000 A 
ATOM      9  C   UNL d   1      33.236  18.953 -24.305  0.00  0.00     0.000 A 
ATOM     10  C   UNL d   1      33.228  19.678 -21.946  0.00  0.00     0.002 A 
ATOM     11  C   UNL d   1      33.227  18.845 -22.071  0.00  0.00     0.000 A 
ATOM     12  C   UNL d   1      33.229  18.547 -22.842  0.00  0.00     0.000 A 
ENDROOT
BRANCH   1  13
ATOM     13  N   UNL d   1      33.232  21.278 -21.693  0.00  0.00    -0.206 NA
ATOM     14  C   UNL d   1      33.078  22.064 -21.579  0.00  0.00     0.302 C 
ATOM     15  O   UNL d   1      32.943  22.487 -22.194  0.00  0.00    -0.263 OA
BRANCH  14  16
ATOM     16  C   UNL d   1      33.061  22.424 -20.834  0.00  0.00     0.158 A 
ATOM     17  O   UNL d   1      32.925  22.024 -20.131  0.00  0.00    -0.300 OA
ATOM     18  C   UNL d   1      32.952  22.590 -19.504  0.00  0.00     0.123 A 
ATOM     19  C   UNL d   1      33.102  23.319 -19.825  0.00  0.00     0.029 A 
ATOM     20  C   UNL d   1      33.174  23.244 -20.646  0.00  0.00     0.032 A 
ENDBRANCH  14  16
ENDBRANCH   1  13
TORSDOF 2
ENDMDL
MODEL 6
REMARK VINA RESULT:      -2.4      3.798      5.742
REMARK  2 active torsions:
REMARK  status: ('A' for Active; 'I' for Inactive)
REMARK       I    between atoms: N_2  and  C_1 
REMARK    1  A    between atoms: C_4  and  C_1 
REMARK    2  A    between atoms: C_3  and  N_2 
ROOT
ATOM      1  C   UNL d   1      33.171  18.982 -23.395  0.00  0.00     0.085 A 
ATOM      2  C   UNL d   1      33.207  20.339 -22.982  0.00  0.00     0.002 A 
ATOM      3  C   UNL d   1      33.189  19.533 -22.803  0.00  0.00     0.018 A 
ATOM      4  C   UNL d   1      33.206  20.594 -23.758  0.00  0.00     0.000 A 
ATOM      5  C   UNL d   1      33.226  20.899 -22.386  0.00  0.00     0.000 A 
ATOM      6  C   UNL d   1      33.170  19.229 -24.189  0.00  0.00     0.019 A 
ATOM      7  C   UNL d   1      33.188  20.037 -24.369  0.00  0.00     0.002 A 
ATOM      8  C   UNL d   1      33.226  21.417 -23.763  0.00  0.00     0.000 A 
ATOM      9  C   UNL d   1      33.241  21.644 -22.729  0.00  0.00     0.000 A 
ATOM     10  C   UNL d   1      33.190  19.279 -22.025  0.00  0.00     0.002 A 
ATOM     11  C   UNL d   1      33.209  19.845 -21.401  0.00  0.00     0.000 A 
ATOM     12  C   UNL d   1      33.227  20.651 -21.581  0.00  0.00     0.000 A 
ENDROOT
BRANCH   1  13
ATOM     13  N   UNL d   1      33.153  18.183 -23.217  0.00  0.00    -0.206 NA
ATOM     14  C   UNL d   1      32.739  17.684 -23.700  0.00  0.00     0.302 C 
ATOM     15  O   UNL d   1      32.387  17.990 -24.298  0.00  0.00    -0.263 OA
BRANCH  14  16
ATOM     16  C   UNL d   1      32.682  16.868 -23.577  0.00  0.00     0.158 A 
ATOM     17  O   UNL d   1      33.218  16.429 -23.139  0.00  0.00    -0.300 OA
ATOM     18  C   UNL d   1      32.960  15.624 -23.150  0.00  0.00     0.123 A 
ATOM     19  C   UNL d   1      32.279  15.581 -23.587  0.00  0.00     0.029 A 
ATOM     20  C   UNL d   1      32.085  16.336 -23.863  0.00  0.00     0.032 A 
ENDBRANCH  14  16
ENDBRANCH   1  13
TORSDOF 2
ENDMDL
MODEL 7
REMARK VINA RESULT:      -1.9      4.020      5.525
REMARK  2 active torsions:
REMARK  status: ('A' for Active; 'I' for Inactive)
REMARK       I    between atoms: N_2  and  C_1 
REMARK    1  A    between atoms: C_4  and  C_1 
REMARK    2  A    between atoms: C_3  and  N_2 
ROOT
ATOM      1  C   UNL d   1      32.630  18.022 -23.412  0.00  0.00     0.085 A 
ATOM      2  C   UNL d   1      32.446  16.724 -23.957  0.00  0.00     0.002 A 
ATOM      3  C   UNL d   1      32.733  17.221 -23.362  0.00  0.00     0.018 A 
ATOM      4  C   UNL d   1      32.054  17.032 -24.604  0.00  0.00     0.000 A 
ATOM      5  C   UNL d   1      32.548  15.914 -23.909  0.00  0.00     0.000 A 
ATOM      6  C   UNL d   1      32.232  18.347 -24.067  0.00  0.00     0.019 A 
ATOM      7  C   UNL d   1      31.944  17.849 -24.663  0.00  0.00     0.002 A 
ATOM      8  C   UNL d   1      31.835  16.409 -25.097  0.00  0.00     0.000 A 
ATOM      9  C   UNL d   1      32.209  15.569 -24.571  0.00  0.00     0.000 A 
ATOM     10  C   UNL d   1      33.125  16.912 -22.714  0.00  0.00     0.002 A 
ATOM     11  C   UNL d   1      33.238  16.079 -22.653  0.00  0.00     0.000 A 
ATOM     12  C   UNL d   1      32.951  15.583 -23.247  0.00  0.00     0.000 A 
ENDROOT
BRANCH   1  13
ATOM     13  N   UNL d   1      32.914  18.515 -22.823  0.00  0.00    -0.206 NA
ATOM     14  C   UNL d   1      32.618  19.264 -22.764  0.00  0.00     0.302 C 
ATOM     15  O   UNL d   1      32.087  19.470 -23.265  0.00  0.00    -0.263 OA
BRANCH  14  16
ATOM     16  C   UNL d   1      32.862  19.811 -22.192  0.00  0.00     0.158 A 
ATOM     17  O   UNL d   1      33.003  19.624 -21.407  0.00  0.00    -0.300 OA
ATOM     18  C   UNL d   1      33.240  20.333 -21.013  0.00  0.00     0.123 A 
ATOM     19  C   UNL d   1      33.241  20.937 -21.554  0.00  0.00     0.029 A 
ATOM     20  C   UNL d   1      33.011  20.641 -22.291  0.00  0.00     0.032 A 
ENDBRANCH  14  16
ENDBRANCH   1  13
TORSDOF 2
ENDMDL
