MODEL 1
REMARK VINA RESULT:       4.6      0.000      0.000
REMARK  6 active torsions:
REMARK  status: ('A' for Active; 'I' for Inactive)
REMARK    1  A    between atoms: N_9  and  C_1 
REMARK    2  A    between atoms: C_15  and  N_4 
REMARK    3  A    between atoms: C_7  and  N_9 
REMARK    4  A    between atoms: C_12  and  C_11 
REMARK    5  A    between atoms: C_13  and  C_12 
REMARK       I    between atoms: N_16  and  C_13 
REMARK    6  A    between atoms: C_20  and  N_16 
ROOT
ATOM      1  N   UNL d   1      32.909  18.141 -23.103  0.00  0.00    -0.182 NA
ATOM      2  C   UNL d   1      32.899  18.707 -23.706  0.00  0.00     0.197 A 
ATOM      3  C   UNL d   1      32.523  17.468 -23.377  0.00  0.00     0.287 A 
ATOM      4  S   UNL d   1      32.505  18.379 -24.356  0.00  0.00    -0.043 SA
ATOM      5  C   UNL d   1      32.276  17.618 -24.149  0.00  0.00     0.095 A 
ATOM      6  O   UNL d   1      32.406  16.767 -22.951  0.00  0.00    -0.265 OA
ENDROOT
BRANCH   2   7
ATOM      7  N   UNL d   1      33.227  19.464 -23.663  0.00  0.00    -0.215 NA
BRANCH   7   8
ATOM      8  C   UNL d   1      33.087  19.933 -23.010  0.00  0.00     0.159 A 
ATOM      9  C   UNL d   1      32.917  20.745 -23.027  0.00  0.00     0.298 A 
ATOM     10  N   UNL d   1      32.815  20.997 -22.244  0.00  0.00    -0.209 N 
ATOM     11  O   UNL d   1      32.860  21.212 -23.698  0.00  0.00    -0.263 OA
ATOM     12  N   UNL d   1      32.922  20.345 -21.750  0.00  0.00    -0.238 N 
ATOM     13  C   UNL d   1      33.090  19.687 -22.224  0.00  0.00     0.104 A 
ATOM     14  C   UNL d   1      32.871  20.345 -20.931  0.00  0.00     0.120 C 
ATOM     15  C   UNL d   1      33.235  18.924 -21.963  0.00  0.00     0.022 C 
BRANCH  10  16
ATOM     16  C   UNL d   1      32.640  21.756 -22.004  0.00  0.00     0.085 A 
ATOM     17  C   UNL d   1      32.869  22.400 -22.473  0.00  0.00     0.019 A 
ATOM     18  C   UNL d   1      32.693  23.160 -22.233  0.00  0.00     0.002 A 
ATOM     19  C   UNL d   1      32.286  23.297 -21.521  0.00  0.00     0.000 A 
ATOM     20  C   UNL d   1      32.060  22.655 -21.056  0.00  0.00     0.002 A 
ATOM     21  C   UNL d   1      32.236  21.887 -21.297  0.00  0.00     0.019 A 
ENDBRANCH  10  16
ENDBRANCH   7   8
ENDBRANCH   2   7
BRANCH   5  22
ATOM     22  C   UNL d   1      31.866  17.088 -24.630  0.00  0.00     0.074 C 
BRANCH  22  23
ATOM     23  C   UNL d   1      31.065  16.953 -24.502  0.00  0.00     0.280 C 
ATOM     24  N   UNL d   1      30.756  16.196 -24.553  0.00  0.00    -0.208 NA
ATOM     25  O   UNL d   1      30.563  17.585 -24.321  0.00  0.00    -0.265 OA
BRANCH  24  26
ATOM     26  C   UNL d   1      29.956  16.065 -24.426  0.00  0.00     0.085 A 
ATOM     27  C   UNL d   1      29.439  16.037 -25.068  0.00  0.00     0.020 A 
ATOM     28  C   UNL d   1      28.634  15.906 -24.943  0.00  0.00     0.013 A 
ATOM     29  C   UNL d   1      28.351  15.803 -24.168  0.00  0.00     0.058 A 
ATOM     30  C   UNL d   1      28.868  15.833 -23.534  0.00  0.00     0.013 A 
ATOM     31 CL   UNL d   1      27.545  15.672 -24.042  0.00  0.00    -0.082 Cl
ATOM     32  C   UNL d   1      29.674  15.964 -23.660  0.00  0.00     0.020 A 
ENDBRANCH  24  26
ENDBRANCH  22  23
ENDBRANCH   5  22
TORSDOF 6
ENDMDL
MODEL 2
REMARK VINA RESULT:       5.3      1.963      5.383
REMARK  6 active torsions:
REMARK  status: ('A' for Active; 'I' for Inactive)
REMARK    1  A    between atoms: N_9  and  C_1 
REMARK    2  A    between atoms: C_15  and  N_4 
REMARK    3  A    between atoms: C_7  and  N_9 
REMARK    4  A    between atoms: C_12  and  C_11 
REMARK    5  A    between atoms: C_13  and  C_12 
REMARK       I    between atoms: N_16  and  C_13 
REMARK    6  A    between atoms: C_20  and  N_16 
ROOT
ATOM      1  N   UNL d   1      31.852  16.484 -24.698  0.00  0.00    -0.182 NA
ATOM      2  C   UNL d   1      31.387  17.155 -24.833  0.00  0.00     0.197 A 
ATOM      3  C   UNL d   1      32.601  16.735 -24.464  0.00  0.00     0.287 A 
ATOM      4  S   UNL d   1      31.853  17.822 -24.681  0.00  0.00    -0.043 SA
ATOM      5  C   UNL d   1      32.597  17.559 -24.455  0.00  0.00     0.095 A 
ATOM      6  O   UNL d   1      33.241  16.244 -24.273  0.00  0.00    -0.265 OA
ENDROOT
BRANCH   2   7
ATOM      7  N   UNL d   1      30.598  17.154 -25.076  0.00  0.00    -0.215 NA
BRANCH   7   8
ATOM      8  C   UNL d   1      30.016  16.883 -24.572  0.00  0.00     0.159 A 
ATOM      9  C   UNL d   1      29.365  17.324 -24.307  0.00  0.00     0.298 A 
ATOM     10  N   UNL d   1      28.918  16.836 -23.808  0.00  0.00    -0.209 N 
ATOM     11  O   UNL d   1      29.196  18.102 -24.503  0.00  0.00    -0.263 OA
ATOM     12  N   UNL d   1      29.290  16.101 -23.767  0.00  0.00    -0.238 N 
ATOM     13  C   UNL d   1      29.970  16.130 -24.241  0.00  0.00     0.104 A 
ATOM     14  C   UNL d   1      29.036  15.453 -23.335  0.00  0.00     0.120 C 
ATOM     15  C   UNL d   1      30.504  15.522 -24.361  0.00  0.00     0.022 C 
BRANCH  10  16
ATOM     16  C   UNL d   1      28.230  17.046 -23.424  0.00  0.00     0.085 A 
ATOM     17  C   UNL d   1      27.696  16.460 -23.183  0.00  0.00     0.019 A 
ATOM     18  C   UNL d   1      27.007  16.672 -22.799  0.00  0.00     0.002 A 
ATOM     19  C   UNL d   1      26.834  17.471 -22.646  0.00  0.00     0.000 A 
ATOM     20  C   UNL d   1      27.367  18.052 -22.887  0.00  0.00     0.002 A 
ATOM     21  C   UNL d   1      28.063  17.840 -23.275  0.00  0.00     0.019 A 
ENDBRANCH  10  16
ENDBRANCH   7   8
ENDBRANCH   2   7
BRANCH   5  22
ATOM     22  C   UNL d   1      33.239  18.036 -24.251  0.00  0.00     0.074 C 
BRANCH  22  23
ATOM     23  C   UNL d   1      33.117  18.726 -23.822  0.00  0.00     0.280 C 
ATOM     24  N   UNL d   1      33.229  18.738 -23.011  0.00  0.00    -0.208 NA
ATOM     25  O   UNL d   1      32.878  19.418 -24.209  0.00  0.00    -0.265 OA
BRANCH  24  26
ATOM     26  C   UNL d   1      33.107  19.429 -22.585  0.00  0.00     0.085 A 
ATOM     27  C   UNL d   1      33.194  20.159 -22.958  0.00  0.00     0.020 A 
ATOM     28  C   UNL d   1      33.071  20.856 -22.533  0.00  0.00     0.013 A 
ATOM     29  C   UNL d   1      32.860  20.814 -21.730  0.00  0.00     0.058 A 
ATOM     30  C   UNL d   1      32.774  20.087 -21.365  0.00  0.00     0.013 A 
ATOM     31 CL   UNL d   1      32.737  21.511 -21.304  0.00  0.00    -0.082 Cl
ATOM     32  C   UNL d   1      32.897  19.390 -21.790  0.00  0.00     0.020 A 
ENDBRANCH  24  26
ENDBRANCH  22  23
ENDBRANCH   5  22
TORSDOF 6
ENDMDL
