MODEL 1
REMARK VINA RESULT:      -2.4      0.000      0.000
REMARK  6 active torsions:
REMARK  status: ('A' for Active; 'I' for Inactive)
REMARK       I    between atoms: N_2  and  C_4 
REMARK    1  A    between atoms: C_6  and  N_2 
REMARK    2  A    between atoms: C_12  and  C_3 
REMARK    3  A    between atoms: C_4  and  C_11 
REMARK    4  A    between atoms: O_13  and  C_9 
REMARK    5  A    between atoms: C_11  and  C_12 
REMARK    6  A    between atoms: C_17  and  O_13 
ROOT
ATOM      1  N   UNL d   1     -41.310-123.049 -52.192  0.00  0.00    -0.206 NA
ATOM      2  C   UNL d   1     -41.331-123.089 -53.014  0.00  0.00     0.279 C 
ATOM      3  O   UNL d   1     -41.323-123.817 -53.392  0.00  0.00    -0.265 OA
ENDROOT
BRANCH   1   4
ATOM      4  C   UNL d   1     -41.318-122.308 -51.814  0.00  0.00     0.107 A 
ATOM      5  C   UNL d   1     -41.515-122.257 -51.017  0.00  0.00     0.118 A 
ATOM      6  C   UNL d   1     -41.523-121.530 -50.644  0.00  0.00     0.026 A 
ATOM      7  C   UNL d   1     -41.334-120.839 -51.065  0.00  0.00     0.002 A 
ATOM      8  C   UNL d   1     -41.136-120.891 -51.868  0.00  0.00     0.002 A 
ATOM      9  C   UNL d   1     -41.128-121.631 -52.245  0.00  0.00     0.021 A 
BRANCH   5  10
ATOM     10  O   UNL d   1     -41.702-122.943 -50.603  0.00  0.00    -0.304 OA
BRANCH  10  11
ATOM     11  C   UNL d   1     -41.813-122.923 -49.789  0.00  0.00     0.123 C 
ATOM     12  C   UNL d   1     -42.498-123.230 -49.452  0.00  0.00     0.029 C 
ENDBRANCH  10  11
ENDBRANCH   5  10
ENDBRANCH   1   4
BRANCH   2  13
ATOM     13  C   UNL d   1     -41.360-122.398 -53.466  0.00  0.00     0.065 C 
BRANCH  13  14
ATOM     14  C   UNL d   1     -41.123-122.408 -54.251  0.00  0.00     0.030 C 
BRANCH  14  15
ATOM     15  C   UNL d   1     -41.642-122.165 -54.847  0.00  0.00     0.100 A 
ATOM     16  O   UNL d   1     -42.456-122.310 -54.888  0.00  0.00    -0.307 OA
ATOM     17  C   UNL d   1     -42.749-121.969 -55.570  0.00  0.00     0.100 A 
ATOM     18  C   UNL d   1     -42.116-121.605 -55.963  0.00  0.00     0.027 A 
ATOM     19  C   UNL d   1     -43.528-121.981 -55.823  0.00  0.00     0.027 C 
ATOM     20  C   UNL d   1     -41.433-121.726 -55.517  0.00  0.00     0.027 A 
ENDBRANCH  14  15
ENDBRANCH  13  14
ENDBRANCH   2  13
TORSDOF 6
ENDMDL
MODEL 2
REMARK VINA RESULT:      -2.3      1.260      1.989
REMARK  6 active torsions:
REMARK  status: ('A' for Active; 'I' for Inactive)
REMARK       I    between atoms: N_2  and  C_4 
REMARK    1  A    between atoms: C_6  and  N_2 
REMARK    2  A    between atoms: C_12  and  C_3 
REMARK    3  A    between atoms: C_4  and  C_11 
REMARK    4  A    between atoms: O_13  and  C_9 
REMARK    5  A    between atoms: C_11  and  C_12 
REMARK    6  A    between atoms: C_17  and  O_13 
ROOT
ATOM      1  N   UNL d   1     -41.503-121.574 -50.964  0.00  0.00    -0.206 NA
ATOM      2  C   UNL d   1     -41.431-121.463 -51.777  0.00  0.00     0.279 C 
ATOM      3  O   UNL d   1     -41.242-120.723 -52.077  0.00  0.00    -0.265 OA
ENDROOT
BRANCH   1   4
ATOM      4  C   UNL d   1     -41.694-122.326 -50.665  0.00  0.00     0.107 A 
ATOM      5  C   UNL d   1     -42.450-122.470 -50.373  0.00  0.00     0.118 A 
ATOM      6  C   UNL d   1     -42.640-123.209 -50.079  0.00  0.00     0.026 A 
ATOM      7  C   UNL d   1     -42.075-123.817 -50.073  0.00  0.00     0.002 A 
ATOM      8  C   UNL d   1     -41.314-123.672 -50.368  0.00  0.00     0.002 A 
ATOM      9  C   UNL d   1     -41.123-122.920 -50.666  0.00  0.00     0.021 A 
BRANCH   5  10
ATOM     10  O   UNL d   1     -43.008-121.865 -50.380  0.00  0.00    -0.304 OA
BRANCH  10  11
ATOM     11  C   UNL d   1     -43.811-122.038 -50.376  0.00  0.00     0.123 C 
ATOM     12  C   UNL d   1     -44.302-121.733 -49.789  0.00  0.00     0.029 C 
ENDBRANCH  10  11
ENDBRANCH   5  10
ENDBRANCH   1   4
BRANCH   2  13
ATOM     13  C   UNL d   1     -41.547-122.094 -52.298  0.00  0.00     0.065 C 
BRANCH  13  14
ATOM     14  C   UNL d   1     -41.123-122.134 -52.998  0.00  0.00     0.030 C 
BRANCH  14  15
ATOM     15  C   UNL d   1     -41.502-122.339 -53.703  0.00  0.00     0.100 A 
ATOM     16  O   UNL d   1     -42.009-121.864 -54.154  0.00  0.00    -0.307 OA
ATOM     17  C   UNL d   1     -42.257-122.289 -54.806  0.00  0.00     0.100 A 
ATOM     18  C   UNL d   1     -41.905-123.039 -54.768  0.00  0.00     0.027 A 
ATOM     19  C   UNL d   1     -42.763-122.025 -55.394  0.00  0.00     0.027 C 
ATOM     20  C   UNL d   1     -41.440-123.070 -54.087  0.00  0.00     0.027 A 
ENDBRANCH  14  15
ENDBRANCH  13  14
ENDBRANCH   2  13
TORSDOF 6
ENDMDL
