MODEL 1
REMARK VINA RESULT:      -2.4      0.000      0.000
REMARK  5 active torsions:
REMARK  status: ('A' for Active; 'I' for Inactive)
REMARK    1  A    between atoms: N_14  and  C_6 
REMARK    2  A    between atoms: C_20  and  N_14 
REMARK    3  A    between atoms: N_15  and  C_21 
REMARK    4  A    between atoms: C_17  and  C_20 
REMARK    5  A    between atoms: C_21  and  C_17 
ROOT
ATOM      1  N   UNL d   1     -41.367-122.774 -51.953  0.00  0.00    -0.183 N 
ATOM      2  C   UNL d   1     -41.419-122.220 -52.569  0.00  0.00     0.169 A 
ATOM      3  C   UNL d   1     -41.548-122.463 -53.339  0.00  0.00     0.073 A 
ATOM      4  C   UNL d   1     -41.626-123.263 -53.490  0.00  0.00     0.185 A 
ATOM      5  N   UNL d   1     -41.575-123.817 -52.875  0.00  0.00    -0.142 NA
ATOM      6  C   UNL d   1     -41.238-122.512 -51.190  0.00  0.00     0.218 A 
ATOM      7  N   UNL d   1     -41.339-121.419 -52.405  0.00  0.00    -0.226 NA
ATOM      8  C   UNL d   1     -41.599-121.915 -53.949  0.00  0.00     0.007 A 
ATOM      9  N   UNL d   1     -41.757-123.525 -54.265  0.00  0.00    -0.225 NA
ATOM     10  C   UNL d   1     -41.158-121.720 -51.023  0.00  0.00     0.071 A 
ATOM     11  C   UNL d   1     -41.728-122.158 -54.718  0.00  0.00     0.019 A 
ATOM     12  C   UNL d   1     -41.209-121.166 -51.639  0.00  0.00     0.087 A 
ATOM     13  C   UNL d   1     -41.808-122.971 -54.881  0.00  0.00     0.083 A 
ATOM     14  C   UNL d   1     -41.518-121.111 -53.783  0.00  0.00     0.000 C 
ATOM     15  C   UNL d   1     -41.126-120.334 -51.465  0.00  0.00     0.021 C 
ATOM     16  C   UNL d   1     -41.937-123.220 -55.645  0.00  0.00     0.021 C 
ENDROOT
BRANCH   6  17
ATOM     17  N   UNL d   1     -41.186-123.090 -50.561  0.00  0.00    -0.380 NA
BRANCH  17  18
ATOM     18  C   UNL d   1     -41.128-123.613 -49.904  0.00  0.00     0.164 C 
BRANCH  18  19
ATOM     19  C   UNL d   1     -41.648-123.510 -49.240  0.00  0.00     0.054 C 
BRANCH  19  20
ATOM     20  C   UNL d   1     -41.370-123.708 -48.457  0.00  0.00     0.083 C 
BRANCH  20  21
ATOM     21  N   UNL d   1     -41.817-123.475 -47.771  0.00  0.00    -0.300 N 
ATOM     22  C   UNL d   1     -41.129-123.524 -47.270  0.00  0.00     0.100 C 
ATOM     23  C   UNL d   1     -42.560-123.245 -47.424  0.00  0.00     0.100 C 
ENDBRANCH  20  21
ENDBRANCH  19  20
ENDBRANCH  18  19
ENDBRANCH  17  18
ENDBRANCH   6  17
TORSDOF 5
ENDMDL
MODEL 2
REMARK VINA RESULT:      -0.6      1.229      5.185
REMARK  5 active torsions:
REMARK  status: ('A' for Active; 'I' for Inactive)
REMARK    1  A    between atoms: N_14  and  C_6 
REMARK    2  A    between atoms: C_20  and  N_14 
REMARK    3  A    between atoms: N_15  and  C_21 
REMARK    4  A    between atoms: C_17  and  C_20 
REMARK    5  A    between atoms: C_21  and  C_17 
ROOT
ATOM      1  N   UNL d   1     -42.007-123.013 -50.329  0.00  0.00    -0.183 N 
ATOM      2  C   UNL d   1     -42.447-122.793 -49.660  0.00  0.00     0.169 A 
ATOM      3  C   UNL d   1     -42.225-123.046 -48.914  0.00  0.00     0.073 A 
ATOM      4  C   UNL d   1     -41.562-123.518 -48.840  0.00  0.00     0.185 A 
ATOM      5  N   UNL d   1     -41.123-123.738 -49.509  0.00  0.00    -0.142 NA
ATOM      6  C   UNL d   1     -42.244-122.751 -51.066  0.00  0.00     0.218 A 
ATOM      7  N   UNL d   1     -43.112-122.318 -49.746  0.00  0.00    -0.226 NA
ATOM      8  C   UNL d   1     -42.660-122.829 -48.252  0.00  0.00     0.007 A 
ATOM      9  N   UNL d   1     -41.325-123.782 -48.092  0.00  0.00    -0.225 NA
ATOM     10  C   UNL d   1     -42.901-122.281 -51.156  0.00  0.00     0.071 A 
ATOM     11  C   UNL d   1     -42.439-123.081 -47.507  0.00  0.00     0.019 A 
ATOM     12  C   UNL d   1     -43.341-122.061 -50.487  0.00  0.00     0.087 A 
ATOM     13  C   UNL d   1     -41.765-123.563 -47.423  0.00  0.00     0.083 A 
ATOM     14  C   UNL d   1     -43.328-122.351 -48.340  0.00  0.00     0.000 C 
ATOM     15  C   UNL d   1     -44.031-121.567 -50.581  0.00  0.00     0.021 C 
ATOM     16  C   UNL d   1     -41.539-123.817 -46.683  0.00  0.00     0.021 C 
ENDROOT
BRANCH   6  17
ATOM     17  N   UNL d   1     -41.785-122.982 -51.750  0.00  0.00    -0.380 NA
BRANCH  17  18
ATOM     18  C   UNL d   1     -41.376-123.183 -52.458  0.00  0.00     0.164 C 
BRANCH  18  19
ATOM     19  C   UNL d   1     -41.424-122.666 -53.131  0.00  0.00     0.054 C 
BRANCH  19  20
ATOM     20  C   UNL d   1     -41.233-122.970 -53.906  0.00  0.00     0.083 C 
BRANCH  20  21
ATOM     21  N   UNL d   1     -41.625-122.661 -54.596  0.00  0.00    -0.300 N 
ATOM     22  C   UNL d   1     -41.278-123.258 -55.096  0.00  0.00     0.100 C 
ATOM     23  C   UNL d   1     -42.145-122.086 -54.948  0.00  0.00     0.100 C 
ENDBRANCH  20  21
ENDBRANCH  19  20
ENDBRANCH  18  19
ENDBRANCH  17  18
ENDBRANCH   6  17
TORSDOF 5
ENDMDL
