MODEL 1
REMARK VINA RESULT:      13.0      0.000      0.000
REMARK  4 active torsions:
REMARK  status: ('A' for Active; 'I' for Inactive)
REMARK    1  A    between atoms: S_2  and  N_1 
REMARK    2  A    between atoms: C_6  and  S_2 
REMARK    3  A    between atoms: C_10  and  C_6 
REMARK    4  A    between atoms: C_11  and  C_10 
ROOT
ATOM      1  S   UNL d   1      13.432  12.567  -3.373  0.00  0.00     0.287 S 
ATOM      2  O   UNL d   1      13.659  13.361  -3.332  0.00  0.00    -0.198 OA
ATOM      3  O   UNL d   1      13.208  11.779  -3.400  0.00  0.00    -0.198 OA
ENDROOT
BRANCH   1   4
ATOM      4  N   UNL d   1      13.391  12.601  -4.192  0.00  0.00    -0.152 N 
ATOM      5  N   UNL d   1      13.564  11.974  -4.707  0.00  0.00    -0.155 NA
ATOM      6  C   UNL d   1      13.450  12.250  -5.480  0.00  0.00     0.104 A 
ATOM      7  C   UNL d   1      13.558  11.813  -6.172  0.00  0.00     0.022 C 
ATOM      8  C   UNL d   1      13.209  13.041  -5.430  0.00  0.00     0.041 A 
ATOM      9  C   UNL d   1      13.172  13.257  -4.637  0.00  0.00     0.096 A 
ATOM     10  C   UNL d   1      12.957  13.993  -4.345  0.00  0.00     0.022 C 
ENDBRANCH   1   4
BRANCH   1  11
ATOM     11  C   UNL d   1      13.469  12.514  -2.548  0.00  0.00     0.117 C 
BRANCH  11  12
ATOM     12  C   UNL d   1      13.686  11.796  -2.191  0.00  0.00     0.014 C 
BRANCH  12  13
ATOM     13  C   UNL d   1      14.070  11.794  -1.463  0.00  0.00     0.001 A 
ATOM     14  C   UNL d   1      13.635  11.797  -0.775  0.00  0.00     0.000 A 
ATOM     15  C   UNL d   1      14.019  11.795  -0.047  0.00  0.00     0.000 A 
ATOM     16  C   UNL d   1      14.844  11.791  -0.014  0.00  0.00     0.000 A 
ATOM     17  C   UNL d   1      15.280  11.789  -0.715  0.00  0.00     0.000 A 
ATOM     18  C   UNL d   1      14.895  11.790  -1.443  0.00  0.00     0.000 A 
ENDBRANCH  12  13
ENDBRANCH  11  12
ENDBRANCH   1  11
TORSDOF 4
ENDMDL
