MODEL 1
REMARK VINA RESULT:      22.6      0.000      0.000
REMARK  2 active torsions:
REMARK  status: ('A' for Active; 'I' for Inactive)
REMARK    1  A    between atoms: C_5  and  C_1 
REMARK    2  A    between atoms: C_7  and  C_5 
ROOT
ATOM      1  C   UNL d   1     -57.500 -98.919 -44.493  0.00  0.00     0.061 A 
ATOM      2  C   UNL d   1     -57.441 -98.862 -45.298  0.00  0.00     0.102 A 
ATOM      3  N   UNL d   1     -58.204 -98.792 -45.616  0.00  0.00    -0.244 NA
ATOM      4  C   UNL d   1     -58.294 -98.887 -44.294  0.00  0.00     0.022 A 
ATOM      5  C   UNL d   1     -58.727 -98.808 -44.985  0.00  0.00     0.082 A 
ATOM      6  C   UNL d   1     -58.675 -98.919 -43.560  0.00  0.00     0.002 A 
ATOM      7  C   UNL d   1     -59.553 -98.761 -44.961  0.00  0.00     0.019 A 
ATOM      8  C   UNL d   1     -59.499 -98.871 -43.538  0.00  0.00     0.000 A 
ATOM      9  C   UNL d   1     -59.932 -98.793 -44.229  0.00  0.00     0.002 A 
ENDROOT
BRANCH   1  10
ATOM     10  C   UNL d   1     -56.844 -98.999 -43.959  0.00  0.00     0.215 C 
ATOM     11  O   UNL d   1     -56.918 -98.755 -43.180  0.00  0.00    -0.285 OA
BRANCH  10  12
ATOM     12  C   UNL d   1     -56.134 -99.326 -44.244  0.00  0.00     0.120 A 
ATOM     13  N   UNL d   1     -56.061-100.144 -44.317  0.00  0.00    -0.241 NA
ATOM     14  C   UNL d   1     -55.351-100.455 -44.601  0.00  0.00     0.099 A 
ATOM     15  C   UNL d   1     -54.728 -99.953 -44.807  0.00  0.00     0.021 A 
ATOM     16  C   UNL d   1     -54.813 -99.143 -44.730  0.00  0.00     0.003 A 
ATOM     17  C   UNL d   1     -55.509 -98.828 -44.451  0.00  0.00     0.022 A 
ENDBRANCH  10  12
ENDBRANCH   1  10
TORSDOF 2
ENDMDL
