MODEL 1
REMARK VINA RESULT:      -6.6      0.000      0.000
REMARK  3 active torsions:
REMARK  status: ('A' for Active; 'I' for Inactive)
REMARK    1  A    between atoms: C_5  and  C_1 
REMARK    2  A    between atoms: N_6  and  C_5 
REMARK    3  A    between atoms: C_8  and  C_5 
ROOT
ATOM      1  C   UNL d   1     -39.288  14.656  18.074  0.00  0.00     0.083 C 
ENDROOT
BRANCH   1   2
ATOM      2  C   UNL d   1     -39.046  15.030  18.802  0.00  0.00     0.037 A 
ATOM      3  C   UNL d   1     -38.426  15.580  18.871  0.00  0.00     0.083 A 
ATOM      4  N   UNL d   1     -38.378  15.799  19.655  0.00  0.00    -0.245 NA
ATOM      5  C   UNL d   1     -37.940  15.856  18.242  0.00  0.00     0.021 C 
ATOM      6  C   UNL d   1     -38.955  15.399  20.085  0.00  0.00     0.081 A 
ATOM      7  C   UNL d   1     -39.378  14.912  19.545  0.00  0.00     0.021 A 
ATOM      8  C   UNL d   1     -39.158  15.405  20.880  0.00  0.00     0.019 A 
ATOM      9  C   UNL d   1     -39.993  14.443  19.812  0.00  0.00     0.002 A 
ATOM     10  C   UNL d   1     -40.200  14.450  20.629  0.00  0.00     0.000 A 
ATOM     11  C   UNL d   1     -39.795  14.916  21.147  0.00  0.00     0.002 A 
ENDBRANCH   1   2
BRANCH   1  12
ATOM     12  N   UNL d   1     -39.908  14.974  17.617  0.00  0.00    -0.302 N 
ATOM     13  C   UNL d   1     -39.762  15.612  17.113  0.00  0.00     0.080 A 
ATOM     14  C   UNL d   1     -40.378  15.922  16.664  0.00  0.00     0.019 A 
ATOM     15  C   UNL d   1     -41.136  15.600  16.715  0.00  0.00     0.003 A 
ATOM     16  C   UNL d   1     -41.285  14.965  17.216  0.00  0.00     0.019 A 
ATOM     17  C   UNL d   1     -41.757  15.918  16.257  0.00  0.00     0.000 C 
ATOM     18  C   UNL d   1     -40.669  14.654  17.665  0.00  0.00     0.080 A 
ENDBRANCH   1  12
BRANCH   1  19
ATOM     19  C   UNL d   1     -38.892  13.952  17.817  0.00  0.00     0.098 A 
ATOM     20  N   UNL d   1     -39.068  13.226  18.163  0.00  0.00    -0.243 NA
ATOM     21  C   UNL d   1     -38.688  12.542  17.920  0.00  0.00     0.099 A 
ATOM     22  C   UNL d   1     -38.125  12.585  17.321  0.00  0.00     0.021 A 
ATOM     23  C   UNL d   1     -37.947  13.312  16.972  0.00  0.00     0.003 A 
ATOM     24  C   UNL d   1     -38.329  14.015  17.215  0.00  0.00     0.021 A 
ENDBRANCH   1  19
TORSDOF 3
ENDMDL
MODEL 2
REMARK VINA RESULT:      -6.3      9.103     10.505
REMARK  3 active torsions:
REMARK  status: ('A' for Active; 'I' for Inactive)
REMARK    1  A    between atoms: C_5  and  C_1 
REMARK    2  A    between atoms: N_6  and  C_5 
REMARK    3  A    between atoms: C_8  and  C_5 
ROOT
ATOM      1  C   UNL d   1     -48.850  13.205  22.652  0.00  0.00     0.083 C 
ENDROOT
BRANCH   1   2
ATOM      2  C   UNL d   1     -48.108  13.255  22.233  0.00  0.00     0.037 A 
ATOM      3  C   UNL d   1     -48.017  13.154  21.413  0.00  0.00     0.083 A 
ATOM      4  N   UNL d   1     -47.226  13.245  21.241  0.00  0.00    -0.245 NA
ATOM      5  C   UNL d   1     -48.634  12.987  20.866  0.00  0.00     0.021 C 
ATOM      6  C   UNL d   1     -46.812  13.402  21.935  0.00  0.00     0.081 A 
ATOM      7  C   UNL d   1     -47.371  13.408  22.563  0.00  0.00     0.021 A 
ATOM      8  C   UNL d   1     -46.018  13.539  22.088  0.00  0.00     0.019 A 
ATOM      9  C   UNL d   1     -47.122  13.551  23.330  0.00  0.00     0.002 A 
ATOM     10  C   UNL d   1     -46.307  13.692  23.487  0.00  0.00     0.000 A 
ATOM     11  C   UNL d   1     -45.771  13.686  22.884  0.00  0.00     0.002 A 
ENDBRANCH   1   2
BRANCH   1  12
ATOM     12  N   UNL d   1     -49.306  13.888  22.794  0.00  0.00    -0.302 N 
ATOM     13  C   UNL d   1     -49.358  14.196  23.558  0.00  0.00     0.080 A 
ATOM     14  C   UNL d   1     -49.810  14.871  23.692  0.00  0.00     0.019 A 
ATOM     15  C   UNL d   1     -50.209  15.237  23.069  0.00  0.00     0.003 A 
ATOM     16  C   UNL d   1     -50.160  14.932  22.307  0.00  0.00     0.019 A 
ATOM     17  C   UNL d   1     -50.667  15.921  23.210  0.00  0.00     0.000 C 
ATOM     18  C   UNL d   1     -49.707  14.257  22.173  0.00  0.00     0.080 A 
ENDBRANCH   1  12
BRANCH   1  19
ATOM     19  C   UNL d   1     -49.122  12.450  22.926  0.00  0.00     0.098 A 
ATOM     20  N   UNL d   1     -48.653  11.997  23.429  0.00  0.00    -0.243 NA
ATOM     21  C   UNL d   1     -48.910  11.266  23.698  0.00  0.00     0.099 A 
ATOM     22  C   UNL d   1     -49.646  10.987  23.460  0.00  0.00     0.021 A 
ATOM     23  C   UNL d   1     -50.119  11.439  22.956  0.00  0.00     0.003 A 
ATOM     24  C   UNL d   1     -49.865  12.186  22.677  0.00  0.00     0.021 A 
ENDBRANCH   1  19
TORSDOF 3
ENDMDL
MODEL 3
REMARK VINA RESULT:      -6.2      9.196     10.753
REMARK  3 active torsions:
REMARK  status: ('A' for Active; 'I' for Inactive)
REMARK    1  A    between atoms: C_5  and  C_1 
REMARK    2  A    between atoms: N_6  and  C_5 
REMARK    3  A    between atoms: C_8  and  C_5 
ROOT
ATOM      1  C   UNL d   1     -48.960  13.495  22.547  0.00  0.00     0.083 C 
ENDROOT
BRANCH   1   2
ATOM      2  C   UNL d   1     -48.218  13.280  22.184  0.00  0.00     0.037 A 
ATOM      3  C   UNL d   1     -48.127  13.031  21.396  0.00  0.00     0.083 A 
ATOM      4  N   UNL d   1     -47.335  12.881  21.276  0.00  0.00    -0.245 NA
ATOM      5  C   UNL d   1     -48.745  12.951  20.831  0.00  0.00     0.021 C 
ATOM      6  C   UNL d   1     -46.920  13.030  21.972  0.00  0.00     0.081 A 
ATOM      7  C   UNL d   1     -47.480  13.282  22.547  0.00  0.00     0.021 A 
ATOM      8  C   UNL d   1     -46.126  12.974  22.167  0.00  0.00     0.019 A 
ATOM      9  C   UNL d   1     -47.231  13.473  23.303  0.00  0.00     0.002 A 
ATOM     10  C   UNL d   1     -46.414  13.415  23.502  0.00  0.00     0.000 A 
ATOM     11  C   UNL d   1     -45.878  13.173  22.951  0.00  0.00     0.002 A 
ENDBRANCH   1   2
BRANCH   1  12
ATOM     12  N   UNL d   1     -49.482  12.910  22.829  0.00  0.00    -0.302 N 
ATOM     13  C   UNL d   1     -50.247  12.859  22.523  0.00  0.00     0.080 A 
ATOM     14  C   UNL d   1     -50.758  12.279  22.805  0.00  0.00     0.019 A 
ATOM     15  C   UNL d   1     -50.510  11.752  23.390  0.00  0.00     0.003 A 
ATOM     16  C   UNL d   1     -49.749  11.800  23.698  0.00  0.00     0.019 A 
ATOM     17  C   UNL d   1     -51.033  11.166  23.673  0.00  0.00     0.000 C 
ATOM     18  C   UNL d   1     -49.237  12.380  23.415  0.00  0.00     0.080 A 
ENDBRANCH   1  12
BRANCH   1  19
ATOM     19  C   UNL d   1     -49.165  14.314  22.619  0.00  0.00     0.098 A 
ATOM     20  N   UNL d   1     -49.187  14.674  23.359  0.00  0.00    -0.243 NA
ATOM     21  C   UNL d   1     -49.384  15.466  23.436  0.00  0.00     0.099 A 
ATOM     22  C   UNL d   1     -49.561  15.903  22.761  0.00  0.00     0.021 A 
ATOM     23  C   UNL d   1     -49.540  15.545  22.018  0.00  0.00     0.003 A 
ATOM     24  C   UNL d   1     -49.340  14.738  21.930  0.00  0.00     0.021 A 
ENDBRANCH   1  19
TORSDOF 3
ENDMDL
MODEL 4
REMARK VINA RESULT:      -6.2      0.750      2.556
REMARK  3 active torsions:
REMARK  status: ('A' for Active; 'I' for Inactive)
REMARK    1  A    between atoms: C_5  and  C_1 
REMARK    2  A    between atoms: N_6  and  C_5 
REMARK    3  A    between atoms: C_8  and  C_5 
ROOT
ATOM      1  C   UNL d   1     -39.628  14.667  18.334  0.00  0.00     0.083 C 
ENDROOT
BRANCH   1   2
ATOM      2  C   UNL d   1     -39.664  15.007  19.116  0.00  0.00     0.037 A 
ATOM      3  C   UNL d   1     -39.141  15.582  19.410  0.00  0.00     0.083 A 
ATOM      4  N   UNL d   1     -39.369  15.753  20.174  0.00  0.00    -0.245 NA
ATOM      5  C   UNL d   1     -38.495  15.921  18.992  0.00  0.00     0.021 C 
ATOM      6  C   UNL d   1     -40.027  15.298  20.370  0.00  0.00     0.081 A 
ATOM      7  C   UNL d   1     -40.214  14.826  19.700  0.00  0.00     0.021 A 
ATOM      8  C   UNL d   1     -40.480  15.244  21.052  0.00  0.00     0.019 A 
ATOM      9  C   UNL d   1     -40.849  14.310  19.727  0.00  0.00     0.002 A 
ATOM     10  C   UNL d   1     -41.314  14.255  20.428  0.00  0.00     0.000 A 
ATOM     11  C   UNL d   1     -41.135  14.708  21.070  0.00  0.00     0.002 A 
ENDBRANCH   1   2
BRANCH   1  12
ATOM     12  N   UNL d   1     -39.202  13.964  18.193  0.00  0.00    -0.302 N 
ATOM     13  C   UNL d   1     -38.384  13.949  18.308  0.00  0.00     0.080 A 
ATOM     14  C   UNL d   1     -37.970  13.252  18.168  0.00  0.00     0.019 A 
ATOM     15  C   UNL d   1     -38.365  12.574  17.915  0.00  0.00     0.003 A 
ATOM     16  C   UNL d   1     -39.179  12.586  17.799  0.00  0.00     0.019 A 
ATOM     17  C   UNL d   1     -37.940  11.869  17.774  0.00  0.00     0.000 C 
ATOM     18  C   UNL d   1     -39.595  13.283  17.939  0.00  0.00     0.080 A 
ENDBRANCH   1  12
BRANCH   1  19
ATOM     19  C   UNL d   1     -40.030  15.052  17.695  0.00  0.00     0.098 A 
ATOM     20  N   UNL d   1     -40.835  14.931  17.577  0.00  0.00    -0.243 NA
ATOM     21  C   UNL d   1     -41.231  15.300  16.962  0.00  0.00     0.099 A 
ATOM     22  C   UNL d   1     -40.813  15.798  16.457  0.00  0.00     0.021 A 
ATOM     23  C   UNL d   1     -40.005  15.922  16.572  0.00  0.00     0.003 A 
ATOM     24  C   UNL d   1     -39.593  15.549  17.198  0.00  0.00     0.021 A 
ENDBRANCH   1  19
TORSDOF 3
ENDMDL
MODEL 5
REMARK VINA RESULT:      -6.1      9.138     10.791
REMARK  3 active torsions:
REMARK  status: ('A' for Active; 'I' for Inactive)
REMARK    1  A    between atoms: C_5  and  C_1 
REMARK    2  A    between atoms: N_6  and  C_5 
REMARK    3  A    between atoms: C_8  and  C_5 
ROOT
ATOM      1  C   UNL d   1     -48.437  13.473  22.512  0.00  0.00     0.083 C 
ENDROOT
BRANCH   1   2
ATOM      2  C   UNL d   1     -49.068  12.991  22.199  0.00  0.00     0.037 A 
ATOM      3  C   UNL d   1     -49.152  12.778  21.399  0.00  0.00     0.083 A 
ATOM      4  N   UNL d   1     -49.823  12.319  21.337  0.00  0.00    -0.245 NA
ATOM      5  C   UNL d   1     -48.635  12.999  20.774  0.00  0.00     0.021 C 
ATOM      6  C   UNL d   1     -50.167  12.237  22.081  0.00  0.00     0.081 A 
ATOM      7  C   UNL d   1     -49.689  12.662  22.626  0.00  0.00     0.021 A 
ATOM      8  C   UNL d   1     -50.837  11.842  22.341  0.00  0.00     0.019 A 
ATOM      9  C   UNL d   1     -49.892  12.683  23.419  0.00  0.00     0.002 A 
ATOM     10  C   UNL d   1     -50.581  12.278  23.685  0.00  0.00     0.000 A 
ATOM     11  C   UNL d   1     -51.039  11.870  23.162  0.00  0.00     0.002 A 
ENDBRANCH   1   2
BRANCH   1  12
ATOM     12  N   UNL d   1     -47.704  13.134  22.718  0.00  0.00    -0.302 N 
ATOM     13  C   UNL d   1     -47.079  13.148  22.179  0.00  0.00     0.080 A 
ATOM     14  C   UNL d   1     -46.357  12.812  22.388  0.00  0.00     0.019 A 
ATOM     15  C   UNL d   1     -46.257  12.463  23.129  0.00  0.00     0.003 A 
ATOM     16  C   UNL d   1     -46.878  12.447  23.668  0.00  0.00     0.019 A 
ATOM     17  C   UNL d   1     -45.523  12.123  23.336  0.00  0.00     0.000 C 
ATOM     18  C   UNL d   1     -47.600  12.783  23.460  0.00  0.00     0.080 A 
ENDBRANCH   1  12
BRANCH   1  19
ATOM     19  C   UNL d   1     -48.562  14.305  22.614  0.00  0.00     0.098 A 
ATOM     20  N   UNL d   1     -48.877  14.595  23.317  0.00  0.00    -0.243 NA
ATOM     21  C   UNL d   1     -49.000  15.398  23.423  0.00  0.00     0.099 A 
ATOM     22  C   UNL d   1     -48.804  15.918  22.816  0.00  0.00     0.021 A 
ATOM     23  C   UNL d   1     -48.487  15.630  22.110  0.00  0.00     0.003 A 
ATOM     24  C   UNL d   1     -48.358  14.812  21.993  0.00  0.00     0.021 A 
ENDBRANCH   1  19
TORSDOF 3
ENDMDL
MODEL 6
REMARK VINA RESULT:      -5.9      9.014     10.515
REMARK  3 active torsions:
REMARK  status: ('A' for Active; 'I' for Inactive)
REMARK    1  A    between atoms: C_5  and  C_1 
REMARK    2  A    between atoms: N_6  and  C_5 
REMARK    3  A    between atoms: C_8  and  C_5 
ROOT
ATOM      1  C   UNL d   1     -48.499  13.159  22.445  0.00  0.00     0.083 C 
ENDROOT
BRANCH   1   2
ATOM      2  C   UNL d   1     -49.041  13.761  22.176  0.00  0.00     0.037 A 
ATOM      3  C   UNL d   1     -49.353  13.812  21.407  0.00  0.00     0.083 A 
ATOM      4  N   UNL d   1     -49.843  14.463  21.384  0.00  0.00    -0.245 NA
ATOM      5  C   UNL d   1     -49.189  13.283  20.774  0.00  0.00     0.021 C 
ATOM      6  C   UNL d   1     -49.848  14.827  22.122  0.00  0.00     0.081 A 
ATOM      7  C   UNL d   1     -49.340  14.383  22.624  0.00  0.00     0.021 A 
ATOM      8  C   UNL d   1     -50.235  15.490  22.411  0.00  0.00     0.019 A 
ATOM      9  C   UNL d   1     -49.231  14.612  23.402  0.00  0.00     0.002 A 
ATOM     10  C   UNL d   1     -49.629  15.293  23.698  0.00  0.00     0.000 A 
ATOM     11  C   UNL d   1     -50.116  15.719  23.217  0.00  0.00     0.002 A 
ENDBRANCH   1   2
BRANCH   1  12
ATOM     12  N   UNL d   1     -47.675  13.268  22.385  0.00  0.00    -0.302 N 
ATOM     13  C   UNL d   1     -47.269  12.978  21.728  0.00  0.00     0.080 A 
ATOM     14  C   UNL d   1     -46.455  13.089  21.674  0.00  0.00     0.019 A 
ATOM     15  C   UNL d   1     -46.047  13.487  22.270  0.00  0.00     0.003 A 
ATOM     16  C   UNL d   1     -46.448  13.778  22.926  0.00  0.00     0.019 A 
ATOM     17  C   UNL d   1     -45.221  13.597  22.210  0.00  0.00     0.000 C 
ATOM     18  C   UNL d   1     -47.263  13.667  22.981  0.00  0.00     0.080 A 
ENDBRANCH   1  12
BRANCH   1  19
ATOM     19  C   UNL d   1     -48.807  12.443  22.777  0.00  0.00     0.098 A 
ATOM     20  N   UNL d   1     -49.516  12.127  22.502  0.00  0.00    -0.243 NA
ATOM     21  C   UNL d   1     -49.819  11.435  22.818  0.00  0.00     0.099 A 
ATOM     22  C   UNL d   1     -49.406  11.053  23.419  0.00  0.00     0.021 A 
ATOM     23  C   UNL d   1     -48.695  11.366  23.698  0.00  0.00     0.003 A 
ATOM     24  C   UNL d   1     -48.378  12.072  23.381  0.00  0.00     0.021 A 
ENDBRANCH   1  19
TORSDOF 3
ENDMDL
MODEL 7
REMARK VINA RESULT:      -5.3      9.117     10.526
REMARK  3 active torsions:
REMARK  status: ('A' for Active; 'I' for Inactive)
REMARK    1  A    between atoms: C_5  and  C_1 
REMARK    2  A    between atoms: N_6  and  C_5 
REMARK    3  A    between atoms: C_8  and  C_5 
ROOT
ATOM      1  C   UNL d   1     -48.489  13.858  22.538  0.00  0.00     0.083 C 
ENDROOT
BRANCH   1   2
ATOM      2  C   UNL d   1     -48.644  13.084  22.213  0.00  0.00     0.037 A 
ATOM      3  C   UNL d   1     -48.744  12.918  21.405  0.00  0.00     0.083 A 
ATOM      4  N   UNL d   1     -48.881  12.117  21.334  0.00  0.00    -0.245 NA
ATOM      5  C   UNL d   1     -48.710  13.478  20.779  0.00  0.00     0.021 C 
ATOM      6  C   UNL d   1     -48.870  11.771  22.081  0.00  0.00     0.081 A 
ATOM      7  C   UNL d   1     -48.720  12.383  22.638  0.00  0.00     0.021 A 
ATOM      8  C   UNL d   1     -48.973  10.999  22.336  0.00  0.00     0.019 A 
ATOM      9  C   UNL d   1     -48.676  12.208  23.437  0.00  0.00     0.002 A 
ATOM     10  C   UNL d   1     -48.782  11.414  23.698  0.00  0.00     0.000 A 
ATOM     11  C   UNL d   1     -48.926  10.828  23.164  0.00  0.00     0.002 A 
ENDBRANCH   1   2
BRANCH   1  12
ATOM     12  N   UNL d   1     -49.115  14.373  22.731  0.00  0.00    -0.302 N 
ATOM     13  C   UNL d   1     -49.435  14.867  22.152  0.00  0.00     0.080 A 
ATOM     14  C   UNL d   1     -50.053  15.373  22.349  0.00  0.00     0.019 A 
ATOM     15  C   UNL d   1     -50.352  15.388  23.118  0.00  0.00     0.003 A 
ATOM     16  C   UNL d   1     -50.037  14.898  23.697  0.00  0.00     0.019 A 
ATOM     17  C   UNL d   1     -50.980  15.904  23.312  0.00  0.00     0.000 C 
ATOM     18  C   UNL d   1     -49.418  14.391  23.500  0.00  0.00     0.080 A 
ENDBRANCH   1  12
BRANCH   1  19
ATOM     19  C   UNL d   1     -47.687  14.102  22.663  0.00  0.00     0.098 A 
ATOM     20  N   UNL d   1     -47.279  13.858  23.336  0.00  0.00    -0.243 NA
ATOM     21  C   UNL d   1     -46.504  14.090  23.463  0.00  0.00     0.099 A 
ATOM     22  C   UNL d   1     -46.132  14.573  22.910  0.00  0.00     0.021 A 
ATOM     23  C   UNL d   1     -46.538  14.819  22.235  0.00  0.00     0.003 A 
ATOM     24  C   UNL d   1     -47.330  14.587  22.096  0.00  0.00     0.021 A 
ENDBRANCH   1  19
TORSDOF 3
ENDMDL
MODEL 8
REMARK VINA RESULT:      -4.7      0.963      3.512
REMARK  3 active torsions:
REMARK  status: ('A' for Active; 'I' for Inactive)
REMARK    1  A    between atoms: C_5  and  C_1 
REMARK    2  A    between atoms: N_6  and  C_5 
REMARK    3  A    between atoms: C_8  and  C_5 
ROOT
ATOM      1  C   UNL d   1     -39.246  14.926  18.281  0.00  0.00     0.083 C 
ENDROOT
BRANCH   1   2
ATOM      2  C   UNL d   1     -38.771  14.581  17.661  0.00  0.00     0.037 A 
ATOM      3  C   UNL d   1     -38.337  15.013  17.099  0.00  0.00     0.083 A 
ATOM      4  N   UNL d   1     -37.965  14.475  16.611  0.00  0.00    -0.245 NA
ATOM      5  C   UNL d   1     -38.294  15.851  17.047  0.00  0.00     0.021 C 
ATOM      6  C   UNL d   1     -38.154  13.711  16.853  0.00  0.00     0.081 A 
ATOM      7  C   UNL d   1     -38.665  13.778  17.518  0.00  0.00     0.021 A 
ATOM      8  C   UNL d   1     -37.940  12.972  16.570  0.00  0.00     0.019 A 
ATOM      9  C   UNL d   1     -38.950  13.104  17.884  0.00  0.00     0.002 A 
ATOM     10  C   UNL d   1     -38.730  12.345  17.594  0.00  0.00     0.000 A 
ATOM     11  C   UNL d   1     -38.240  12.281  16.956  0.00  0.00     0.002 A 
ENDBRANCH   1   2
BRANCH   1  12
ATOM     12  N   UNL d   1     -38.922  15.071  19.036  0.00  0.00    -0.302 N 
ATOM     13  C   UNL d   1     -39.016  14.514  19.637  0.00  0.00     0.080 A 
ATOM     14  C   UNL d   1     -38.694  14.663  20.380  0.00  0.00     0.019 A 
ATOM     15  C   UNL d   1     -38.281  15.363  20.524  0.00  0.00     0.003 A 
ATOM     16  C   UNL d   1     -38.187  15.921  19.927  0.00  0.00     0.019 A 
ATOM     17  C   UNL d   1     -37.957  15.510  21.279  0.00  0.00     0.000 C 
ATOM     18  C   UNL d   1     -38.509  15.771  19.183  0.00  0.00     0.080 A 
ENDBRANCH   1  12
BRANCH   1  19
ATOM     19  C   UNL d   1     -40.056  15.120  18.124  0.00  0.00     0.098 A 
ATOM     20  N   UNL d   1     -40.663  14.709  18.498  0.00  0.00    -0.243 NA
ATOM     21  C   UNL d   1     -41.448  14.892  18.350  0.00  0.00     0.099 A 
ATOM     22  C   UNL d   1     -41.627  15.496  17.821  0.00  0.00     0.021 A 
ATOM     23  C   UNL d   1     -41.021  15.911  17.445  0.00  0.00     0.003 A 
ATOM     24  C   UNL d   1     -40.217  15.731  17.589  0.00  0.00     0.021 A 
ENDBRANCH   1  19
TORSDOF 3
ENDMDL
MODEL 9
REMARK VINA RESULT:      -4.5      0.771      3.562
REMARK  3 active torsions:
REMARK  status: ('A' for Active; 'I' for Inactive)
REMARK    1  A    between atoms: C_5  and  C_1 
REMARK    2  A    between atoms: N_6  and  C_5 
REMARK    3  A    between atoms: C_8  and  C_5 
ROOT
ATOM      1  C   UNL d   1     -39.328  14.390  18.565  0.00  0.00     0.083 C 
ENDROOT
BRANCH   1   2
ATOM      2  C   UNL d   1     -40.043  14.644  18.174  0.00  0.00     0.037 A 
ATOM      3  C   UNL d   1     -40.814  14.490  18.444  0.00  0.00     0.083 A 
ATOM      4  N   UNL d   1     -41.331  14.828  17.912  0.00  0.00    -0.245 NA
ATOM      5  C   UNL d   1     -41.016  14.062  19.139  0.00  0.00     0.021 C 
ATOM      6  C   UNL d   1     -40.905  15.194  17.310  0.00  0.00     0.081 A 
ATOM      7  C   UNL d   1     -40.088  15.077  17.476  0.00  0.00     0.021 A 
ATOM      8  C   UNL d   1     -41.134  15.611  16.643  0.00  0.00     0.019 A 
ATOM      9  C   UNL d   1     -39.521  15.381  16.970  0.00  0.00     0.002 A 
ATOM     10  C   UNL d   1     -39.758  15.810  16.285  0.00  0.00     0.000 A 
ATOM     11  C   UNL d   1     -40.540  15.921  16.126  0.00  0.00     0.002 A 
ENDBRANCH   1   2
BRANCH   1  12
ATOM     12  N   UNL d   1     -38.979  13.655  18.380  0.00  0.00    -0.302 N 
ATOM     13  C   UNL d   1     -38.734  13.499  17.607  0.00  0.00     0.080 A 
ATOM     14  C   UNL d   1     -38.390  12.773  17.431  0.00  0.00     0.019 A 
ATOM     15  C   UNL d   1     -38.289  12.204  18.020  0.00  0.00     0.003 A 
ATOM     16  C   UNL d   1     -38.531  12.356  18.791  0.00  0.00     0.019 A 
ATOM     17  C   UNL d   1     -37.940  11.469  17.836  0.00  0.00     0.000 C 
ATOM     18  C   UNL d   1     -38.876  13.083  18.968  0.00  0.00     0.080 A 
ENDBRANCH   1  12
BRANCH   1  19
ATOM     19  C   UNL d   1     -38.972  14.892  19.147  0.00  0.00     0.098 A 
ATOM     20  N   UNL d   1     -38.353  15.393  18.942  0.00  0.00    -0.243 NA
ATOM     21  C   UNL d   1     -38.004  15.882  19.500  0.00  0.00     0.099 A 
ATOM     22  C   UNL d   1     -38.280  15.868  20.275  0.00  0.00     0.021 A 
ATOM     23  C   UNL d   1     -38.902  15.366  20.484  0.00  0.00     0.003 A 
ATOM     24  C   UNL d   1     -39.263  14.865  19.921  0.00  0.00     0.021 A 
ENDBRANCH   1  19
TORSDOF 3
ENDMDL
