MODEL 1
REMARK VINA RESULT:      -4.1      0.000      0.000
REMARK  2 active torsions:
REMARK  status: ('A' for Active; 'I' for Inactive)
REMARK    1  A    between atoms: N_2  and  S_1 
REMARK    2  A    between atoms: C_4  and  S_1 
ROOT
ATOM      1  S   UNL d   1      57.424   0.023  31.009  0.00  0.00     0.273 S 
ATOM      2  O   UNL d   1      57.355  -0.679  31.434  0.00  0.00    -0.200 OA
ATOM      3  O   UNL d   1      56.982   0.682  31.235  0.00  0.00    -0.200 OA
ENDROOT
BRANCH   1   4
ATOM      4  N   UNL d   1      57.933   0.066  30.362  0.00  0.00    -0.212 N 
ATOM      5  C   UNL d   1      57.643  -0.099  29.598  0.00  0.00     0.193 A 
ATOM      6  N   UNL d   1      58.157  -0.056  28.944  0.00  0.00    -0.223 NA
ATOM      7  C   UNL d   1      59.237   0.312  29.817  0.00  0.00     0.100 A 
ATOM      8  C   UNL d   1      58.738   0.273  30.472  0.00  0.00     0.094 A 
ATOM      9  C   UNL d   1      60.039   0.519  29.930  0.00  0.00     0.021 A 
ATOM     10  C   UNL d   1      59.018   0.434  31.229  0.00  0.00     0.020 A 
ATOM     11  C   UNL d   1      59.812   0.639  31.340  0.00  0.00     0.002 A 
ATOM     12  C   UNL d   1      60.323   0.682  30.690  0.00  0.00     0.002 A 
ENDBRANCH   1   4
BRANCH   1  13
ATOM     13  C   UNL d   1      56.923  -0.031  31.652  0.00  0.00     0.104 A 
ATOM     14  C   UNL d   1      56.703  -0.775  31.936  0.00  0.00     0.012 A 
ATOM     15  C   UNL d   1      56.202  -0.839  32.579  0.00  0.00     0.001 A 
ATOM     16  C   UNL d   1      56.992  -1.451  31.566  0.00  0.00     0.001 C 
ATOM     17  C   UNL d   1      55.913  -0.155  32.949  0.00  0.00     0.000 A 
ATOM     18  C   UNL d   1      56.132   0.590  32.667  0.00  0.00     0.001 A 
ATOM     19  C   UNL d   1      55.411  -0.218  33.595  0.00  0.00     0.000 C 
ATOM     20  C   UNL d   1      56.637   0.645  32.019  0.00  0.00     0.013 A 
ENDBRANCH   1  13
TORSDOF 2
ENDMDL
MODEL 2
REMARK VINA RESULT:      -3.2      2.575      4.147
REMARK  2 active torsions:
REMARK  status: ('A' for Active; 'I' for Inactive)
REMARK    1  A    between atoms: N_2  and  S_1 
REMARK    2  A    between atoms: C_4  and  S_1 
ROOT
ATOM      1  S   UNL d   1      58.958  -1.336  29.023  0.00  0.00     0.273 S 
ATOM      2  O   UNL d   1      59.757  -1.414  29.206  0.00  0.00    -0.200 OA
ATOM      3  O   UNL d   1      58.530  -1.996  28.776  0.00  0.00    -0.200 OA
ENDROOT
BRANCH   1   4
ATOM      4  N   UNL d   1      58.590  -0.601  29.087  0.00  0.00    -0.212 N 
ATOM      5  C   UNL d   1      58.635  -0.061  28.455  0.00  0.00     0.193 A 
ATOM      6  N   UNL d   1      58.263   0.682  28.520  0.00  0.00    -0.223 NA
ATOM      7  C   UNL d   1      57.808   0.338  29.839  0.00  0.00     0.100 A 
ATOM      8  C   UNL d   1      58.172  -0.399  29.786  0.00  0.00     0.094 A 
ATOM      9  C   UNL d   1      57.393   0.537  30.536  0.00  0.00     0.021 A 
ATOM     10  C   UNL d   1      58.131  -0.937  30.407  0.00  0.00     0.020 A 
ATOM     11  C   UNL d   1      57.720  -0.741  31.098  0.00  0.00     0.002 A 
ATOM     12  C   UNL d   1      57.350  -0.002  31.162  0.00  0.00     0.002 A 
ENDBRANCH   1   4
BRANCH   1  13
ATOM     13  C   UNL d   1      59.334  -2.058  28.963  0.00  0.00     0.104 A 
ATOM     14  C   UNL d   1      60.160  -2.091  28.972  0.00  0.00     0.012 A 
ATOM     15  C   UNL d   1      60.544  -2.810  28.913  0.00  0.00     0.001 A 
ATOM     16  C   UNL d   1      60.591  -1.394  29.042  0.00  0.00     0.001 C 
ATOM     17  C   UNL d   1      60.105  -3.511  28.843  0.00  0.00     0.000 A 
ATOM     18  C   UNL d   1      59.280  -3.481  28.833  0.00  0.00     0.001 A 
ATOM     19  C   UNL d   1      60.490  -4.233  28.783  0.00  0.00     0.000 C 
ATOM     20  C   UNL d   1      58.901  -2.752  28.894  0.00  0.00     0.013 A 
ENDBRANCH   1  13
TORSDOF 2
ENDMDL
MODEL 3
REMARK VINA RESULT:      -2.9      1.892      3.872
REMARK  2 active torsions:
REMARK  status: ('A' for Active; 'I' for Inactive)
REMARK    1  A    between atoms: N_2  and  S_1 
REMARK    2  A    between atoms: C_4  and  S_1 
ROOT
ATOM      1  S   UNL d   1      56.182  -0.006  32.677  0.00  0.00     0.273 S 
ATOM      2  O   UNL d   1      56.647  -0.668  32.526  0.00  0.00    -0.200 OA
ATOM      3  O   UNL d   1      56.229   0.649  32.178  0.00  0.00    -0.200 OA
ENDROOT
BRANCH   1   4
ATOM      4  N   UNL d   1      55.671   0.001  33.325  0.00  0.00    -0.212 N 
ATOM      5  C   UNL d   1      54.875  -0.222  33.225  0.00  0.00     0.193 A 
ATOM      6  N   UNL d   1      54.359  -0.215  33.879  0.00  0.00    -0.223 NA
ATOM      7  C   UNL d   1      55.434   0.233  34.721  0.00  0.00     0.100 A 
ATOM      8  C   UNL d   1      55.953   0.230  34.081  0.00  0.00     0.094 A 
ATOM      9  C   UNL d   1      55.717   0.462  35.473  0.00  0.00     0.021 A 
ATOM     10  C   UNL d   1      56.741   0.449  34.174  0.00  0.00     0.020 A 
ATOM     11  C   UNL d   1      57.022   0.675  34.918  0.00  0.00     0.002 A 
ATOM     12  C   UNL d   1      56.509   0.682  35.569  0.00  0.00     0.002 A 
ENDBRANCH   1   4
BRANCH   1  13
ATOM     13  C   UNL d   1      56.690  -0.024  32.039  0.00  0.00     0.104 A 
ATOM     14  C   UNL d   1      56.863  -0.746  31.675  0.00  0.00     0.012 A 
ATOM     15  C   UNL d   1      57.372  -0.773  31.036  0.00  0.00     0.001 A 
ATOM     16  C   UNL d   1      56.519  -1.436  31.963  0.00  0.00     0.001 C 
ATOM     17  C   UNL d   1      57.717  -0.075  30.750  0.00  0.00     0.000 A 
ATOM     18  C   UNL d   1      57.546   0.647  31.111  0.00  0.00     0.001 A 
ATOM     19  C   UNL d   1      58.227  -0.102  30.108  0.00  0.00     0.000 C 
ATOM     20  C   UNL d   1      57.032   0.666  31.755  0.00  0.00     0.013 A 
ENDBRANCH   1  13
TORSDOF 2
ENDMDL
MODEL 4
REMARK VINA RESULT:      -2.6      1.234      3.693
REMARK  2 active torsions:
REMARK  status: ('A' for Active; 'I' for Inactive)
REMARK    1  A    between atoms: N_2  and  S_1 
REMARK    2  A    between atoms: C_4  and  S_1 
ROOT
ATOM      1  S   UNL d   1      57.665   0.293  31.661  0.00  0.00     0.273 S 
ATOM      2  O   UNL d   1      58.432   0.070  31.462  0.00  0.00    -0.200 OA
ATOM      3  O   UNL d   1      57.171   0.616  31.085  0.00  0.00    -0.200 OA
ENDROOT
BRANCH   1   4
ATOM      4  N   UNL d   1      57.394   0.193  32.434  0.00  0.00    -0.212 N 
ATOM      5  C   UNL d   1      57.690   0.681  33.041  0.00  0.00     0.193 A 
ATOM      6  N   UNL d   1      57.416   0.581  33.821  0.00  0.00    -0.223 NA
ATOM      7  C   UNL d   1      56.559  -0.486  33.382  0.00  0.00     0.100 A 
ATOM      8  C   UNL d   1      56.823  -0.396  32.607  0.00  0.00     0.094 A 
ATOM      9  C   UNL d   1      55.990  -1.074  33.552  0.00  0.00     0.021 A 
ATOM     10  C   UNL d   1      56.534  -0.875  32.003  0.00  0.00     0.020 A 
ATOM     11  C   UNL d   1      55.971  -1.457  32.171  0.00  0.00     0.002 A 
ATOM     12  C   UNL d   1      55.698  -1.557  32.946  0.00  0.00     0.002 A 
ENDBRANCH   1   4
BRANCH   1  13
ATOM     13  C   UNL d   1      57.945   0.386  30.900  0.00  0.00     0.104 A 
ATOM     14  C   UNL d   1      58.760   0.422  30.766  0.00  0.00     0.012 A 
ATOM     15  C   UNL d   1      59.049   0.515  30.008  0.00  0.00     0.001 A 
ATOM     16  C   UNL d   1      59.277   0.362  31.403  0.00  0.00     0.001 C 
ATOM     17  C   UNL d   1      58.524   0.575  29.368  0.00  0.00     0.000 A 
ATOM     18  C   UNL d   1      57.710   0.540  29.499  0.00  0.00     0.001 A 
ATOM     19  C   UNL d   1      58.813   0.669  28.606  0.00  0.00     0.000 C 
ATOM     20  C   UNL d   1      57.427   0.445  30.267  0.00  0.00     0.013 A 
ENDBRANCH   1  13
TORSDOF 2
ENDMDL
