MODEL 1
REMARK VINA RESULT:      22.8      0.000      0.000
REMARK  5 active torsions:
REMARK  status: ('A' for Active; 'I' for Inactive)
REMARK    1  A    between atoms: C_11  and  C_1 
REMARK    2  A    between atoms: C_14  and  N_4 
REMARK    3  A    between atoms: C_5  and  S_12 
REMARK    4  A    between atoms: C_16  and  C_11 
REMARK    5  A    between atoms: S_12  and  C_16 
ROOT
ATOM      1  C   UNL d   1      45.545 -15.804  44.271  0.00  0.00     0.057 A 
ATOM      2  C   UNL d   1      45.091 -15.136  44.475  0.00  0.00     0.067 A 
ATOM      3  N   UNL d   1      45.442 -14.482  44.139  0.00  0.00    -0.306 N 
ATOM      4  C   UNL d   1      46.122 -14.726  43.720  0.00  0.00     0.064 A 
ATOM      5  C   UNL d   1      46.173 -15.552  43.811  0.00  0.00     0.022 A 
ATOM      6  C   UNL d   1      44.380 -15.133  44.952  0.00  0.00     0.019 C 
ATOM      7  C   UNL d   1      46.647 -14.239  43.293  0.00  0.00     0.019 C 
ENDROOT
BRANCH   1   8
ATOM      8  C   UNL d   1      45.311 -16.544  44.541  0.00  0.00     0.204 C 
ATOM      9  O   UNL d   1      44.608 -16.606  44.953  0.00  0.00    -0.286 OA
BRANCH   8  10
ATOM     10  C   UNL d   1      45.777 -17.214  44.398  0.00  0.00     0.080 C 
BRANCH  10  11
ATOM     11  S   UNL d   1      45.458 -17.871  44.029  0.00  0.00    -0.044 SA
BRANCH  11  12
ATOM     12  C   UNL d   1      45.880 -18.584  43.998  0.00  0.00     0.201 A 
ATOM     13  N   UNL d   1      45.985 -19.082  43.359  0.00  0.00    -0.268 N 
ATOM     14  C   UNL d   1      46.451 -19.726  43.604  0.00  0.00     0.171 A 
ATOM     15  C   UNL d   1      45.716 -19.043  42.563  0.00  0.00     0.084 A 
ATOM     16  C   UNL d   1      46.647 -20.328  43.058  0.00  0.00     0.039 A 
ATOM     17  N   UNL d   1      46.624 -19.611  44.392  0.00  0.00    -0.128 NA
ATOM     18  C   UNL d   1      46.383 -20.290  42.278  0.00  0.00     0.005 A 
ATOM     19  C   UNL d   1      45.923 -19.651  42.043  0.00  0.00     0.019 A 
ATOM     20  N   UNL d   1      46.280 -18.922  44.628  0.00  0.00    -0.121 NA
ENDBRANCH  11  12
ENDBRANCH  10  11
ENDBRANCH   8  10
ENDBRANCH   1   8
BRANCH   3  21
ATOM     21  C   UNL d   1      45.237 -13.673  44.154  0.00  0.00     0.064 A 
ATOM     22  C   UNL d   1      44.771 -13.354  43.552  0.00  0.00     0.018 A 
ATOM     23  C   UNL d   1      44.568 -12.557  43.567  0.00  0.00     0.002 A 
ATOM     24  C   UNL d   1      44.826 -12.080  44.176  0.00  0.00     0.000 A 
ATOM     25  C   UNL d   1      45.296 -12.399  44.785  0.00  0.00     0.002 A 
ATOM     26  C   UNL d   1      45.494 -13.192  44.764  0.00  0.00     0.018 A 
ENDBRANCH   3  21
TORSDOF 5
ENDMDL
