MODEL 1
REMARK VINA RESULT:      36.4      0.000      0.000
REMARK  4 active torsions:
REMARK  status: ('A' for Active; 'I' for Inactive)
REMARK    1  A    between atoms: N_2  and  S_1 
REMARK    2  A    between atoms: C_7  and  S_1 
REMARK    3  A    between atoms: S_9  and  C_3 
REMARK    4  A    between atoms: C_13  and  S_9 
ROOT
ATOM      1  S   UNL d   1      60.545  49.400  50.332  0.00  0.00     0.273 S 
ATOM      2  O   UNL d   1      61.310  49.305  50.054  0.00  0.00    -0.200 OA
ATOM      3  O   UNL d   1      60.501  49.561  49.520  0.00  0.00    -0.200 OA
ENDROOT
BRANCH   1   4
ATOM      4  N   UNL d   1      60.834  49.202  51.085  0.00  0.00    -0.208 N 
ATOM      5  C   UNL d   1      61.242  48.502  51.283  0.00  0.00     0.189 A 
ATOM      6  N   UNL d   1      61.428  48.531  52.091  0.00  0.00    -0.219 NA
ATOM      7  C   UNL d   1      61.135  49.248  52.391  0.00  0.00     0.121 A 
ATOM      8  C   UNL d   1      60.769  49.664  51.777  0.00  0.00     0.114 A 
BRANCH   5   9
ATOM      9  S   UNL d   1      61.429  47.882  50.759  0.00  0.00    -0.049 SA
BRANCH   9  10
ATOM     10  C   UNL d   1      60.990  47.181  50.778  0.00  0.00     0.038 C 
ATOM     11  C   UNL d   1      61.117  46.603  50.202  0.00  0.00     0.008 C 
ENDBRANCH   9  10
ENDBRANCH   5   9
ENDBRANCH   1   4
BRANCH   1  12
ATOM     12  C   UNL d   1      59.766  49.499  50.595  0.00  0.00     0.104 A 
ATOM     13  C   UNL d   1      59.156  49.529  50.046  0.00  0.00     0.013 A 
ATOM     14  C   UNL d   1      58.381  49.628  50.309  0.00  0.00     0.001 A 
ATOM     15  C   UNL d   1      58.224  49.696  51.116  0.00  0.00     0.000 A 
ATOM     16  C   UNL d   1      58.838  49.665  51.660  0.00  0.00     0.001 A 
ATOM     17  C   UNL d   1      59.617  49.565  51.393  0.00  0.00     0.013 A 
ENDBRANCH   1  12
TORSDOF 4
ENDMDL
MODEL 2
REMARK VINA RESULT:      39.2      1.188      2.917
REMARK  4 active torsions:
REMARK  status: ('A' for Active; 'I' for Inactive)
REMARK    1  A    between atoms: N_2  and  S_1 
REMARK    2  A    between atoms: C_7  and  S_1 
REMARK    3  A    between atoms: S_9  and  C_3 
REMARK    4  A    between atoms: C_13  and  S_9 
ROOT
ATOM      1  S   UNL d   1      60.837  48.926  51.370  0.00  0.00     0.273 S 
ATOM      2  O   UNL d   1      60.724  49.691  51.644  0.00  0.00    -0.200 OA
ATOM      3  O   UNL d   1      61.029  48.897  52.176  0.00  0.00    -0.200 OA
ENDROOT
BRANCH   1   4
ATOM      4  N   UNL d   1      60.601  49.199  50.622  0.00  0.00    -0.208 N 
ATOM      5  C   UNL d   1      59.844  49.488  50.424  0.00  0.00     0.189 A 
ATOM      6  N   UNL d   1      59.850  49.701  49.622  0.00  0.00    -0.219 NA
ATOM      7  C   UNL d   1      60.610  49.543  49.325  0.00  0.00     0.121 A 
ATOM      8  C   UNL d   1      61.075  49.235  49.936  0.00  0.00     0.114 A 
BRANCH   5   9
ATOM      9  S   UNL d   1      59.196  49.552  50.943  0.00  0.00    -0.049 SA
BRANCH   9  10
ATOM     10  C   UNL d   1      58.440  49.705  50.641  0.00  0.00     0.038 C 
ATOM     11  C   UNL d   1      57.854  49.127  50.694  0.00  0.00     0.008 C 
ENDBRANCH   9  10
ENDBRANCH   5   9
ENDBRANCH   1   4
BRANCH   1  12
ATOM     12  C   UNL d   1      60.956  48.149  51.111  0.00  0.00     0.104 A 
ATOM     13  C   UNL d   1      60.646  47.526  51.547  0.00  0.00     0.013 A 
ATOM     14  C   UNL d   1      60.765  46.753  51.288  0.00  0.00     0.001 A 
ATOM     15  C   UNL d   1      61.192  46.609  50.597  0.00  0.00     0.000 A 
ATOM     16  C   UNL d   1      61.500  47.236  50.164  0.00  0.00     0.001 A 
ATOM     17  C   UNL d   1      61.378  48.013  50.427  0.00  0.00     0.013 A 
ENDBRANCH   1  12
TORSDOF 4
ENDMDL
