MODEL 1
REMARK VINA RESULT:      -3.1      0.000      0.000
REMARK  2 active torsions:
REMARK  status: ('A' for Active; 'I' for Inactive)
REMARK    1  A    between atoms: C_10  and  N_3 
REMARK    2  A    between atoms: C_11  and  C_4 
ROOT
ATOM      1  C   UNL d   1      31.247  16.429 -23.816  0.00  0.00     0.154 A 
ATOM      2  C   UNL d   1      31.868  16.962 -23.854  0.00  0.00     0.094 A 
ATOM      3  N   UNL d   1      30.571  16.801 -24.115  0.00  0.00    -0.290 N 
ATOM      4  C   UNL d   1      31.582  17.668 -24.176  0.00  0.00     0.025 A 
ATOM      5  C   UNL d   1      30.785  17.565 -24.335  0.00  0.00     0.082 A 
ATOM      6  N   UNL d   1      31.366  15.670 -23.516  0.00  0.00    -0.206 NA
ATOM      7  C   UNL d   1      32.620  16.745 -23.592  0.00  0.00     0.284 A 
ATOM      8  N   UNL d   1      32.740  15.985 -23.291  0.00  0.00    -0.186 NA
ATOM      9  C   UNL d   1      32.119  15.453 -23.253  0.00  0.00     0.203 A 
ATOM     10  O   UNL d   1      33.241  17.277 -23.629  0.00  0.00    -0.265 OA
ENDROOT
BRANCH   3  11
ATOM     11  C   UNL d   1      29.816  16.506 -24.195  0.00  0.00     0.065 A 
ATOM     12  C   UNL d   1      29.613  16.068 -24.863  0.00  0.00     0.018 A 
ATOM     13  C   UNL d   1      28.847  15.768 -24.945  0.00  0.00     0.002 A 
ATOM     14  C   UNL d   1      28.277  15.907 -24.352  0.00  0.00     0.000 A 
ATOM     15  C   UNL d   1      28.490  16.346 -23.685  0.00  0.00     0.002 A 
ATOM     16  C   UNL d   1      29.255  16.644 -23.608  0.00  0.00     0.018 A 
ENDBRANCH   3  11
BRANCH   4  17
ATOM     17  C   UNL d   1      32.120  18.287 -24.265  0.00  0.00     0.002 A 
ATOM     18  C   UNL d   1      32.459  18.440 -25.004  0.00  0.00     0.000 A 
ATOM     19  C   UNL d   1      32.997  19.059 -25.093  0.00  0.00     0.000 A 
ATOM     20  C   UNL d   1      33.195  19.526 -24.444  0.00  0.00     0.000 A 
ATOM     21  C   UNL d   1      32.856  19.373 -23.706  0.00  0.00     0.000 A 
ATOM     22  C   UNL d   1      32.322  18.757 -23.617  0.00  0.00     0.000 A 
ENDBRANCH   4  17
TORSDOF 2
ENDMDL
MODEL 2
REMARK VINA RESULT:      -2.0      2.117      4.320
REMARK  2 active torsions:
REMARK  status: ('A' for Active; 'I' for Inactive)
REMARK    1  A    between atoms: C_10  and  N_3 
REMARK    2  A    between atoms: C_11  and  C_4 
ROOT
ATOM      1  C   UNL d   1      32.958  19.418 -23.469  0.00  0.00     0.154 A 
ATOM      2  C   UNL d   1      32.875  18.674 -23.801  0.00  0.00     0.094 A 
ATOM      3  N   UNL d   1      32.829  19.352 -22.655  0.00  0.00    -0.290 N 
ATOM      4  C   UNL d   1      32.694  18.141 -23.195  0.00  0.00     0.025 A 
ATOM      5  C   UNL d   1      32.667  18.561 -22.493  0.00  0.00     0.082 A 
ATOM      6  N   UNL d   1      33.140  20.068 -23.944  0.00  0.00    -0.206 NA
ATOM      7  C   UNL d   1      32.973  18.566 -24.614  0.00  0.00     0.284 A 
ATOM      8  N   UNL d   1      33.155  19.217 -25.089  0.00  0.00    -0.186 NA
ATOM      9  C   UNL d   1      33.238  19.961 -24.757  0.00  0.00     0.203 A 
ATOM     10  O   UNL d   1      32.890  17.822 -24.945  0.00  0.00    -0.265 OA
ENDROOT
BRANCH   3  11
ATOM     11  C   UNL d   1      32.849  19.933 -22.084  0.00  0.00     0.065 A 
ATOM     12  C   UNL d   1      33.220  19.789 -21.362  0.00  0.00     0.018 A 
ATOM     13  C   UNL d   1      33.241  20.377 -20.782  0.00  0.00     0.002 A 
ATOM     14  C   UNL d   1      32.885  21.119 -20.925  0.00  0.00     0.000 A 
ATOM     15  C   UNL d   1      32.515  21.253 -21.651  0.00  0.00     0.002 A 
ATOM     16  C   UNL d   1      32.497  20.664 -22.227  0.00  0.00     0.018 A 
ENDBRANCH   3  11
BRANCH   4  17
ATOM     17  C   UNL d   1      32.586  17.350 -23.407  0.00  0.00     0.002 A 
ATOM     18  C   UNL d   1      31.829  17.067 -23.579  0.00  0.00     0.000 A 
ATOM     19  C   UNL d   1      31.721  16.276 -23.791  0.00  0.00     0.000 A 
ATOM     20  C   UNL d   1      32.369  15.771 -23.831  0.00  0.00     0.000 A 
ATOM     21  C   UNL d   1      33.127  16.055 -23.659  0.00  0.00     0.000 A 
ATOM     22  C   UNL d   1      33.234  16.841 -23.448  0.00  0.00     0.000 A 
ENDBRANCH   4  17
TORSDOF 2
ENDMDL
MODEL 3
REMARK VINA RESULT:      -1.8      1.618      2.382
REMARK  2 active torsions:
REMARK  status: ('A' for Active; 'I' for Inactive)
REMARK    1  A    between atoms: C_10  and  N_3 
REMARK    2  A    between atoms: C_11  and  C_4 
ROOT
ATOM      1  C   UNL d   1      29.778  16.998 -24.409  0.00  0.00     0.154 A 
ATOM      2  C   UNL d   1      30.596  16.957 -24.408  0.00  0.00     0.094 A 
ATOM      3  N   UNL d   1      29.486  16.323 -24.030  0.00  0.00    -0.290 N 
ATOM      4  C   UNL d   1      30.818  16.257 -24.029  0.00  0.00     0.025 A 
ATOM      5  C   UNL d   1      30.133  15.870 -23.798  0.00  0.00     0.082 A 
ATOM      6  N   UNL d   1      29.393  17.642 -24.753  0.00  0.00    -0.206 NA
ATOM      7  C   UNL d   1      31.044  17.559 -24.751  0.00  0.00     0.284 A 
ATOM      8  N   UNL d   1      30.659  18.203 -25.096  0.00  0.00    -0.186 NA
ATOM      9  C   UNL d   1      29.841  18.244 -25.097  0.00  0.00     0.203 A 
ATOM     10  O   UNL d   1      31.862  17.518 -24.751  0.00  0.00    -0.265 OA
ENDROOT
BRANCH   3  11
ATOM     11  C   UNL d   1      28.713  16.107 -23.890  0.00  0.00     0.065 A 
ATOM     12  C   UNL d   1      28.295  15.679 -24.458  0.00  0.00     0.018 A 
ATOM     13  C   UNL d   1      27.511  15.460 -24.317  0.00  0.00     0.002 A 
ATOM     14  C   UNL d   1      27.140  15.669 -23.600  0.00  0.00     0.000 A 
ATOM     15  C   UNL d   1      27.567  16.097 -23.037  0.00  0.00     0.002 A 
ATOM     16  C   UNL d   1      28.348  16.315 -23.181  0.00  0.00     0.018 A 
ENDBRANCH   3  11
BRANCH   4  17
ATOM     17  C   UNL d   1      31.626  16.101 -23.964  0.00  0.00     0.002 A 
ATOM     18  C   UNL d   1      32.015  15.678 -24.558  0.00  0.00     0.000 A 
ATOM     19  C   UNL d   1      32.823  15.522 -24.494  0.00  0.00     0.000 A 
ATOM     20  C   UNL d   1      33.241  15.790 -23.837  0.00  0.00     0.000 A 
ATOM     21  C   UNL d   1      32.851  16.214 -23.244  0.00  0.00     0.000 A 
ATOM     22  C   UNL d   1      32.048  16.369 -23.307  0.00  0.00     0.000 A 
ENDBRANCH   4  17
TORSDOF 2
ENDMDL
MODEL 4
REMARK VINA RESULT:      -1.0      3.924      5.587
REMARK  2 active torsions:
REMARK  status: ('A' for Active; 'I' for Inactive)
REMARK    1  A    between atoms: C_10  and  N_3 
REMARK    2  A    between atoms: C_11  and  C_4 
ROOT
ATOM      1  C   UNL d   1      32.906  21.299 -22.681  0.00  0.00     0.154 A 
ATOM      2  C   UNL d   1      32.833  21.918 -22.149  0.00  0.00     0.094 A 
ATOM      3  N   UNL d   1      32.802  20.591 -22.266  0.00  0.00    -0.290 N 
ATOM      4  C   UNL d   1      32.683  21.598 -21.401  0.00  0.00     0.025 A 
ATOM      5  C   UNL d   1      32.666  20.782 -21.477  0.00  0.00     0.082 A 
ATOM      6  N   UNL d   1      33.057  21.450 -23.478  0.00  0.00    -0.206 NA
ATOM      7  C   UNL d   1      32.910  22.698 -22.405  0.00  0.00     0.284 A 
ATOM      8  N   UNL d   1      33.061  22.850 -23.202  0.00  0.00    -0.186 NA
ATOM      9  C   UNL d   1      33.134  22.231 -23.734  0.00  0.00     0.203 A 
ATOM     10  O   UNL d   1      32.836  23.317 -21.873  0.00  0.00    -0.265 OA
ENDROOT
BRANCH   3  11
ATOM     11  C   UNL d   1      32.824  19.825 -22.545  0.00  0.00     0.065 A 
ATOM     12  C   UNL d   1      33.218  19.241 -22.118  0.00  0.00     0.018 A 
ATOM     13  C   UNL d   1      33.241  18.465 -22.400  0.00  0.00     0.002 A 
ATOM     14  C   UNL d   1      32.863  18.269 -23.119  0.00  0.00     0.000 A 
ATOM     15  C   UNL d   1      32.470  18.861 -23.540  0.00  0.00     0.002 A 
ATOM     16  C   UNL d   1      32.451  19.635 -23.255  0.00  0.00     0.018 A 
ENDBRANCH   3  11
BRANCH   4  17
ATOM     17  C   UNL d   1      32.590  22.128 -20.775  0.00  0.00     0.002 A 
ATOM     18  C   UNL d   1      33.229  22.304 -20.282  0.00  0.00     0.000 A 
ATOM     19  C   UNL d   1      33.135  22.834 -19.656  0.00  0.00     0.000 A 
ATOM     20  C   UNL d   1      32.403  23.187 -19.524  0.00  0.00     0.000 A 
ATOM     21  C   UNL d   1      31.764  23.010 -20.019  0.00  0.00     0.000 A 
ATOM     22  C   UNL d   1      31.857  22.483 -20.641  0.00  0.00     0.000 A 
ENDBRANCH   4  17
TORSDOF 2
ENDMDL
MODEL 5
REMARK VINA RESULT:      -0.8      0.860      1.118
REMARK  2 active torsions:
REMARK  status: ('A' for Active; 'I' for Inactive)
REMARK    1  A    between atoms: C_10  and  N_3 
REMARK    2  A    between atoms: C_11  and  C_4 
ROOT
ATOM      1  C   UNL d   1      31.119  16.635 -24.601  0.00  0.00     0.154 A 
ATOM      2  C   UNL d   1      31.770  17.132 -24.624  0.00  0.00     0.094 A 
ATOM      3  N   UNL d   1      30.462  17.084 -24.373  0.00  0.00    -0.290 N 
ATOM      4  C   UNL d   1      31.522  17.892 -24.412  0.00  0.00     0.025 A 
ATOM      5  C   UNL d   1      30.718  17.858 -24.259  0.00  0.00     0.082 A 
ATOM      6  N   UNL d   1      31.197  15.836 -24.787  0.00  0.00    -0.206 NA
ATOM      7  C   UNL d   1      32.511  16.837 -24.836  0.00  0.00     0.284 A 
ATOM      8  N   UNL d   1      32.590  16.037 -25.023  0.00  0.00    -0.186 NA
ATOM      9  C   UNL d   1      31.939  15.540 -24.999  0.00  0.00     0.203 A 
ATOM     10  O   UNL d   1      33.162  17.334 -24.860  0.00  0.00    -0.265 OA
ENDROOT
BRANCH   3  11
ATOM     11  C   UNL d   1      29.690  16.846 -24.270  0.00  0.00     0.065 A 
ATOM     12  C   UNL d   1      29.506  16.271 -23.708  0.00  0.00     0.018 A 
ATOM     13  C   UNL d   1      28.723  16.030 -23.602  0.00  0.00     0.002 A 
ATOM     14  C   UNL d   1      28.115  16.367 -24.064  0.00  0.00     0.000 A 
ATOM     15  C   UNL d   1      28.308  16.943 -24.624  0.00  0.00     0.002 A 
ATOM     16  C   UNL d   1      29.091  17.181 -24.726  0.00  0.00     0.018 A 
ENDBRANCH   3  11
BRANCH   4  17
ATOM     17  C   UNL d   1      32.094  18.486 -24.399  0.00  0.00     0.002 A 
ATOM     18  C   UNL d   1      32.271  18.876 -23.693  0.00  0.00     0.000 A 
ATOM     19  C   UNL d   1      32.844  19.471 -23.680  0.00  0.00     0.000 A 
ATOM     20  C   UNL d   1      33.238  19.675 -24.373  0.00  0.00     0.000 A 
ATOM     21  C   UNL d   1      33.060  19.284 -25.080  0.00  0.00     0.000 A 
ATOM     22  C   UNL d   1      32.491  18.693 -25.093  0.00  0.00     0.000 A 
ENDBRANCH   4  17
TORSDOF 2
ENDMDL
MODEL 6
REMARK VINA RESULT:      -0.8      2.684      4.086
REMARK  2 active torsions:
REMARK  status: ('A' for Active; 'I' for Inactive)
REMARK    1  A    between atoms: C_10  and  N_3 
REMARK    2  A    between atoms: C_11  and  C_4 
ROOT
ATOM      1  C   UNL d   1      32.765  19.709 -23.358  0.00  0.00     0.154 A 
ATOM      2  C   UNL d   1      32.812  20.335 -22.831  0.00  0.00     0.094 A 
ATOM      3  N   UNL d   1      32.519  19.040 -22.939  0.00  0.00    -0.290 N 
ATOM      4  C   UNL d   1      32.595  20.058 -22.083  0.00  0.00     0.025 A 
ATOM      5  C   UNL d   1      32.416  19.262 -22.153  0.00  0.00     0.082 A 
ATOM      6  N   UNL d   1      32.951  19.819 -24.154  0.00  0.00    -0.206 NA
ATOM      7  C   UNL d   1      33.045  21.082 -23.092  0.00  0.00     0.284 A 
ATOM      8  N   UNL d   1      33.231  21.193 -23.889  0.00  0.00    -0.186 NA
ATOM      9  C   UNL d   1      33.185  20.567 -24.415  0.00  0.00     0.203 A 
ATOM     10  O   UNL d   1      33.091  21.708 -22.565  0.00  0.00    -0.265 OA
ENDROOT
BRANCH   3  11
ATOM     11  C   UNL d   1      32.391  18.283 -23.213  0.00  0.00     0.065 A 
ATOM     12  C   UNL d   1      31.761  18.129 -23.722  0.00  0.00     0.018 A 
ATOM     13  C   UNL d   1      31.630  17.362 -24.000  0.00  0.00     0.002 A 
ATOM     14  C   UNL d   1      32.134  16.740 -23.765  0.00  0.00     0.000 A 
ATOM     15  C   UNL d   1      32.762  16.903 -23.254  0.00  0.00     0.002 A 
ATOM     16  C   UNL d   1      32.889  17.670 -22.979  0.00  0.00     0.018 A 
ENDBRANCH   3  11
BRANCH   4  17
ATOM     17  C   UNL d   1      32.603  20.602 -21.462  0.00  0.00     0.002 A 
ATOM     18  C   UNL d   1      33.229  20.607 -20.922  0.00  0.00     0.000 A 
ATOM     19  C   UNL d   1      33.236  21.150 -20.301  0.00  0.00     0.000 A 
ATOM     20  C   UNL d   1      32.619  21.689 -20.221  0.00  0.00     0.000 A 
ATOM     21  C   UNL d   1      31.993  21.684 -20.761  0.00  0.00     0.000 A 
ATOM     22  C   UNL d   1      31.985  21.143 -21.378  0.00  0.00     0.000 A 
ENDBRANCH   4  17
TORSDOF 2
ENDMDL
