MODEL 1
REMARK VINA RESULT:      41.5      0.000      0.000
REMARK  3 active torsions:
REMARK  status: ('A' for Active; 'I' for Inactive)
REMARK    1  A    between atoms: S_3  and  N_1 
REMARK    2  A    between atoms: C_7  and  C_4 
REMARK    3  A    between atoms: C_11  and  C_5 
ROOT
ATOM      1  N   UNL d   1      60.421  49.065  50.738  0.00  0.00    -0.155 N 
ATOM      2  N   UNL d   1      59.764  49.042  50.248  0.00  0.00    -0.156 NA
ATOM      3  C   UNL d   1      60.196  49.394  51.473  0.00  0.00     0.102 A 
ATOM      4  C   UNL d   1      59.118  49.360  50.678  0.00  0.00     0.104 A 
ATOM      5  C   UNL d   1      59.396  49.571  51.423  0.00  0.00     0.041 A 
ENDROOT
BRANCH   4   6
ATOM      6  C   UNL d   1      58.337  49.448  50.403  0.00  0.00     0.019 A 
ATOM      7  C   UNL d   1      58.193  49.511  49.583  0.00  0.00     0.002 A 
ATOM      8  C   UNL d   1      57.410  49.599  49.305  0.00  0.00     0.000 A 
ATOM      9  C   UNL d   1      56.778  49.624  49.842  0.00  0.00     0.000 A 
ATOM     10  C   UNL d   1      56.943  49.560  50.646  0.00  0.00     0.000 A 
ATOM     11  C   UNL d   1      56.034  49.708  49.571  0.00  0.00     0.000 C 
ATOM     12  C   UNL d   1      57.706  49.473  50.939  0.00  0.00     0.002 A 
ENDBRANCH   4   6
BRANCH   1  13
ATOM     13  S   UNL d   1      61.194  48.794  50.519  0.00  0.00     0.266 S 
ATOM     14  O   UNL d   1      61.949  48.494  50.317  0.00  0.00    -0.203 OA
ATOM     15  O   UNL d   1      61.371  49.529  50.204  0.00  0.00    -0.203 OA
ATOM     16  C   UNL d   1      60.991  48.028  50.854  0.00  0.00     0.165 C 
ENDBRANCH   1  13
BRANCH   3  17
ATOM     17  C   UNL d   1      60.706  49.514  52.127  0.00  0.00     0.048 A 
ATOM     18  S   UNL d   1      60.461  49.567  52.922  0.00  0.00    -0.085 SA
ATOM     19  C   UNL d   1      61.153  49.686  53.363  0.00  0.00     0.035 A 
ATOM     20  C   UNL d   1      61.796  49.707  52.880  0.00  0.00     0.007 A 
ATOM     21  C   UNL d   1      61.526  49.601  52.110  0.00  0.00     0.009 A 
ENDBRANCH   3  17
TORSDOF 3
ENDMDL
