MODEL 1
REMARK VINA RESULT:      73.7      0.000      0.000
REMARK  9 active torsions:
REMARK  status: ('A' for Active; 'I' for Inactive)
REMARK    1  A    between atoms: C_10  and  S_1 
REMARK    2  A    between atoms: N_11  and  S_1 
REMARK    3  A    between atoms: C_8  and  C_2 
REMARK    4  A    between atoms: C_3  and  N_6 
REMARK       I    between atoms: N_6  and  C_9 
REMARK    5  A    between atoms: C_9  and  C_14 
REMARK    6  A    between atoms: C_23  and  N_11 
REMARK    7  A    between atoms: C_24  and  N_11 
REMARK    8  A    between atoms: C_26  and  C_24 
REMARK    9  A    between atoms: C_27  and  C_26 
ROOT
ATOM      1  C   UNL d   1     -49.029  28.042  34.892  0.00  0.00     0.104 A 
ATOM      2  C   UNL d   1     -48.045  28.953  35.869  0.00  0.00     0.058 A 
ATOM      3  C   UNL d   1     -49.332  28.420  35.560  0.00  0.00     0.013 A 
ATOM      4  C   UNL d   1     -48.239  28.123  34.719  0.00  0.00     0.013 A 
ATOM      5  C   UNL d   1     -48.834  28.874  36.044  0.00  0.00     0.005 A 
ATOM      6  C   UNL d   1     -47.743  28.575  35.201  0.00  0.00     0.005 A 
ENDROOT
BRANCH   2   7
ATOM      7  C   UNL d   1     -47.546  29.411  36.359  0.00  0.00     0.282 C 
ATOM      8  N   UNL d   1     -47.262  30.144  36.097  0.00  0.00    -0.165 NA
ATOM      9  O   UNL d   1     -47.339  29.137  37.094  0.00  0.00    -0.265 OA
BRANCH   8  10
ATOM     10  C   UNL d   1     -47.468  30.418  35.362  0.00  0.00     0.297 A 
ATOM     11  O   UNL d   1     -47.490  31.231  35.216  0.00  0.00    -0.253 OA
ATOM     12  C   UNL d   1     -47.714  31.338  34.433  0.00  0.00     0.207 A 
ATOM     13  N   UNL d   1     -47.828  30.596  34.105  0.00  0.00    -0.119 NA
ATOM     14  N   UNL d   1     -47.678  30.022  34.676  0.00  0.00    -0.101 NA
BRANCH  12  15
ATOM     15  C   UNL d   1     -47.791  32.090  34.102  0.00  0.00     0.054 A 
ATOM     16  C   UNL d   1     -48.520  32.324  33.800  0.00  0.00     0.061 A 
ATOM     17 CL   UNL d   1     -49.165  31.811  33.828  0.00  0.00    -0.082 Cl
ATOM     18  C   UNL d   1     -48.599  33.073  33.470  0.00  0.00     0.011 A 
ATOM     19  C   UNL d   1     -47.955  33.603  33.435  0.00  0.00     0.001 A 
ATOM     20  C   UNL d   1     -47.232  33.373  33.734  0.00  0.00     0.000 A 
ATOM     21  C   UNL d   1     -47.150  32.613  34.069  0.00  0.00     0.004 A 
ENDBRANCH  12  15
ENDBRANCH   8  10
ENDBRANCH   2   7
BRANCH   1  22
ATOM     22  S   UNL d   1     -49.521  27.582  34.398  0.00  0.00     0.271 S 
ATOM     23  O   UNL d   1     -48.983  27.660  33.772  0.00  0.00    -0.200 OA
ATOM     24  O   UNL d   1     -50.056  27.506  35.022  0.00  0.00    -0.200 OA
BRANCH  22  25
ATOM     25  N   UNL d   1     -50.021  27.116  33.896  0.00  0.00    -0.229 N 
BRANCH  25  26
ATOM     26  C   UNL d   1     -50.519  27.471  33.343  0.00  0.00     0.092 C 
ATOM     27  C   UNL d   1     -51.322  27.281  33.325  0.00  0.00     0.021 C 
ENDBRANCH  25  26
BRANCH  25  28
ATOM     28  C   UNL d   1     -50.004  26.296  33.966  0.00  0.00     0.092 C 
BRANCH  28  29
ATOM     29  C   UNL d   1     -50.168  25.831  33.306  0.00  0.00     0.020 C 
BRANCH  29  30
ATOM     30  C   UNL d   1     -49.950  25.038  33.306  0.00  0.00     0.002 C 
ATOM     31  C   UNL d   1     -50.372  24.498  33.764  0.00  0.00     0.000 C 
ENDBRANCH  29  30
ENDBRANCH  28  29
ENDBRANCH  25  28
ENDBRANCH  22  25
ENDBRANCH   1  22
TORSDOF 9
ENDMDL
MODEL 2
REMARK VINA RESULT:      74.6      3.899      6.054
REMARK  9 active torsions:
REMARK  status: ('A' for Active; 'I' for Inactive)
REMARK    1  A    between atoms: C_10  and  S_1 
REMARK    2  A    between atoms: N_11  and  S_1 
REMARK    3  A    between atoms: C_8  and  C_2 
REMARK    4  A    between atoms: C_3  and  N_6 
REMARK       I    between atoms: N_6  and  C_9 
REMARK    5  A    between atoms: C_9  and  C_14 
REMARK    6  A    between atoms: C_23  and  N_11 
REMARK    7  A    between atoms: C_24  and  N_11 
REMARK    8  A    between atoms: C_26  and  C_24 
REMARK    9  A    between atoms: C_27  and  C_26 
ROOT
ATOM      1  C   UNL d   1     -50.617  26.783  36.208  0.00  0.00     0.104 A 
ATOM      2  C   UNL d   1     -49.865  26.990  34.744  0.00  0.00     0.058 A 
ATOM      3  C   UNL d   1     -50.896  27.340  35.666  0.00  0.00     0.013 A 
ATOM      4  C   UNL d   1     -49.967  26.336  36.013  0.00  0.00     0.013 A 
ATOM      5  C   UNL d   1     -50.515  27.438  34.936  0.00  0.00     0.005 A 
ATOM      6  C   UNL d   1     -49.587  26.434  35.286  0.00  0.00     0.005 A 
ENDROOT
BRANCH   2   7
ATOM      7  C   UNL d   1     -49.482  27.092  34.007  0.00  0.00     0.282 C 
ATOM      8  N   UNL d   1     -49.855  26.852  33.307  0.00  0.00    -0.165 NA
ATOM      9  O   UNL d   1     -48.744  27.427  33.977  0.00  0.00    -0.265 OA
BRANCH   8  10
ATOM     10  C   UNL d   1     -50.593  26.518  33.336  0.00  0.00     0.297 A 
ATOM     11  O   UNL d   1     -50.676  25.697  33.309  0.00  0.00    -0.253 OA
ATOM     12  C   UNL d   1     -51.478  25.525  33.347  0.00  0.00     0.207 A 
ATOM     13  N   UNL d   1     -51.881  26.236  33.397  0.00  0.00    -0.119 NA
ATOM     14  N   UNL d   1     -51.338  26.856  33.390  0.00  0.00    -0.101 NA
BRANCH  12  15
ATOM     15  C   UNL d   1     -51.757  24.748  33.334  0.00  0.00     0.054 A 
ATOM     16  C   UNL d   1     -52.570  24.613  33.322  0.00  0.00     0.061 A 
ATOM     17 CL   UNL d   1     -53.096  25.247  33.324  0.00  0.00    -0.082 Cl
ATOM     18  C   UNL d   1     -52.850  23.840  33.308  0.00  0.00     0.011 A 
ATOM     19  C   UNL d   1     -52.328  23.188  33.306  0.00  0.00     0.001 A 
ATOM     20  C   UNL d   1     -51.524  23.320  33.317  0.00  0.00     0.000 A 
ATOM     21  C   UNL d   1     -51.238  24.104  33.331  0.00  0.00     0.004 A 
ENDBRANCH  12  15
ENDBRANCH   8  10
ENDBRANCH   2   7
BRANCH   1  22
ATOM     22  S   UNL d   1     -50.994  26.676  36.946  0.00  0.00     0.271 S 
ATOM     23  O   UNL d   1     -51.693  27.009  36.650  0.00  0.00    -0.200 OA
ATOM     24  O   UNL d   1     -50.297  26.344  37.239  0.00  0.00    -0.200 OA
BRANCH  22  25
ATOM     25  N   UNL d   1     -51.376  26.567  37.694  0.00  0.00    -0.229 N 
BRANCH  25  26
ATOM     26  C   UNL d   1     -51.432  27.186  38.237  0.00  0.00     0.092 C 
ATOM     27  C   UNL d   1     -51.010  27.156  38.946  0.00  0.00     0.021 C 
ENDBRANCH  25  26
BRANCH  25  28
ATOM     28  C   UNL d   1     -51.694  25.830  37.878  0.00  0.00     0.092 C 
BRANCH  28  29
ATOM     29  C   UNL d   1     -52.511  25.725  37.853  0.00  0.00     0.020 C 
BRANCH  29  30
ATOM     30  C   UNL d   1     -52.881  25.292  38.446  0.00  0.00     0.002 C 
ATOM     31  C   UNL d   1     -52.745  24.481  38.505  0.00  0.00     0.000 C 
ENDBRANCH  29  30
ENDBRANCH  28  29
ENDBRANCH  25  28
ENDBRANCH  22  25
ENDBRANCH   1  22
TORSDOF 9
ENDMDL
MODEL 3
REMARK VINA RESULT:      76.1      0.706      1.261
REMARK  9 active torsions:
REMARK  status: ('A' for Active; 'I' for Inactive)
REMARK    1  A    between atoms: C_10  and  S_1 
REMARK    2  A    between atoms: N_11  and  S_1 
REMARK    3  A    between atoms: C_8  and  C_2 
REMARK    4  A    between atoms: C_3  and  N_6 
REMARK       I    between atoms: N_6  and  C_9 
REMARK    5  A    between atoms: C_9  and  C_14 
REMARK    6  A    between atoms: C_23  and  N_11 
REMARK    7  A    between atoms: C_24  and  N_11 
REMARK    8  A    between atoms: C_26  and  C_24 
REMARK    9  A    between atoms: C_27  and  C_26 
ROOT
ATOM      1  C   UNL d   1     -48.872  27.986  34.784  0.00  0.00     0.104 A 
ATOM      2  C   UNL d   1     -48.187  28.950  35.948  0.00  0.00     0.058 A 
ATOM      3  C   UNL d   1     -49.343  28.443  35.284  0.00  0.00     0.013 A 
ATOM      4  C   UNL d   1     -48.064  28.016  34.871  0.00  0.00     0.013 A 
ATOM      5  C   UNL d   1     -48.994  28.922  35.864  0.00  0.00     0.005 A 
ATOM      6  C   UNL d   1     -47.716  28.493  35.448  0.00  0.00     0.005 A 
ENDROOT
BRANCH   2   7
ATOM      7  C   UNL d   1     -47.838  29.434  36.534  0.00  0.00     0.282 C 
ATOM      8  N   UNL d   1     -47.495  30.159  36.326  0.00  0.00    -0.165 NA
ATOM      9  O   UNL d   1     -47.837  29.194  37.308  0.00  0.00    -0.265 OA
BRANCH   8  10
ATOM     10  C   UNL d   1     -47.496  30.400  35.552  0.00  0.00     0.297 A 
ATOM     11  O   UNL d   1     -47.737  31.165  35.357  0.00  0.00    -0.253 OA
ATOM     12  C   UNL d   1     -47.679  31.246  34.542  0.00  0.00     0.207 A 
ATOM     13  N   UNL d   1     -47.404  30.535  34.242  0.00  0.00    -0.119 NA
ATOM     14  N   UNL d   1     -47.289  30.007  34.863  0.00  0.00    -0.101 NA
BRANCH  12  15
ATOM     15  C   UNL d   1     -47.880  31.950  34.160  0.00  0.00     0.054 A 
ATOM     16  C   UNL d   1     -47.300  32.523  34.044  0.00  0.00     0.061 A 
ATOM     17 CL   UNL d   1     -46.530  32.394  34.306  0.00  0.00    -0.082 Cl
ATOM     18  C   UNL d   1     -47.498  33.225  33.663  0.00  0.00     0.011 A 
ATOM     19  C   UNL d   1     -48.274  33.369  33.392  0.00  0.00     0.001 A 
ATOM     20  C   UNL d   1     -48.850  32.803  33.507  0.00  0.00     0.000 A 
ATOM     21  C   UNL d   1     -48.650  32.090  33.893  0.00  0.00     0.004 A 
ENDBRANCH  12  15
ENDBRANCH   8  10
ENDBRANCH   2   7
BRANCH   1  22
ATOM     22  S   UNL d   1     -49.212  27.499  34.197  0.00  0.00     0.271 S 
ATOM     23  O   UNL d   1     -49.974  27.707  34.451  0.00  0.00    -0.200 OA
ATOM     24  O   UNL d   1     -48.454  27.293  33.944  0.00  0.00    -0.200 OA
BRANCH  22  25
ATOM     25  N   UNL d   1     -49.558  27.006  33.601  0.00  0.00    -0.229 N 
BRANCH  25  26
ATOM     26  C   UNL d   1     -49.157  26.347  33.308  0.00  0.00     0.092 C 
ATOM     27  C   UNL d   1     -49.459  25.589  33.430  0.00  0.00     0.021 C 
ENDBRANCH  25  26
BRANCH  25  28
ATOM     28  C   UNL d   1     -50.307  27.191  33.313  0.00  0.00     0.092 C 
BRANCH  28  29
ATOM     29  C   UNL d   1     -50.972  26.873  33.681  0.00  0.00     0.020 C 
BRANCH  29  30
ATOM     30  C   UNL d   1     -51.704  26.927  33.310  0.00  0.00     0.002 C 
ATOM     31  C   UNL d   1     -52.225  26.289  33.341  0.00  0.00     0.000 C 
ENDBRANCH  29  30
ENDBRANCH  28  29
ENDBRANCH  25  28
ENDBRANCH  22  25
ENDBRANCH   1  22
TORSDOF 9
ENDMDL
