MODEL 1
REMARK VINA RESULT:      64.7      0.000      0.000
REMARK  3 active torsions:
REMARK  status: ('A' for Active; 'I' for Inactive)
REMARK    1  A    between atoms: C_11  and  N_2 
REMARK    2  A    between atoms: C_16  and  C_6 
REMARK    3  A    between atoms: C_12  and  C_11 
ROOT
ATOM      1  C   UNL d   1     -58.462 -98.774 -45.288  0.00  0.00     0.137 A 
ATOM      2  N   UNL d   1     -57.720 -98.770 -44.066  0.00  0.00    -0.256 N 
ATOM      3  C   UNL d   1     -57.755 -98.778 -45.721  0.00  0.00     0.192 A 
ATOM      4  C   UNL d   1     -58.444 -98.770 -44.460  0.00  0.00     0.272 A 
ATOM      5  N   UNL d   1     -57.033 -98.778 -45.330  0.00  0.00    -0.204 NA
ATOM      6  C   UNL d   1     -57.010 -98.774 -44.497  0.00  0.00     0.152 A 
ATOM      7  C   UNL d   1     -59.189 -98.774 -45.685  0.00  0.00     0.205 A 
ATOM      8  O   UNL d   1     -57.780 -98.782 -46.544  0.00  0.00    -0.289 OA
ATOM      9  C   UNL d   1     -59.210 -98.778 -46.501  0.00  0.00     0.062 A 
ATOM     10  C   UNL d   1     -58.509 -98.782 -46.935  0.00  0.00     0.105 A 
ATOM     11  O   UNL d   1     -59.149 -98.767 -44.032  0.00  0.00    -0.266 OA
ATOM     12  O   UNL d   1     -59.890 -98.771 -45.250  0.00  0.00    -0.286 OA
ATOM     13  C   UNL d   1     -59.940 -98.778 -46.896  0.00  0.00     0.005 A 
ATOM     14  C   UNL d   1     -58.531 -98.785 -47.770  0.00  0.00     0.025 A 
ATOM     15  C   UNL d   1     -59.958 -98.782 -47.722  0.00  0.00     0.000 A 
ATOM     16  C   UNL d   1     -59.256 -98.786 -48.158  0.00  0.00     0.002 A 
ENDROOT
BRANCH   2  17
ATOM     17  C   UNL d   1     -57.707 -98.767 -43.250  0.00  0.00     0.109 C 
BRANCH  17  18
ATOM     18  C   UNL d   1     -58.404 -98.889 -42.825  0.00  0.00     0.118 A 
ATOM     19  O   UNL d   1     -59.121 -99.135 -43.143  0.00  0.00    -0.304 OA
ATOM     20  C   UNL d   1     -59.661 -99.185 -42.530  0.00  0.00     0.123 A 
ATOM     21  C   UNL d   1     -59.278 -98.969 -41.832  0.00  0.00     0.029 A 
ATOM     22  C   UNL d   1     -58.504 -98.788 -42.019  0.00  0.00     0.028 A 
ENDBRANCH  17  18
ENDBRANCH   2  17
BRANCH   6  23
ATOM     23  C   UNL d   1     -56.282 -98.774 -44.105  0.00  0.00     0.035 A 
ATOM     24  C   UNL d   1     -56.250 -98.764 -43.281  0.00  0.00     0.003 A 
ATOM     25  C   UNL d   1     -55.527 -98.764 -42.892  0.00  0.00     0.000 A 
ATOM     26  C   UNL d   1     -54.826 -98.774 -43.332  0.00  0.00     0.000 A 
ATOM     27  C   UNL d   1     -54.858 -98.784 -44.156  0.00  0.00     0.000 A 
ATOM     28  C   UNL d   1     -55.581 -98.784 -44.550  0.00  0.00     0.003 A 
ENDBRANCH   6  23
TORSDOF 3
ENDMDL
