MODEL 1
REMARK VINA RESULT:      50.6      0.000      0.000
REMARK  5 active torsions:
REMARK  status: ('A' for Active; 'I' for Inactive)
REMARK    1  A    between atoms: C_2  and  C_1 
REMARK       I    between atoms: N_5  and  C_2 
REMARK    2  A    between atoms: C_10  and  N_5 
REMARK    3  A    between atoms: C_11  and  C_6 
REMARK    4  A    between atoms: S_9  and  C_11 
REMARK    5  A    between atoms: C_13  and  S_9 
ROOT
ATOM      1  C   UNL d   1     -50.588  27.180  33.840  0.00  0.00     0.158 A 
ATOM      2  O   UNL d   1     -50.333  27.668  34.453  0.00  0.00    -0.302 OA
ATOM      3  C   UNL d   1     -49.921  26.791  33.538  0.00  0.00     0.032 A 
ATOM      4  C   UNL d   1     -49.524  27.586  34.532  0.00  0.00     0.107 A 
ATOM      5  C   UNL d   1     -49.262  27.042  33.966  0.00  0.00     0.027 A 
ENDROOT
BRANCH   1   6
ATOM      6  C   UNL d   1     -51.364  27.088  33.570  0.00  0.00     0.302 C 
ATOM      7  N   UNL d   1     -51.630  26.355  33.306  0.00  0.00    -0.206 NA
ATOM      8  O   UNL d   1     -51.868  27.736  33.567  0.00  0.00    -0.263 OA
BRANCH   7   9
ATOM      9  C   UNL d   1     -51.114  25.702  33.311  0.00  0.00     0.085 A 
ATOM     10  C   UNL d   1     -50.306  25.818  33.306  0.00  0.00     0.021 A 
ATOM     11  C   UNL d   1     -49.792  25.183  33.311  0.00  0.00     0.031 A 
ATOM     12  C   UNL d   1     -50.095  24.406  33.321  0.00  0.00     0.140 A 
ATOM     13  C   UNL d   1     -50.909  24.290  33.325  0.00  0.00     0.031 A 
ATOM     14  F   UNL d   1     -49.587  23.764  33.326  0.00  0.00    -0.204 F 
ATOM     15  C   UNL d   1     -51.423  24.937  33.320  0.00  0.00     0.021 A 
ENDBRANCH   7   9
ENDBRANCH   1   6
BRANCH   4  16
ATOM     16  C   UNL d   1     -49.040  27.974  35.079  0.00  0.00     0.060 C 
BRANCH  16  17
ATOM     17  S   UNL d   1     -48.299  28.248  34.849  0.00  0.00    -0.084 SA
BRANCH  17  18
ATOM     18  C   UNL d   1     -47.982  28.927  35.185  0.00  0.00     0.029 A 
ATOM     19  C   UNL d   1     -47.992  29.637  34.772  0.00  0.00     0.006 A 
ATOM     20  C   UNL d   1     -47.675  30.317  35.107  0.00  0.00     0.001 A 
ATOM     21  C   UNL d   1     -47.345  30.278  35.867  0.00  0.00     0.000 A 
ATOM     22  C   UNL d   1     -47.338  29.564  36.278  0.00  0.00     0.001 A 
ATOM     23  C   UNL d   1     -47.655  28.885  35.941  0.00  0.00     0.006 A 
ENDBRANCH  17  18
ENDBRANCH  16  17
ENDBRANCH   4  16
TORSDOF 5
ENDMDL
MODEL 2
REMARK VINA RESULT:      51.0      3.007      3.769
REMARK  5 active torsions:
REMARK  status: ('A' for Active; 'I' for Inactive)
REMARK    1  A    between atoms: C_2  and  C_1 
REMARK       I    between atoms: N_5  and  C_2 
REMARK    2  A    between atoms: C_10  and  N_5 
REMARK    3  A    between atoms: C_11  and  C_6 
REMARK    4  A    between atoms: S_9  and  C_11 
REMARK    5  A    between atoms: C_13  and  S_9 
ROOT
ATOM      1  C   UNL d   1     -50.727  26.024  34.179  0.00  0.00     0.158 A 
ATOM      2  O   UNL d   1     -50.879  25.848  34.970  0.00  0.00    -0.302 OA
ATOM      3  C   UNL d   1     -51.247  26.629  33.955  0.00  0.00     0.032 A 
ATOM      4  C   UNL d   1     -51.480  26.334  35.234  0.00  0.00     0.107 A 
ATOM      5  C   UNL d   1     -51.713  26.822  34.608  0.00  0.00     0.027 A 
ENDROOT
BRANCH   1   6
ATOM      6  C   UNL d   1     -50.163  25.667  33.691  0.00  0.00     0.302 C 
ATOM      7  N   UNL d   1     -50.332  24.959  33.306  0.00  0.00    -0.206 NA
ATOM      8  O   UNL d   1     -49.432  26.027  33.593  0.00  0.00    -0.263 OA
BRANCH   7   9
ATOM      9  C   UNL d   1     -51.075  24.600  33.409  0.00  0.00     0.085 A 
ATOM     10  C   UNL d   1     -51.125  23.810  33.612  0.00  0.00     0.021 A 
ATOM     11  C   UNL d   1     -51.849  23.449  33.715  0.00  0.00     0.031 A 
ATOM     12  C   UNL d   1     -52.550  23.890  33.613  0.00  0.00     0.140 A 
ATOM     13  C   UNL d   1     -52.500  24.685  33.409  0.00  0.00     0.031 A 
ATOM     14  F   UNL d   1     -53.280  23.536  33.715  0.00  0.00    -0.204 F 
ATOM     15  C   UNL d   1     -51.763  25.044  33.306  0.00  0.00     0.021 A 
ENDBRANCH   7   9
ENDBRANCH   1   6
BRANCH   4  16
ATOM     16  C   UNL d   1     -51.807  26.344  35.993  0.00  0.00     0.060 C 
BRANCH  16  17
ATOM     17  S   UNL d   1     -51.321  26.457  36.647  0.00  0.00    -0.084 SA
BRANCH  17  18
ATOM     18  C   UNL d   1     -51.593  26.294  37.404  0.00  0.00     0.029 A 
ATOM     19  C   UNL d   1     -51.345  26.750  38.041  0.00  0.00     0.006 A 
ATOM     20  C   UNL d   1     -51.617  26.588  38.799  0.00  0.00     0.001 A 
ATOM     21  C   UNL d   1     -52.146  25.960  38.914  0.00  0.00     0.000 A 
ATOM     22  C   UNL d   1     -52.392  25.505  38.272  0.00  0.00     0.001 A 
ATOM     23  C   UNL d   1     -52.119  25.668  37.515  0.00  0.00     0.006 A 
ENDBRANCH  17  18
ENDBRANCH  16  17
ENDBRANCH   4  16
TORSDOF 5
ENDMDL
MODEL 3
REMARK VINA RESULT:      51.6      1.710      2.415
REMARK  5 active torsions:
REMARK  status: ('A' for Active; 'I' for Inactive)
REMARK    1  A    between atoms: C_2  and  C_1 
REMARK       I    between atoms: N_5  and  C_2 
REMARK    2  A    between atoms: C_10  and  N_5 
REMARK    3  A    between atoms: C_11  and  C_6 
REMARK    4  A    between atoms: S_9  and  C_11 
REMARK    5  A    between atoms: C_13  and  S_9 
ROOT
ATOM      1  C   UNL d   1     -50.459  25.112  33.547  0.00  0.00     0.158 A 
ATOM      2  O   UNL d   1     -50.045  25.708  33.940  0.00  0.00    -0.302 OA
ATOM      3  C   UNL d   1     -51.200  25.421  33.339  0.00  0.00     0.032 A 
ATOM      4  C   UNL d   1     -50.518  26.373  33.976  0.00  0.00     0.107 A 
ATOM      5  C   UNL d   1     -51.236  26.201  33.604  0.00  0.00     0.027 A 
ENDROOT
BRANCH   1   6
ATOM      6  C   UNL d   1     -50.192  24.347  33.387  0.00  0.00     0.302 C 
ATOM      7  N   UNL d   1     -50.727  23.727  33.307  0.00  0.00    -0.206 NA
ATOM      8  O   UNL d   1     -49.386  24.210  33.307  0.00  0.00    -0.263 OA
BRANCH   7   9
ATOM      9  C   UNL d   1     -51.542  23.872  33.388  0.00  0.00     0.085 A 
ATOM     10  C   UNL d   1     -51.835  24.630  33.307  0.00  0.00     0.021 A 
ATOM     11  C   UNL d   1     -52.633  24.782  33.386  0.00  0.00     0.031 A 
ATOM     12  C   UNL d   1     -53.159  24.156  33.550  0.00  0.00     0.140 A 
ATOM     13  C   UNL d   1     -52.864  23.392  33.632  0.00  0.00     0.031 A 
ATOM     14  F   UNL d   1     -53.961  24.299  33.631  0.00  0.00    -0.204 F 
ATOM     15  C   UNL d   1     -52.056  23.246  33.551  0.00  0.00     0.021 A 
ENDBRANCH   7   9
ENDBRANCH   1   6
BRANCH   4  16
ATOM     16  C   UNL d   1     -50.322  27.098  34.321  0.00  0.00     0.060 C 
BRANCH  16  17
ATOM     17  S   UNL d   1     -49.868  27.116  35.007  0.00  0.00    -0.084 SA
BRANCH  17  18
ATOM     18  C   UNL d   1     -49.292  27.691  35.112  0.00  0.00     0.029 A 
ATOM     19  C   UNL d   1     -48.771  27.873  34.504  0.00  0.00     0.006 A 
ATOM     20  C   UNL d   1     -48.194  28.448  34.608  0.00  0.00     0.001 A 
ATOM     21  C   UNL d   1     -48.144  28.844  35.334  0.00  0.00     0.000 A 
ATOM     22  C   UNL d   1     -48.668  28.660  35.942  0.00  0.00     0.001 A 
ATOM     23  C   UNL d   1     -49.244  28.084  35.837  0.00  0.00     0.006 A 
ENDBRANCH  17  18
ENDBRANCH  16  17
ENDBRANCH   4  16
TORSDOF 5
ENDMDL
