MODEL 1
REMARK VINA RESULT:      46.3      0.000      0.000
REMARK  6 active torsions:
REMARK  status: ('A' for Active; 'I' for Inactive)
REMARK    1  A    between atoms: N_3  and  C_1 
REMARK    2  A    between atoms: S_2  and  C_10 
REMARK    3  A    between atoms: N_8  and  S_2 
REMARK       I    between atoms: C_9  and  N_3 
REMARK    4  A    between atoms: C_23  and  N_4 
REMARK    5  A    between atoms: C_13  and  C_9 
REMARK    6  A    between atoms: O_25  and  C_14 
ROOT
ATOM      1  N   UNL d   1     -54.872-101.307 -41.611  0.00  0.00    -0.184 NA
ATOM      2  C   UNL d   1     -54.864-102.031 -41.200  0.00  0.00     0.281 C 
ATOM      3  O   UNL d   1     -54.859-102.741 -41.622  0.00  0.00    -0.265 OA
ENDROOT
BRANCH   2   4
ATOM      4  C   UNL d   1     -54.861-102.038 -40.372  0.00  0.00     0.058 A 
ATOM      5  C   UNL d   1     -55.001-102.743 -39.971  0.00  0.00     0.005 A 
ATOM      6  C   UNL d   1     -54.998-102.750 -39.146  0.00  0.00     0.013 A 
ATOM      7  C   UNL d   1     -54.855-102.053 -38.722  0.00  0.00     0.104 A 
ATOM      8  C   UNL d   1     -54.714-101.343 -39.137  0.00  0.00     0.013 A 
ATOM      9  C   UNL d   1     -54.716-101.332 -39.963  0.00  0.00     0.005 A 
BRANCH   7  10
ATOM     10  S   UNL d   1     -54.852-102.060 -37.897  0.00  0.00     0.272 S 
ATOM     11  O   UNL d   1     -54.895-101.226 -37.927  0.00  0.00    -0.200 OA
ATOM     12  O   UNL d   1     -54.811-102.879 -37.872  0.00  0.00    -0.200 OA
BRANCH  10  13
ATOM     13  N   UNL d   1     -54.849-102.064 -37.073  0.00  0.00    -0.225 N 
ATOM     14  C   UNL d   1     -54.963-102.770 -36.674  0.00  0.00     0.118 A 
ATOM     15  C   UNL d   1     -54.961-102.778 -35.849  0.00  0.00     0.142 A 
ATOM     16  O   UNL d   1     -54.844-102.077 -35.428  0.00  0.00    -0.300 OA
ATOM     17  C   UNL d   1     -54.730-101.370 -35.836  0.00  0.00     0.142 A 
ATOM     18  C   UNL d   1     -54.732-101.362 -36.662  0.00  0.00     0.118 A 
ENDBRANCH  10  13
ENDBRANCH   7  10
ENDBRANCH   2   4
BRANCH   1  19
ATOM     19  C   UNL d   1     -54.875-101.306 -42.447  0.00  0.00     0.182 A 
ATOM     20  N   UNL d   1     -54.989-100.650 -42.921  0.00  0.00    -0.283 N 
ATOM     21  C   UNL d   1     -54.952-100.885 -43.711  0.00  0.00     0.094 A 
ATOM     22  C   UNL d   1     -55.027-100.459 -44.429  0.00  0.00     0.111 A 
ATOM     23  C   UNL d   1     -54.814-101.692 -43.730  0.00  0.00     0.050 A 
ATOM     24  C   UNL d   1     -54.961-100.860 -45.143  0.00  0.00     0.026 A 
ATOM     25  C   UNL d   1     -54.823-101.671 -45.168  0.00  0.00     0.003 A 
ATOM     26  C   UNL d   1     -54.749-102.089 -44.458  0.00  0.00     0.008 A 
ATOM     27  S   UNL d   1     -54.765-101.963 -42.951  0.00  0.00    -0.048 SA
BRANCH  20  28
ATOM     28  C   UNL d   1     -55.120 -99.877 -42.661  0.00  0.00     0.082 C 
ATOM     29  C   UNL d   1     -54.712 -99.508 -42.047  0.00  0.00     0.021 C 
ENDBRANCH  20  28
BRANCH  22  30
ATOM     30  O   UNL d   1     -55.164 -99.657 -44.414  0.00  0.00    -0.327 OA
ATOM     31  C   UNL d   1     -55.759 -99.331 -44.872  0.00  0.00     0.181 C 
ENDBRANCH  22  30
ENDBRANCH   1  19
TORSDOF 6
ENDMDL
