MODEL 1
REMARK VINA RESULT:      -7.5      0.000      0.000
REMARK  5 active torsions:
REMARK  status: ('A' for Active; 'I' for Inactive)
REMARK    1  A    between atoms: N_2  and  C_1 
REMARK    2  A    between atoms: C_8  and  C_5 
REMARK    3  A    between atoms: C_6  and  C_9 
REMARK       I    between atoms: N_12  and  C_6 
REMARK    4  A    between atoms: C_9  and  C_8 
REMARK    5  A    between atoms: C_14  and  N_12 
ROOT
ATOM      1  C   UNL d   1      51.681  34.028  53.126  0.00  0.00     0.279 C 
ATOM      2  N   UNL d   1      52.431  34.355  53.097  0.00  0.00    -0.208 NA
ATOM      3  O   UNL d   1      51.506  33.449  53.682  0.00  0.00    -0.265 OA
ENDROOT
BRANCH   1   4
ATOM      4  C   UNL d   1      51.095  34.282  52.595  0.00  0.00     0.063 C 
BRANCH   4   5
ATOM      5  C   UNL d   1      50.296  34.193  52.780  0.00  0.00     0.011 C 
BRANCH   5   6
ATOM      6  C   UNL d   1      49.700  34.438  52.233  0.00  0.00     0.031 A 
ATOM      7  S   UNL d   1      48.990  34.844  52.339  0.00  0.00    -0.064 SA
ATOM      8  C   UNL d   1      48.643  34.925  51.603  0.00  0.00     0.156 A 
ATOM      9  C   UNL d   1      49.119  34.578  51.034  0.00  0.00     0.031 A 
ATOM     10  C   UNL d   1      49.785  34.272  51.434  0.00  0.00     0.009 A 
BRANCH   8  11
ATOM     11  N   UNL d   1      47.918  35.303  51.470  0.00  0.00    -0.107 N 
ATOM     12  O   UNL d   1      47.732  36.016  51.837  0.00  0.00    -0.531 OA
ATOM     13  O   UNL d   1      47.376  34.947  50.954  0.00  0.00    -0.531 OA
ENDBRANCH   8  11
ENDBRANCH   5   6
ENDBRANCH   4   5
ENDBRANCH   1   4
BRANCH   2  14
ATOM     14  C   UNL d   1      53.016  34.102  53.628  0.00  0.00     0.085 A 
ATOM     15  C   UNL d   1      53.473  33.429  53.450  0.00  0.00     0.019 A 
ATOM     16  C   UNL d   1      54.050  33.164  53.957  0.00  0.00     0.002 A 
ATOM     17  C   UNL d   1      54.174  33.599  54.679  0.00  0.00     0.000 A 
ATOM     18  C   UNL d   1      53.719  34.263  54.847  0.00  0.00     0.002 A 
ATOM     19  C   UNL d   1      54.755  33.362  55.225  0.00  0.00     0.000 C 
ATOM     20  C   UNL d   1      53.146  34.511  54.327  0.00  0.00     0.019 A 
ENDBRANCH   2  14
TORSDOF 5
ENDMDL
MODEL 2
REMARK VINA RESULT:      -7.5      2.126      5.416
REMARK  5 active torsions:
REMARK  status: ('A' for Active; 'I' for Inactive)
REMARK    1  A    between atoms: N_2  and  C_1 
REMARK    2  A    between atoms: C_8  and  C_5 
REMARK    3  A    between atoms: C_6  and  C_9 
REMARK       I    between atoms: N_12  and  C_6 
REMARK    4  A    between atoms: C_9  and  C_8 
REMARK    5  A    between atoms: C_14  and  N_12 
ROOT
ATOM      1  C   UNL d   1      51.230  33.717  53.215  0.00  0.00     0.279 C 
ATOM      2  N   UNL d   1      51.050  34.423  52.841  0.00  0.00    -0.208 NA
ATOM      3  O   UNL d   1      50.707  33.085  53.173  0.00  0.00    -0.265 OA
ENDROOT
BRANCH   1   4
ATOM      4  C   UNL d   1      51.941  33.639  53.637  0.00  0.00     0.063 C 
BRANCH   4   5
ATOM      5  C   UNL d   1      52.513  33.095  53.395  0.00  0.00     0.011 C 
BRANCH   5   6
ATOM      6  C   UNL d   1      53.269  33.074  53.772  0.00  0.00     0.031 A 
ATOM      7  S   UNL d   1      53.549  33.426  54.462  0.00  0.00    -0.064 SA
ATOM      8  C   UNL d   1      54.332  33.206  54.549  0.00  0.00     0.156 A 
ATOM      9  C   UNL d   1      54.552  32.721  53.927  0.00  0.00     0.031 A 
ATOM     10  C   UNL d   1      53.880  32.639  53.438  0.00  0.00     0.009 A 
BRANCH   8  11
ATOM     11  N   UNL d   1      54.816  33.446  55.177  0.00  0.00    -0.107 N 
ATOM     12  O   UNL d   1      55.377  34.041  55.084  0.00  0.00    -0.531 OA
ATOM     13  O   UNL d   1      54.725  33.070  55.910  0.00  0.00    -0.531 OA
ENDBRANCH   8  11
ENDBRANCH   5   6
ENDBRANCH   4   5
ENDBRANCH   1   4
BRANCH   2  14
ATOM     14  C   UNL d   1      50.340  34.500  52.419  0.00  0.00     0.085 A 
ATOM     15  C   UNL d   1      49.671  34.827  52.791  0.00  0.00     0.019 A 
ATOM     16  C   UNL d   1      48.966  34.911  52.396  0.00  0.00     0.002 A 
ATOM     17  C   UNL d   1      48.933  34.654  51.584  0.00  0.00     0.000 A 
ATOM     18  C   UNL d   1      49.599  34.332  51.224  0.00  0.00     0.002 A 
ATOM     19  C   UNL d   1      48.231  34.723  51.144  0.00  0.00     0.000 C 
ATOM     20  C   UNL d   1      50.294  34.256  51.636  0.00  0.00     0.019 A 
ENDBRANCH   2  14
TORSDOF 5
ENDMDL
MODEL 3
REMARK VINA RESULT:      -7.5      3.573      5.262
REMARK  5 active torsions:
REMARK  status: ('A' for Active; 'I' for Inactive)
REMARK    1  A    between atoms: N_2  and  C_1 
REMARK    2  A    between atoms: C_8  and  C_5 
REMARK    3  A    between atoms: C_6  and  C_9 
REMARK       I    between atoms: N_12  and  C_6 
REMARK    4  A    between atoms: C_9  and  C_8 
REMARK    5  A    between atoms: C_14  and  N_12 
ROOT
ATOM      1  C   UNL d   1      53.055  32.604  53.328  0.00  0.00     0.279 C 
ATOM      2  N   UNL d   1      52.539  33.046  53.785  0.00  0.00    -0.208 NA
ATOM      3  O   UNL d   1      53.748  32.943  53.045  0.00  0.00    -0.265 OA
ENDROOT
BRANCH   1   4
ATOM      4  C   UNL d   1      52.878  31.812  53.149  0.00  0.00     0.063 C 
BRANCH   4   5
ATOM      5  C   UNL d   1      53.472  31.239  53.157  0.00  0.00     0.011 C 
BRANCH   5   6
ATOM      6  C   UNL d   1      53.309  30.460  53.441  0.00  0.00     0.031 A 
ATOM      7  S   UNL d   1      53.534  30.068  54.131  0.00  0.00    -0.064 SA
ATOM      8  C   UNL d   1      53.209  29.318  54.102  0.00  0.00     0.156 A 
ATOM      9  C   UNL d   1      52.784  29.228  53.408  0.00  0.00     0.031 A 
ATOM     10  C   UNL d   1      52.848  29.949  52.993  0.00  0.00     0.009 A 
BRANCH   8  11
ATOM     11  N   UNL d   1      53.305  28.746  54.695  0.00  0.00    -0.107 N 
ATOM     12  O   UNL d   1      53.023  28.869  55.459  0.00  0.00    -0.531 OA
ATOM     13  O   UNL d   1      53.695  28.041  54.503  0.00  0.00    -0.531 OA
ENDBRANCH   8  11
ENDBRANCH   5   6
ENDBRANCH   4   5
ENDBRANCH   1   4
BRANCH   2  14
ATOM     14  C   UNL d   1      52.717  33.837  53.964  0.00  0.00     0.085 A 
ATOM     15  C   UNL d   1      52.472  34.443  53.449  0.00  0.00     0.019 A 
ATOM     16  C   UNL d   1      52.635  35.223  53.605  0.00  0.00     0.002 A 
ATOM     17  C   UNL d   1      53.067  35.403  54.318  0.00  0.00     0.000 A 
ATOM     18  C   UNL d   1      53.306  34.798  54.822  0.00  0.00     0.002 A 
ATOM     19  C   UNL d   1      53.255  36.188  54.515  0.00  0.00     0.000 C 
ATOM     20  C   UNL d   1      53.132  34.024  54.647  0.00  0.00     0.019 A 
ENDBRANCH   2  14
TORSDOF 5
ENDMDL
MODEL 4
REMARK VINA RESULT:      -6.9      2.526      2.990
REMARK  5 active torsions:
REMARK  status: ('A' for Active; 'I' for Inactive)
REMARK    1  A    between atoms: N_2  and  C_1 
REMARK    2  A    between atoms: C_8  and  C_5 
REMARK    3  A    between atoms: C_6  and  C_9 
REMARK       I    between atoms: N_12  and  C_6 
REMARK    4  A    between atoms: C_9  and  C_8 
REMARK    5  A    between atoms: C_14  and  N_12 
ROOT
ATOM      1  C   UNL d   1      52.681  32.054  53.165  0.00  0.00     0.279 C 
ATOM      2  N   UNL d   1      52.636  31.315  52.815  0.00  0.00    -0.208 NA
ATOM      3  O   UNL d   1      52.982  32.131  53.925  0.00  0.00    -0.265 OA
ENDROOT
BRANCH   1   4
ATOM      4  C   UNL d   1      52.423  32.726  52.751  0.00  0.00     0.063 C 
BRANCH   4   5
ATOM      5  C   UNL d   1      52.051  33.345  53.151  0.00  0.00     0.011 C 
BRANCH   5   6
ATOM      6  C   UNL d   1      51.442  33.793  52.773  0.00  0.00     0.031 A 
ATOM      7  S   UNL d   1      50.667  33.965  52.996  0.00  0.00    -0.064 SA
ATOM      8  C   UNL d   1      50.340  34.426  52.405  0.00  0.00     0.156 A 
ATOM      9  C   UNL d   1      50.892  34.549  51.813  0.00  0.00     0.031 A 
ATOM     10  C   UNL d   1      51.586  34.149  52.047  0.00  0.00     0.009 A 
BRANCH   8  11
ATOM     11  N   UNL d   1      49.563  34.717  52.419  0.00  0.00    -0.107 N 
ATOM     12  O   UNL d   1      49.279  35.151  53.057  0.00  0.00    -0.531 OA
ATOM     13  O   UNL d   1      49.073  34.561  51.769  0.00  0.00    -0.531 OA
ENDBRANCH   8  11
ENDBRANCH   5   6
ENDBRANCH   4   5
ENDBRANCH   1   4
BRANCH   2  14
ATOM     14  C   UNL d   1      52.894  30.643  53.228  0.00  0.00     0.085 A 
ATOM     15  C   UNL d   1      53.708  30.521  53.353  0.00  0.00     0.019 A 
ATOM     16  C   UNL d   1      53.981  29.871  53.756  0.00  0.00     0.002 A 
ATOM     17  C   UNL d   1      53.405  29.313  54.047  0.00  0.00     0.000 A 
ATOM     18  C   UNL d   1      52.603  29.441  53.919  0.00  0.00     0.002 A 
ATOM     19  C   UNL d   1      53.643  28.634  54.463  0.00  0.00     0.000 C 
ATOM     20  C   UNL d   1      52.350  30.098  53.514  0.00  0.00     0.019 A 
ENDBRANCH   2  14
TORSDOF 5
ENDMDL
MODEL 5
REMARK VINA RESULT:      -6.8      3.258      4.273
REMARK  5 active torsions:
REMARK  status: ('A' for Active; 'I' for Inactive)
REMARK    1  A    between atoms: N_2  and  C_1 
REMARK    2  A    between atoms: C_8  and  C_5 
REMARK    3  A    between atoms: C_6  and  C_9 
REMARK       I    between atoms: N_12  and  C_6 
REMARK    4  A    between atoms: C_9  and  C_8 
REMARK    5  A    between atoms: C_14  and  N_12 
ROOT
ATOM      1  C   UNL d   1      52.826  31.763  53.233  0.00  0.00     0.279 C 
ATOM      2  N   UNL d   1      53.476  31.409  53.583  0.00  0.00    -0.208 NA
ATOM      3  O   UNL d   1      52.132  31.337  53.128  0.00  0.00    -0.265 OA
ENDROOT
BRANCH   1   4
ATOM      4  C   UNL d   1      52.868  32.555  52.983  0.00  0.00     0.063 C 
BRANCH   4   5
ATOM      5  C   UNL d   1      52.269  33.087  53.180  0.00  0.00     0.011 C 
BRANCH   5   6
ATOM      6  C   UNL d   1      52.459  33.878  53.407  0.00  0.00     0.031 A 
ATOM      7  S   UNL d   1      52.752  34.194  54.109  0.00  0.00    -0.064 SA
ATOM      8  C   UNL d   1      52.826  35.001  54.003  0.00  0.00     0.156 A 
ATOM      9  C   UNL d   1      52.585  35.202  53.247  0.00  0.00     0.031 A 
ATOM     10  C   UNL d   1      52.354  34.493  52.873  0.00  0.00     0.009 A 
BRANCH   8  11
ATOM     11  N   UNL d   1      53.104  35.523  54.584  0.00  0.00    -0.107 N 
ATOM     12  O   UNL d   1      53.232  36.320  54.419  0.00  0.00    -0.531 OA
ATOM     13  O   UNL d   1      53.254  35.226  55.343  0.00  0.00    -0.531 OA
ENDBRANCH   8  11
ENDBRANCH   5   6
ENDBRANCH   4   5
ENDBRANCH   1   4
BRANCH   2  14
ATOM     14  C   UNL d   1      53.434  30.618  53.832  0.00  0.00     0.085 A 
ATOM     15  C   UNL d   1      53.466  30.004  53.271  0.00  0.00     0.019 A 
ATOM     16  C   UNL d   1      53.427  29.224  53.494  0.00  0.00     0.002 A 
ATOM     17  C   UNL d   1      53.350  29.053  54.326  0.00  0.00     0.000 A 
ATOM     18  C   UNL d   1      53.319  29.666  54.874  0.00  0.00     0.002 A 
ATOM     19  C   UNL d   1      53.306  28.269  54.597  0.00  0.00     0.000 C 
ATOM     20  C   UNL d   1      53.360  30.439  54.630  0.00  0.00     0.019 A 
ENDBRANCH   2  14
TORSDOF 5
ENDMDL
MODEL 6
REMARK VINA RESULT:      -5.2     10.319     11.190
REMARK  5 active torsions:
REMARK  status: ('A' for Active; 'I' for Inactive)
REMARK    1  A    between atoms: N_2  and  C_1 
REMARK    2  A    between atoms: C_8  and  C_5 
REMARK    3  A    between atoms: C_6  and  C_9 
REMARK       I    between atoms: N_12  and  C_6 
REMARK    4  A    between atoms: C_9  and  C_8 
REMARK    5  A    between atoms: C_14  and  N_12 
ROOT
ATOM      1  C   UNL d   1      44.907  26.538  56.710  0.00  0.00     0.279 C 
ATOM      2  N   UNL d   1      44.321  25.967  56.670  0.00  0.00    -0.208 NA
ATOM      3  O   UNL d   1      45.610  26.435  56.299  0.00  0.00    -0.265 OA
ENDROOT
BRANCH   1   4
ATOM      4  C   UNL d   1      44.790  27.222  57.168  0.00  0.00     0.063 C 
BRANCH   4   5
ATOM      5  C   UNL d   1      45.125  27.939  56.938  0.00  0.00     0.011 C 
BRANCH   5   6
ATOM      6  C   UNL d   1      45.044  28.625  57.425  0.00  0.00     0.031 A 
ATOM      7  S   UNL d   1      45.136  28.736  58.237  0.00  0.00    -0.064 SA
ATOM      8  C   UNL d   1      44.984  29.524  58.394  0.00  0.00     0.156 A 
ATOM      9  C   UNL d   1      44.798  29.913  57.698  0.00  0.00     0.031 A 
ATOM     10  C   UNL d   1      44.836  29.344  57.088  0.00  0.00     0.009 A 
BRANCH   8  11
ATOM     11  N   UNL d   1      45.018  29.863  59.150  0.00  0.00    -0.107 N 
ATOM     12  O   UNL d   1      44.607  29.538  59.785  0.00  0.00    -0.531 OA
ATOM     13  O   UNL d   1      45.479  30.543  59.257  0.00  0.00    -0.531 OA
ENDBRANCH   8  11
ENDBRANCH   5   6
ENDBRANCH   4   5
ENDBRANCH   1   4
BRANCH   2  14
ATOM     14  C   UNL d   1      44.438  25.283  56.213  0.00  0.00     0.085 A 
ATOM     15  C   UNL d   1      44.681  24.577  56.579  0.00  0.00     0.019 A 
ATOM     16  C   UNL d   1      44.800  23.897  56.150  0.00  0.00     0.002 A 
ATOM     17  C   UNL d   1      44.668  23.931  55.309  0.00  0.00     0.000 A 
ATOM     18  C   UNL d   1      44.429  24.634  54.954  0.00  0.00     0.002 A 
ATOM     19  C   UNL d   1      44.780  23.259  54.833  0.00  0.00     0.000 C 
ATOM     20  C   UNL d   1      44.314  25.302  55.401  0.00  0.00     0.019 A 
ENDBRANCH   2  14
TORSDOF 5
ENDMDL
MODEL 7
REMARK VINA RESULT:      -4.8     10.131     10.779
REMARK  5 active torsions:
REMARK  status: ('A' for Active; 'I' for Inactive)
REMARK    1  A    between atoms: N_2  and  C_1 
REMARK    2  A    between atoms: C_8  and  C_5 
REMARK    3  A    between atoms: C_6  and  C_9 
REMARK       I    between atoms: N_12  and  C_6 
REMARK    4  A    between atoms: C_9  and  C_8 
REMARK    5  A    between atoms: C_14  and  N_12 
ROOT
ATOM      1  C   UNL d   1      44.700  29.960  59.769  0.00  0.00     0.279 C 
ATOM      2  N   UNL d   1      44.344  29.758  60.479  0.00  0.00    -0.208 NA
ATOM      3  O   UNL d   1      45.116  30.666  59.705  0.00  0.00    -0.265 OA
ENDROOT
BRANCH   1   4
ATOM      4  C   UNL d   1      44.642  29.452  59.115  0.00  0.00     0.063 C 
BRANCH   4   5
ATOM      5  C   UNL d   1      44.868  29.711  58.364  0.00  0.00     0.011 C 
BRANCH   5   6
ATOM      6  C   UNL d   1      44.933  29.162  57.725  0.00  0.00     0.031 A 
ATOM      7  S   UNL d   1      45.170  28.373  57.700  0.00  0.00    -0.064 SA
ATOM      8  C   UNL d   1      45.121  28.128  56.922  0.00  0.00     0.156 A 
ATOM      9  C   UNL d   1      44.858  28.746  56.454  0.00  0.00     0.031 A 
ATOM     10  C   UNL d   1      44.741  29.398  56.963  0.00  0.00     0.009 A 
BRANCH   8  11
ATOM     11  N   UNL d   1      45.312  27.364  56.661  0.00  0.00    -0.107 N 
ATOM     12  O   UNL d   1      45.921  26.932  57.008  0.00  0.00    -0.531 OA
ATOM     13  O   UNL d   1      44.873  27.039  56.038  0.00  0.00    -0.531 OA
ENDBRANCH   8  11
ENDBRANCH   5   6
ENDBRANCH   4   5
ENDBRANCH   1   4
BRANCH   2  14
ATOM     14  C   UNL d   1      44.403  30.266  61.133  0.00  0.00     0.085 A 
ATOM     15  C   UNL d   1      44.331  31.088  61.026  0.00  0.00     0.019 A 
ATOM     16  C   UNL d   1      44.385  31.602  61.653  0.00  0.00     0.002 A 
ATOM     17  C   UNL d   1      44.519  31.270  62.428  0.00  0.00     0.000 A 
ATOM     18  C   UNL d   1      44.588  30.457  62.524  0.00  0.00     0.002 A 
ATOM     19  C   UNL d   1      44.580  31.761  63.096  0.00  0.00     0.000 C 
ATOM     20  C   UNL d   1      44.531  29.960  61.884  0.00  0.00     0.019 A 
ENDBRANCH   2  14
TORSDOF 5
ENDMDL
MODEL 8
REMARK VINA RESULT:      -4.8     10.084     10.790
REMARK  5 active torsions:
REMARK  status: ('A' for Active; 'I' for Inactive)
REMARK    1  A    between atoms: N_2  and  C_1 
REMARK    2  A    between atoms: C_8  and  C_5 
REMARK    3  A    between atoms: C_6  and  C_9 
REMARK       I    between atoms: N_12  and  C_6 
REMARK    4  A    between atoms: C_9  and  C_8 
REMARK    5  A    between atoms: C_14  and  N_12 
ROOT
ATOM      1  C   UNL d   1      45.005  27.331  57.821  0.00  0.00     0.279 C 
ATOM      2  N   UNL d   1      44.387  26.832  57.621  0.00  0.00    -0.208 NA
ATOM      3  O   UNL d   1      45.645  27.043  58.248  0.00  0.00    -0.265 OA
ENDROOT
BRANCH   1   4
ATOM      4  C   UNL d   1      44.987  28.130  57.591  0.00  0.00     0.063 C 
BRANCH   4   5
ATOM      5  C   UNL d   1      45.087  28.727  58.151  0.00  0.00     0.011 C 
BRANCH   5   6
ATOM      6  C   UNL d   1      45.001  29.538  57.930  0.00  0.00     0.031 A 
ATOM      7  S   UNL d   1      44.804  29.895  57.214  0.00  0.00    -0.064 SA
ATOM      8  C   UNL d   1      44.807  30.704  57.334  0.00  0.00     0.156 A 
ATOM      9  C   UNL d   1      45.001  30.865  58.113  0.00  0.00     0.031 A 
ATOM     10  C   UNL d   1      45.123  30.129  58.487  0.00  0.00     0.009 A 
BRANCH   8  11
ATOM     11  N   UNL d   1      44.636  31.263  56.746  0.00  0.00    -0.107 N 
ATOM     12  O   UNL d   1      44.513  31.039  55.964  0.00  0.00    -0.531 OA
ATOM     13  O   UNL d   1      44.590  32.061  56.963  0.00  0.00    -0.531 OA
ENDBRANCH   8  11
ENDBRANCH   5   6
ENDBRANCH   4   5
ENDBRANCH   1   4
BRANCH   2  14
ATOM     14  C   UNL d   1      44.406  26.035  57.850  0.00  0.00     0.085 A 
ATOM     15  C   UNL d   1      44.516  25.442  57.277  0.00  0.00     0.019 A 
ATOM     16  C   UNL d   1      44.538  24.656  57.481  0.00  0.00     0.002 A 
ATOM     17  C   UNL d   1      44.443  24.457  58.305  0.00  0.00     0.000 A 
ATOM     18  C   UNL d   1      44.335  25.049  58.865  0.00  0.00     0.002 A 
ATOM     19  C   UNL d   1      44.459  23.664  58.555  0.00  0.00     0.000 C 
ATOM     20  C   UNL d   1      44.316  25.829  58.640  0.00  0.00     0.019 A 
ENDBRANCH   2  14
TORSDOF 5
ENDMDL
MODEL 9
REMARK VINA RESULT:      -4.7     10.457     11.378
REMARK  5 active torsions:
REMARK  status: ('A' for Active; 'I' for Inactive)
REMARK    1  A    between atoms: N_2  and  C_1 
REMARK    2  A    between atoms: C_8  and  C_5 
REMARK    3  A    between atoms: C_6  and  C_9 
REMARK       I    between atoms: N_12  and  C_6 
REMARK    4  A    between atoms: C_9  and  C_8 
REMARK    5  A    between atoms: C_14  and  N_12 
ROOT
ATOM      1  C   UNL d   1      44.904  29.681  59.069  0.00  0.00     0.279 C 
ATOM      2  N   UNL d   1      44.322  29.207  58.741  0.00  0.00    -0.208 NA
ATOM      3  O   UNL d   1      45.677  29.629  58.795  0.00  0.00    -0.265 OA
ENDROOT
BRANCH   1   4
ATOM      4  C   UNL d   1      44.714  30.213  59.678  0.00  0.00     0.063 C 
BRANCH   4   5
ATOM      5  C   UNL d   1      45.210  30.291  60.333  0.00  0.00     0.011 C 
BRANCH   5   6
ATOM      6  C   UNL d   1      44.909  30.596  61.061  0.00  0.00     0.031 A 
ATOM      7  S   UNL d   1      44.892  30.282  61.824  0.00  0.00    -0.064 SA
ATOM      8  C   UNL d   1      44.529  30.833  62.307  0.00  0.00     0.156 A 
ATOM      9  C   UNL d   1      44.316  31.489  61.865  0.00  0.00     0.031 A 
ATOM     10  C   UNL d   1      44.556  31.337  61.080  0.00  0.00     0.009 A 
BRANCH   8  11
ATOM     11  N   UNL d   1      44.403  30.728  63.120  0.00  0.00    -0.107 N 
ATOM     12  O   UNL d   1      44.314  29.978  63.446  0.00  0.00    -0.531 OA
ATOM     13  O   UNL d   1      44.368  31.400  63.603  0.00  0.00    -0.531 OA
ENDBRANCH   8  11
ENDBRANCH   5   6
ENDBRANCH   4   5
ENDBRANCH   1   4
BRANCH   2  14
ATOM     14  C   UNL d   1      44.511  28.675  58.133  0.00  0.00     0.085 A 
ATOM     15  C   UNL d   1      44.732  27.895  58.319  0.00  0.00     0.019 A 
ATOM     16  C   UNL d   1      44.921  27.359  57.739  0.00  0.00     0.002 A 
ATOM     17  C   UNL d   1      44.887  27.623  56.929  0.00  0.00     0.000 A 
ATOM     18  C   UNL d   1      44.669  28.396  56.753  0.00  0.00     0.002 A 
ATOM     19  C   UNL d   1      45.074  27.106  56.305  0.00  0.00     0.000 C 
ATOM     20  C   UNL d   1      44.483  28.916  57.348  0.00  0.00     0.019 A 
ENDBRANCH   2  14
TORSDOF 5
ENDMDL
