MODEL 1
REMARK VINA RESULT:      -8.6      0.000      0.000
REMARK  6 active torsions:
REMARK  status: ('A' for Active; 'I' for Inactive)
REMARK    1  A    between atoms: C_9  and  N_1 
REMARK    2  A    between atoms: S_10  and  C_6 
REMARK    3  A    between atoms: C_16  and  C_9 
REMARK    4  A    between atoms: C_15  and  S_10 
REMARK    5  A    between atoms: C_12  and  C_15 
REMARK       I    between atoms: N_13  and  C_12 
REMARK    6  A    between atoms: C_19  and  N_13 
ROOT
ATOM      1  N   UNL d   1      52.513  32.408  53.067  0.00  0.00    -0.192 N 
ATOM      2  N   UNL d   1      51.791  32.056  52.902  0.00  0.00    -0.058 NA
ATOM      3  C   UNL d   1      52.389  33.222  53.115  0.00  0.00     0.189 A 
ATOM      4  C   UNL d   1      51.584  33.359  52.977  0.00  0.00     0.164 A 
ATOM      5  N   UNL d   1      51.225  32.628  52.847  0.00  0.00    -0.125 NA
ATOM      6  C   UNL d   1      51.286  34.120  52.988  0.00  0.00     0.135 A 
ATOM      7  N   UNL d   1      52.896  33.844  53.263  0.00  0.00    -0.203 NA
ATOM      8  N   UNL d   1      51.796  34.759  53.139  0.00  0.00    -0.216 NA
ATOM      9  C   UNL d   1      52.601  34.622  53.276  0.00  0.00     0.201 A 
ENDROOT
BRANCH   6  10
ATOM     10  S   UNL d   1      50.481  34.257  52.851  0.00  0.00    -0.061 SA
BRANCH  10  11
ATOM     11  C   UNL d   1      50.113  34.912  53.172  0.00  0.00     0.099 C 
BRANCH  11  12
ATOM     12  C   UNL d   1      49.349  35.116  52.926  0.00  0.00     0.286 C 
ATOM     13  N   UNL d   1      48.931  35.703  53.341  0.00  0.00    -0.208 NA
ATOM     14  O   UNL d   1      49.001  34.746  52.277  0.00  0.00    -0.265 OA
BRANCH  13  15
ATOM     15  C   UNL d   1      48.167  35.913  53.102  0.00  0.00     0.085 A 
ATOM     16  C   UNL d   1      47.815  35.992  52.345  0.00  0.00     0.019 A 
ATOM     17  C   UNL d   1      47.041  36.215  52.465  0.00  0.00     0.002 A 
ATOM     18  C   UNL d   1      46.917  36.272  53.254  0.00  0.00     0.002 A 
ATOM     19  C   UNL d   1      47.591  36.092  53.663  0.00  0.00     0.019 A 
ENDBRANCH  13  15
ENDBRANCH  11  12
ENDBRANCH  10  11
ENDBRANCH   6  10
BRANCH   1  20
ATOM     20  C   UNL d   1      53.245  32.008  53.168  0.00  0.00     0.104 C 
BRANCH  20  21
ATOM     21  C   UNL d   1      53.260  31.207  53.410  0.00  0.00     0.019 A 
ATOM     22  C   UNL d   1      53.401  31.018  54.203  0.00  0.00     0.004 A 
ATOM     23  C   UNL d   1      53.416  30.236  54.444  0.00  0.00     0.030 A 
ATOM     24  C   UNL d   1      53.290  29.632  53.890  0.00  0.00     0.140 A 
ATOM     25  C   UNL d   1      53.149  29.817  53.089  0.00  0.00     0.030 A 
ATOM     26  F   UNL d   1      53.309  28.832  54.149  0.00  0.00    -0.204 F 
ATOM     27  C   UNL d   1      53.137  30.600  52.866  0.00  0.00     0.004 A 
ENDBRANCH  20  21
ENDBRANCH   1  20
TORSDOF 6
ENDMDL
MODEL 2
REMARK VINA RESULT:      -8.1      1.845      2.420
REMARK  6 active torsions:
REMARK  status: ('A' for Active; 'I' for Inactive)
REMARK    1  A    between atoms: C_9  and  N_1 
REMARK    2  A    between atoms: S_10  and  C_6 
REMARK    3  A    between atoms: C_16  and  C_9 
REMARK    4  A    between atoms: C_15  and  S_10 
REMARK    5  A    between atoms: C_12  and  C_15 
REMARK       I    between atoms: N_13  and  C_12 
REMARK    6  A    between atoms: C_19  and  N_13 
ROOT
ATOM      1  N   UNL d   1      52.857  33.575  53.412  0.00  0.00    -0.192 N 
ATOM      2  N   UNL d   1      52.849  34.395  53.425  0.00  0.00    -0.058 NA
ATOM      3  C   UNL d   1      52.088  33.320  53.262  0.00  0.00     0.189 A 
ATOM      4  C   UNL d   1      51.613  33.994  53.183  0.00  0.00     0.164 A 
ATOM      5  N   UNL d   1      52.097  34.653  53.286  0.00  0.00    -0.125 NA
ATOM      6  C   UNL d   1      50.814  33.922  53.029  0.00  0.00     0.135 A 
ATOM      7  N   UNL d   1      51.763  32.574  53.187  0.00  0.00    -0.203 NA
ATOM      8  N   UNL d   1      50.476  33.166  52.952  0.00  0.00    -0.216 NA
ATOM      9  C   UNL d   1      50.951  32.492  53.031  0.00  0.00     0.201 A 
ENDROOT
BRANCH   6  10
ATOM     10  S   UNL d   1      50.339  34.596  52.950  0.00  0.00    -0.061 SA
BRANCH  10  11
ATOM     11  C   UNL d   1      49.621  34.553  52.564  0.00  0.00     0.099 C 
BRANCH  11  12
ATOM     12  C   UNL d   1      49.046  35.133  52.700  0.00  0.00     0.286 C 
ATOM     13  N   UNL d   1      48.379  35.169  52.204  0.00  0.00    -0.208 NA
ATOM     14  O   UNL d   1      49.126  35.672  53.318  0.00  0.00    -0.265 OA
BRANCH  13  15
ATOM     15  C   UNL d   1      47.799  35.745  52.332  0.00  0.00     0.085 A 
ATOM     16  C   UNL d   1      47.658  36.270  52.971  0.00  0.00     0.019 A 
ATOM     17  C   UNL d   1      47.000  36.709  52.776  0.00  0.00     0.002 A 
ATOM     18  C   UNL d   1      46.745  36.470  52.055  0.00  0.00     0.002 A 
ATOM     19  C   UNL d   1      47.218  35.882  51.764  0.00  0.00     0.019 A 
ENDBRANCH  13  15
ENDBRANCH  11  12
ENDBRANCH  10  11
ENDBRANCH   6  10
BRANCH   1  20
ATOM     20  C   UNL d   1      53.530  33.086  53.532  0.00  0.00     0.104 C 
BRANCH  20  21
ATOM     21  C   UNL d   1      54.080  33.264  54.138  0.00  0.00     0.019 A 
ATOM     22  C   UNL d   1      54.780  33.666  53.955  0.00  0.00     0.004 A 
ATOM     23  C   UNL d   1      55.321  33.842  54.543  0.00  0.00     0.030 A 
ATOM     24  C   UNL d   1      55.164  33.616  55.326  0.00  0.00     0.140 A 
ATOM     25  C   UNL d   1      54.460  33.211  55.516  0.00  0.00     0.030 A 
ATOM     26  F   UNL d   1      55.727  33.803  55.923  0.00  0.00    -0.204 F 
ATOM     27  C   UNL d   1      53.933  33.044  54.918  0.00  0.00     0.004 A 
ENDBRANCH  20  21
ENDBRANCH   1  20
TORSDOF 6
ENDMDL
MODEL 3
REMARK VINA RESULT:      -7.2      2.512      6.457
REMARK  6 active torsions:
REMARK  status: ('A' for Active; 'I' for Inactive)
REMARK    1  A    between atoms: C_9  and  N_1 
REMARK    2  A    between atoms: S_10  and  C_6 
REMARK    3  A    between atoms: C_16  and  C_9 
REMARK    4  A    between atoms: C_15  and  S_10 
REMARK    5  A    between atoms: C_12  and  C_15 
REMARK       I    between atoms: N_13  and  C_12 
REMARK    6  A    between atoms: C_19  and  N_13 
ROOT
ATOM      1  N   UNL d   1      48.140  35.685  52.518  0.00  0.00    -0.192 N 
ATOM      2  N   UNL d   1      48.470  35.732  53.268  0.00  0.00    -0.058 NA
ATOM      3  C   UNL d   1      48.632  35.210  52.058  0.00  0.00     0.189 A 
ATOM      4  C   UNL d   1      49.264  34.969  52.537  0.00  0.00     0.164 A 
ATOM      5  N   UNL d   1      49.151  35.300  53.284  0.00  0.00    -0.125 NA
ATOM      6  C   UNL d   1      49.851  34.488  52.236  0.00  0.00     0.135 A 
ATOM      7  N   UNL d   1      48.588  34.969  51.279  0.00  0.00    -0.203 NA
ATOM      8  N   UNL d   1      49.813  34.238  51.444  0.00  0.00    -0.216 NA
ATOM      9  C   UNL d   1      49.182  34.479  50.965  0.00  0.00     0.201 A 
ENDROOT
BRANCH   6  10
ATOM     10  S   UNL d   1      50.482  34.247  52.714  0.00  0.00    -0.061 SA
BRANCH  10  11
ATOM     11  C   UNL d   1      51.152  33.918  52.382  0.00  0.00     0.099 C 
BRANCH  11  12
ATOM     12  C   UNL d   1      51.753  33.624  52.870  0.00  0.00     0.286 C 
ATOM     13  N   UNL d   1      52.310  33.093  52.555  0.00  0.00    -0.208 NA
ATOM     14  O   UNL d   1      51.804  33.851  53.661  0.00  0.00    -0.265 OA
BRANCH  13  15
ATOM     15  C   UNL d   1      52.914  32.795  53.036  0.00  0.00     0.085 A 
ATOM     16  C   UNL d   1      53.501  33.171  53.502  0.00  0.00     0.019 A 
ATOM     17  C   UNL d   1      53.940  32.580  53.853  0.00  0.00     0.002 A 
ATOM     18  C   UNL d   1      53.642  31.875  53.617  0.00  0.00     0.002 A 
ATOM     19  C   UNL d   1      53.014  31.981  53.118  0.00  0.00     0.019 A 
ENDBRANCH  13  15
ENDBRANCH  11  12
ENDBRANCH  10  11
ENDBRANCH   6  10
BRANCH   1  20
ATOM     20  C   UNL d   1      47.429  36.056  52.268  0.00  0.00     0.104 C 
BRANCH  20  21
ATOM     21  C   UNL d   1      46.771  36.100  52.783  0.00  0.00     0.019 A 
ATOM     22  C   UNL d   1      46.134  35.581  52.684  0.00  0.00     0.004 A 
ATOM     23  C   UNL d   1      45.488  35.620  53.185  0.00  0.00     0.030 A 
ATOM     24  C   UNL d   1      45.473  36.183  53.794  0.00  0.00     0.140 A 
ATOM     25  C   UNL d   1      46.113  36.709  53.898  0.00  0.00     0.030 A 
ATOM     26  F   UNL d   1      44.804  36.215  54.303  0.00  0.00    -0.204 F 
ATOM     27  C   UNL d   1      46.747  36.657  53.391  0.00  0.00     0.004 A 
ENDBRANCH  20  21
ENDBRANCH   1  20
TORSDOF 6
ENDMDL
MODEL 4
REMARK VINA RESULT:      -6.5      2.393      3.698
REMARK  6 active torsions:
REMARK  status: ('A' for Active; 'I' for Inactive)
REMARK    1  A    between atoms: C_9  and  N_1 
REMARK    2  A    between atoms: S_10  and  C_6 
REMARK    3  A    between atoms: C_16  and  C_9 
REMARK    4  A    between atoms: C_15  and  S_10 
REMARK    5  A    between atoms: C_12  and  C_15 
REMARK       I    between atoms: N_13  and  C_12 
REMARK    6  A    between atoms: C_19  and  N_13 
ROOT
ATOM      1  N   UNL d   1      49.984  34.549  52.461  0.00  0.00    -0.192 N 
ATOM      2  N   UNL d   1      49.947  34.886  53.208  0.00  0.00    -0.058 NA
ATOM      3  C   UNL d   1      49.289  34.745  52.064  0.00  0.00     0.189 A 
ATOM      4  C   UNL d   1      48.830  35.205  52.577  0.00  0.00     0.164 A 
ATOM      5  N   UNL d   1      49.249  35.284  53.283  0.00  0.00    -0.125 NA
ATOM      6  C   UNL d   1      48.101  35.487  52.340  0.00  0.00     0.135 A 
ATOM      7  N   UNL d   1      49.020  34.568  51.313  0.00  0.00    -0.203 NA
ATOM      8  N   UNL d   1      47.820  35.312  51.578  0.00  0.00    -0.216 NA
ATOM      9  C   UNL d   1      48.279  34.852  51.065  0.00  0.00     0.201 A 
ENDROOT
BRANCH   6  10
ATOM     10  S   UNL d   1      47.642  35.947  52.853  0.00  0.00    -0.061 SA
BRANCH  10  11
ATOM     11  C   UNL d   1      46.835  36.005  52.747  0.00  0.00     0.099 C 
BRANCH  11  12
ATOM     12  C   UNL d   1      46.345  36.174  53.393  0.00  0.00     0.286 C 
ATOM     13  N   UNL d   1      45.606  35.798  53.453  0.00  0.00    -0.208 NA
ATOM     14  O   UNL d   1      46.581  36.709  53.973  0.00  0.00    -0.265 OA
BRANCH  13  15
ATOM     15  C   UNL d   1      45.110  35.962  54.096  0.00  0.00     0.085 A 
ATOM     16  C   UNL d   1      44.733  36.666  54.351  0.00  0.00     0.019 A 
ATOM     17  C   UNL d   1      44.314  36.480  55.025  0.00  0.00     0.002 A 
ATOM     18  C   UNL d   1      44.424  35.701  55.180  0.00  0.00     0.002 A 
ATOM     19  C   UNL d   1      44.907  35.364  54.625  0.00  0.00     0.019 A 
ENDBRANCH  13  15
ENDBRANCH  11  12
ENDBRANCH  10  11
ENDBRANCH   6  10
BRANCH   1  20
ATOM     20  C   UNL d   1      50.619  34.087  52.160  0.00  0.00     0.104 C 
BRANCH  20  21
ATOM     21  C   UNL d   1      51.303  33.956  52.622  0.00  0.00     0.019 A 
ATOM     22  C   UNL d   1      51.330  33.318  53.149  0.00  0.00     0.004 A 
ATOM     23  C   UNL d   1      51.997  33.185  53.604  0.00  0.00     0.030 A 
ATOM     24  C   UNL d   1      52.649  33.693  53.534  0.00  0.00     0.140 A 
ATOM     25  C   UNL d   1      52.628  34.337  53.005  0.00  0.00     0.030 A 
ATOM     26  F   UNL d   1      53.330  33.547  54.007  0.00  0.00    -0.204 F 
ATOM     27  C   UNL d   1      51.957  34.455  52.560  0.00  0.00     0.004 A 
ENDBRANCH  20  21
ENDBRANCH   1  20
TORSDOF 6
ENDMDL
MODEL 5
REMARK VINA RESULT:      -6.2      2.323      5.990
REMARK  6 active torsions:
REMARK  status: ('A' for Active; 'I' for Inactive)
REMARK    1  A    between atoms: C_9  and  N_1 
REMARK    2  A    between atoms: S_10  and  C_6 
REMARK    3  A    between atoms: C_16  and  C_9 
REMARK    4  A    between atoms: C_15  and  S_10 
REMARK    5  A    between atoms: C_12  and  C_15 
REMARK       I    between atoms: N_13  and  C_12 
REMARK    6  A    between atoms: C_19  and  N_13 
ROOT
ATOM      1  N   UNL d   1      50.366  34.412  52.987  0.00  0.00    -0.192 N 
ATOM      2  N   UNL d   1      50.006  33.676  52.940  0.00  0.00    -0.058 NA
ATOM      3  C   UNL d   1      51.180  34.290  53.018  0.00  0.00     0.189 A 
ATOM      4  C   UNL d   1      51.311  33.472  52.989  0.00  0.00     0.164 A 
ATOM      5  N   UNL d   1      50.574  33.104  52.941  0.00  0.00    -0.125 NA
ATOM      6  C   UNL d   1      52.070  33.173  53.010  0.00  0.00     0.135 A 
ATOM      7  N   UNL d   1      51.810  34.808  53.068  0.00  0.00    -0.203 NA
ATOM      8  N   UNL d   1      52.716  33.694  53.061  0.00  0.00    -0.216 NA
ATOM      9  C   UNL d   1      52.586  34.511  53.089  0.00  0.00     0.201 A 
ENDROOT
BRANCH   6  10
ATOM     10  S   UNL d   1      52.201  32.356  52.981  0.00  0.00    -0.061 SA
BRANCH  10  11
ATOM     11  C   UNL d   1      52.921  32.044  53.205  0.00  0.00     0.099 C 
BRANCH  11  12
ATOM     12  C   UNL d   1      53.009  31.224  53.281  0.00  0.00     0.286 C 
ATOM     13  N   UNL d   1      53.265  30.907  54.006  0.00  0.00    -0.208 NA
ATOM     14  O   UNL d   1      52.848  30.721  52.648  0.00  0.00    -0.265 OA
BRANCH  13  15
ATOM     15  C   UNL d   1      53.355  30.088  54.090  0.00  0.00     0.085 A 
ATOM     16  C   UNL d   1      53.613  29.493  53.560  0.00  0.00     0.019 A 
ATOM     17  C   UNL d   1      53.584  28.786  53.964  0.00  0.00     0.002 A 
ATOM     18  C   UNL d   1      53.321  28.934  54.706  0.00  0.00     0.002 A 
ATOM     19  C   UNL d   1      53.175  29.723  54.806  0.00  0.00     0.019 A 
ENDBRANCH  13  15
ENDBRANCH  11  12
ENDBRANCH  10  11
ENDBRANCH   6  10
BRANCH   1  20
ATOM     20  C   UNL d   1      49.971  35.154  53.001  0.00  0.00     0.104 C 
BRANCH  20  21
ATOM     21  C   UNL d   1      49.218  35.240  52.647  0.00  0.00     0.019 A 
ATOM     22  C   UNL d   1      48.580  35.515  53.096  0.00  0.00     0.004 A 
ATOM     23  C   UNL d   1      47.841  35.601  52.755  0.00  0.00     0.030 A 
ATOM     24  C   UNL d   1      47.734  35.410  51.955  0.00  0.00     0.140 A 
ATOM     25  C   UNL d   1      48.374  35.132  51.497  0.00  0.00     0.030 A 
ATOM     26  F   UNL d   1      46.970  35.502  51.614  0.00  0.00    -0.204 F 
ATOM     27  C   UNL d   1      49.101  35.053  51.853  0.00  0.00     0.004 A 
ENDBRANCH  20  21
ENDBRANCH   1  20
TORSDOF 6
ENDMDL
