MODEL 1
REMARK VINA RESULT:       4.1      0.000      0.000
REMARK  1 active torsions:
REMARK  status: ('A' for Active; 'I' for Inactive)
REMARK    1  A    between atoms: C_11  and  C_4 
ROOT
ATOM      1  O   UNL d   1     -51.567  23.822  33.312  0.00  0.00    -0.304 OA
ATOM      2  C   UNL d   1     -51.917  25.116  33.312  0.00  0.00     0.025 A 
ATOM      3  C   UNL d   1     -52.609  24.657  33.312  0.00  0.00     0.030 A 
ATOM      4  C   UNL d   1     -52.393  23.860  33.312  0.00  0.00     0.142 A 
ATOM      5  C   UNL d   1     -51.278  24.592  33.312  0.00  0.00     0.100 A 
ATOM      6  C   UNL d   1     -51.797  25.922  33.313  0.00  0.00     0.009 A 
ATOM      7  C   UNL d   1     -50.509  24.886  33.312  0.00  0.00     0.025 A 
ATOM      8  C   UNL d   1     -51.026  26.228  33.313  0.00  0.00     0.035 A 
ATOM      9  C   UNL d   1     -50.381  25.706  33.313  0.00  0.00     0.009 A 
ATOM     10 BR   UNL d   1     -50.897  27.041  33.313  0.00  0.00    -0.049 Br
ENDROOT
BRANCH   4  11
ATOM     11  C   UNL d   1     -52.909  23.217  33.311  0.00  0.00     0.259 C 
ATOM     12  O   UNL d   1     -53.644  23.282  33.662  0.00  0.00    -0.281 OA
ENDBRANCH   4  11
TORSDOF 1
ENDMDL
