MODEL 1
REMARK VINA RESULT:      -1.6      0.000      0.000
REMARK  5 active torsions:
REMARK  status: ('A' for Active; 'I' for Inactive)
REMARK    1  A    between atoms: C_12  and  N_3 
REMARK    2  A    between atoms: C_11  and  C_5 
REMARK       I    between atoms: N_16  and  C_11 
REMARK    3  A    between atoms: C_15  and  C_12 
REMARK    4  A    between atoms: C_26  and  N_16 
REMARK    5  A    between atoms: C_27  and  C_26 
ROOT
ATOM      1  C   UNL d   1      57.904  -0.229  31.293  0.00  0.00     0.155 A 
ATOM      2  C   UNL d   1      57.449  -0.894  31.073  0.00  0.00     0.091 A 
ATOM      3  N   UNL d   1      58.514   0.023  30.805  0.00  0.00    -0.272 N 
ATOM      4  N   UNL d   1      57.735   0.165  31.993  0.00  0.00    -0.210 NA
ATOM      5  C   UNL d   1      58.231  -1.036  29.882  0.00  0.00     0.094 A 
ATOM      6  C   UNL d   1      58.681  -0.377  30.099  0.00  0.00     0.175 A 
ATOM      7  C   UNL d   1      56.834  -1.152  31.559  0.00  0.00     0.269 A 
ATOM      8  N   UNL d   1      56.674  -0.746  32.263  0.00  0.00    -0.258 N 
ATOM      9  C   UNL d   1      57.126  -0.087  32.477  0.00  0.00     0.152 A 
ATOM     10  C   UNL d   1      57.614  -1.293  30.371  0.00  0.00     0.016 A 
ATOM     11  N   UNL d   1      59.296  -0.119  29.614  0.00  0.00    -0.128 N 
ATOM     12  C   UNL d   1      56.055  -1.010  32.747  0.00  0.00     0.084 A 
ATOM     13  O   UNL d   1      56.380  -1.810  31.348  0.00  0.00    -0.266 OA
ATOM     14  C   UNL d   1      56.955   0.306  33.181  0.00  0.00     0.038 A 
ATOM     15  C   UNL d   1      55.896  -0.605  33.448  0.00  0.00     0.019 A 
ATOM     16  C   UNL d   1      56.347   0.054  33.665  0.00  0.00     0.005 A 
ENDROOT
BRANCH   5  17
ATOM     17  C   UNL d   1      58.396  -1.435  29.180  0.00  0.00     0.282 C 
ATOM     18  N   UNL d   1      58.615  -2.231  29.201  0.00  0.00    -0.206 NA
ATOM     19  O   UNL d   1      58.342  -1.040  28.456  0.00  0.00    -0.265 OA
BRANCH  18  20
ATOM     20  C   UNL d   1      58.782  -2.637  28.495  0.00  0.00     0.102 C 
BRANCH  20  21
ATOM     21  C   UNL d   1      59.199  -3.348  28.514  0.00  0.00     0.019 A 
ATOM     22  C   UNL d   1      58.793  -4.068  28.475  0.00  0.00     0.002 A 
ATOM     23  C   UNL d   1      59.210  -4.779  28.494  0.00  0.00     0.000 A 
ATOM     24  C   UNL d   1      60.036  -4.774  28.554  0.00  0.00     0.000 A 
ATOM     25  C   UNL d   1      60.439  -4.052  28.593  0.00  0.00     0.000 A 
ATOM     26  C   UNL d   1      60.453  -5.485  28.573  0.00  0.00     0.000 C 
ATOM     27  C   UNL d   1      60.022  -3.341  28.573  0.00  0.00     0.002 A 
ENDBRANCH  20  21
ENDBRANCH  18  20
ENDBRANCH   5  17
BRANCH   3  28
ATOM     28  C   UNL d   1      58.965   0.682  31.022  0.00  0.00     0.107 C 
BRANCH  28  29
ATOM     29  C   UNL d   1      59.784   0.618  31.089  0.00  0.00     0.118 A 
ATOM     30  O   UNL d   1      60.502   0.528  30.705  0.00  0.00    -0.304 OA
ATOM     31  C   UNL d   1      61.104   0.520  31.265  0.00  0.00     0.123 A 
ATOM     32  C   UNL d   1      60.756   0.607  32.009  0.00  0.00     0.029 A 
ATOM     33  C   UNL d   1      59.941   0.668  31.902  0.00  0.00     0.028 A 
ENDBRANCH  28  29
ENDBRANCH   3  28
TORSDOF 5
ENDMDL
