MODEL 1
REMARK VINA RESULT:      43.8      0.000      0.000
REMARK  4 active torsions:
REMARK  status: ('A' for Active; 'I' for Inactive)
REMARK    1  A    between atoms: S_2  and  C_1 
REMARK    2  A    between atoms: C_10  and  S_2 
REMARK    3  A    between atoms: N_7  and  C_5 
REMARK    4  A    between atoms: C_11  and  N_7 
ROOT
ATOM      1  C   UNL d   1     -55.002-101.550 -43.338  0.00  0.00     0.187 A 
ATOM      2  N   UNL d   1     -54.967-101.695 -42.530  0.00  0.00    -0.208 NA
ATOM      3  C   UNL d   1     -54.856-102.257 -43.738  0.00  0.00     0.118 A 
ATOM      4  C   UNL d   1     -54.798-102.492 -42.429  0.00  0.00     0.196 A 
ATOM      5  S   UNL d   1     -54.731-102.835 -43.163  0.00  0.00    -0.035 SA
ATOM      6 CL   UNL d   1     -54.838-102.364 -44.546  0.00  0.00    -0.073 Cl
ENDROOT
BRANCH   1   7
ATOM      7  S   UNL d   1     -55.157-100.821 -43.695  0.00  0.00     0.228 S 
ATOM      8  O   UNL d   1     -55.324-101.249 -44.375  0.00  0.00    -0.216 OA
ATOM      9  O   UNL d   1     -54.989-100.402 -43.009  0.00  0.00    -0.216 OA
BRANCH   7  10
ATOM     10  C   UNL d   1     -55.330-100.137 -44.121  0.00  0.00     0.089 A 
ATOM     11  C   UNL d   1     -56.112 -99.981 -44.360  0.00  0.00     0.011 A 
ATOM     12  C   UNL d   1     -56.281 -99.290 -44.790  0.00  0.00     0.001 A 
ATOM     13  C   UNL d   1     -55.679 -98.758 -44.982  0.00  0.00     0.000 A 
ATOM     14  C   UNL d   1     -54.895 -98.921 -44.739  0.00  0.00     0.001 A 
ATOM     15  C   UNL d   1     -54.723 -99.606 -44.312  0.00  0.00     0.011 A 
ENDBRANCH   7  10
ENDBRANCH   1   7
BRANCH   4  16
ATOM     16  N   UNL d   1     -54.714-102.874 -41.704  0.00  0.00    -0.221 NA
BRANCH  16  17
ATOM     17  C   UNL d   1     -54.778-102.445 -41.006  0.00  0.00     0.087 A 
ATOM     18  C   UNL d   1     -54.904-102.834 -40.302  0.00  0.00     0.061 A 
ATOM     19  C   UNL d   1     -54.968-102.411 -39.603  0.00  0.00     0.197 A 
ATOM     20  O   UNL d   1     -55.096-102.806 -38.895  0.00  0.00    -0.286 OA
ATOM     21  C   UNL d   1     -54.905-101.588 -39.612  0.00  0.00     0.042 A 
ATOM     22  C   UNL d   1     -54.777-101.198 -40.328  0.00  0.00     0.005 A 
ATOM     23  C   UNL d   1     -54.713-101.622 -41.025  0.00  0.00     0.019 A 
ENDBRANCH  16  17
ENDBRANCH   4  16
TORSDOF 4
ENDMDL
MODEL 2
REMARK VINA RESULT:      45.9      2.135      3.279
REMARK  4 active torsions:
REMARK  status: ('A' for Active; 'I' for Inactive)
REMARK    1  A    between atoms: S_2  and  C_1 
REMARK    2  A    between atoms: C_10  and  S_2 
REMARK    3  A    between atoms: N_7  and  C_5 
REMARK    4  A    between atoms: C_11  and  N_7 
ROOT
ATOM      1  C   UNL d   1     -56.449 -99.573 -44.653  0.00  0.00     0.187 A 
ATOM      2  N   UNL d   1     -56.067-100.077 -44.130  0.00  0.00    -0.208 NA
ATOM      3  C   UNL d   1     -55.913 -99.349 -45.239  0.00  0.00     0.118 A 
ATOM      4  C   UNL d   1     -55.293-100.166 -44.391  0.00  0.00     0.196 A 
ATOM      5  S   UNL d   1     -55.199 -99.723 -45.066  0.00  0.00    -0.035 SA
ATOM      6 CL   UNL d   1     -56.061 -98.852 -45.868  0.00  0.00    -0.073 Cl
ENDROOT
BRANCH   1   7
ATOM      7  S   UNL d   1     -57.237 -99.329 -44.605  0.00  0.00     0.228 S 
ATOM      8  O   UNL d   1     -57.325 -99.903 -44.025  0.00  0.00    -0.216 OA
ATOM      9  O   UNL d   1     -57.139 -98.757 -45.186  0.00  0.00    -0.216 OA
BRANCH   7  10
ATOM     10  C   UNL d   1     -58.033 -99.144 -44.496  0.00  0.00     0.089 A 
ATOM     11  C   UNL d   1     -58.525 -99.020 -45.156  0.00  0.00     0.011 A 
ATOM     12  C   UNL d   1     -59.328 -98.834 -45.042  0.00  0.00     0.001 A 
ATOM     13  C   UNL d   1     -59.639 -98.771 -44.280  0.00  0.00     0.000 A 
ATOM     14  C   UNL d   1     -59.138 -98.897 -43.621  0.00  0.00     0.001 A 
ATOM     15  C   UNL d   1     -58.342 -99.082 -43.730  0.00  0.00     0.011 A 
ENDBRANCH   7  10
ENDBRANCH   1   7
BRANCH   4  16
ATOM     16  N   UNL d   1     -54.716-100.627 -44.027  0.00  0.00    -0.221 NA
BRANCH  16  17
ATOM     17  C   UNL d   1     -54.921-101.348 -43.689  0.00  0.00     0.087 A 
ATOM     18  C   UNL d   1     -54.821-101.462 -42.890  0.00  0.00     0.061 A 
ATOM     19  C   UNL d   1     -55.024-102.180 -42.548  0.00  0.00     0.197 A 
ATOM     20  O   UNL d   1     -54.921-102.292 -41.741  0.00  0.00    -0.286 OA
ATOM     21  C   UNL d   1     -55.330-102.786 -43.015  0.00  0.00     0.042 A 
ATOM     22  C   UNL d   1     -55.430-102.666 -43.825  0.00  0.00     0.005 A 
ATOM     23  C   UNL d   1     -55.227-101.949 -44.165  0.00  0.00     0.019 A 
ENDBRANCH  16  17
ENDBRANCH   4  16
TORSDOF 4
ENDMDL
MODEL 3
REMARK VINA RESULT:      46.7      3.807      6.208
REMARK  4 active torsions:
REMARK  status: ('A' for Active; 'I' for Inactive)
REMARK    1  A    between atoms: S_2  and  C_1 
REMARK    2  A    between atoms: C_10  and  S_2 
REMARK    3  A    between atoms: N_7  and  C_5 
REMARK    4  A    between atoms: C_11  and  N_7 
ROOT
ATOM      1  C   UNL d   1     -58.203 -99.010 -44.850  0.00  0.00     0.187 A 
ATOM      2  N   UNL d   1     -58.547 -99.007 -45.595  0.00  0.00    -0.208 NA
ATOM      3  C   UNL d   1     -58.797 -98.904 -44.286  0.00  0.00     0.118 A 
ATOM      4  C   UNL d   1     -59.355 -98.899 -45.494  0.00  0.00     0.196 A 
ATOM      5  S   UNL d   1     -59.508 -98.836 -44.697  0.00  0.00    -0.035 SA
ATOM      6 CL   UNL d   1     -58.699 -98.873 -43.477  0.00  0.00    -0.073 Cl
ENDROOT
BRANCH   1   7
ATOM      7  S   UNL d   1     -57.398 -99.103 -44.686  0.00  0.00     0.228 S 
ATOM      8  O   UNL d   1     -57.323 -99.356 -45.464  0.00  0.00    -0.216 OA
ATOM      9  O   UNL d   1     -57.483 -98.849 -43.910  0.00  0.00    -0.216 OA
BRANCH   7  10
ATOM     10  C   UNL d   1     -56.587 -99.222 -44.604  0.00  0.00     0.089 A 
ATOM     11  C   UNL d   1     -56.302 -99.793 -44.069  0.00  0.00     0.011 A 
ATOM     12  C   UNL d   1     -55.482 -99.910 -43.989  0.00  0.00     0.001 A 
ATOM     13  C   UNL d   1     -54.950 -99.464 -44.436  0.00  0.00     0.000 A 
ATOM     14  C   UNL d   1     -55.243 -98.891 -44.972  0.00  0.00     0.001 A 
ATOM     15  C   UNL d   1     -56.056 -98.773 -45.054  0.00  0.00     0.011 A 
ENDBRANCH   7  10
ENDBRANCH   1   7
BRANCH   4  16
ATOM     16  N   UNL d   1     -59.912 -98.861 -46.100  0.00  0.00    -0.221 NA
BRANCH  16  17
ATOM     17  C   UNL d   1     -59.748 -99.208 -46.827  0.00  0.00     0.087 A 
ATOM     18  C   UNL d   1     -59.933 -99.991 -46.951  0.00  0.00     0.061 A 
ATOM     19  C   UNL d   1     -59.773-100.342 -47.674  0.00  0.00     0.197 A 
ATOM     20  O   UNL d   1     -59.960-101.132 -47.797  0.00  0.00    -0.286 OA
ATOM     21  C   UNL d   1     -59.423 -99.902 -48.278  0.00  0.00     0.042 A 
ATOM     22  C   UNL d   1     -59.237 -99.109 -48.147  0.00  0.00     0.005 A 
ATOM     23  C   UNL d   1     -59.398 -98.759 -47.425  0.00  0.00     0.019 A 
ENDBRANCH  16  17
ENDBRANCH   4  16
TORSDOF 4
ENDMDL
