MODEL 1
REMARK VINA RESULT:      54.2      0.000      0.000
REMARK  5 active torsions:
REMARK  status: ('A' for Active; 'I' for Inactive)
REMARK    1  A    between atoms: N_2  and  S_1 
REMARK    2  A    between atoms: C_6  and  S_1 
REMARK       I    between atoms: C_3  and  N_4 
REMARK    3  A    between atoms: C_5  and  C_3 
REMARK    4  A    between atoms: C_11  and  O_13 
REMARK    5  A    between atoms: O_13  and  C_23 
ROOT
ATOM      1  S   UNL d   1      45.286 -17.879  40.237  0.00  0.00     0.271 S 
ATOM      2  O   UNL d   1      45.999 -18.254  40.436  0.00  0.00    -0.200 OA
ATOM      3  O   UNL d   1      44.660 -17.875  40.774  0.00  0.00    -0.200 OA
ENDROOT
BRANCH   1   4
ATOM      4  N   UNL d   1      45.563 -18.293  40.902  0.00  0.00    -0.226 N 
ATOM      5  C   UNL d   1      45.591 -17.921  41.639  0.00  0.00     0.111 A 
ATOM      6  C   UNL d   1      45.868 -18.337  42.296  0.00  0.00     0.103 A 
ATOM      7  N   UNL d   1      46.114 -19.113  42.217  0.00  0.00    -0.267 N 
ATOM      8  C   UNL d   1      46.391 -19.527  42.877  0.00  0.00     0.288 C 
ATOM      9  C   UNL d   1      46.089 -19.492  41.482  0.00  0.00     0.103 A 
ATOM     10  O   UNL d   1      46.642 -20.318  42.802  0.00  0.00    -0.264 OA
ATOM     11  C   UNL d   1      45.811 -19.077  40.821  0.00  0.00     0.111 A 
BRANCH   8  12
ATOM     12  C   UNL d   1      46.420 -19.158  43.620  0.00  0.00     0.156 A 
ATOM     13  O   UNL d   1      46.445 -18.339  43.761  0.00  0.00    -0.300 OA
ATOM     14  C   UNL d   1      46.471 -18.221  44.580  0.00  0.00     0.123 A 
ATOM     15  C   UNL d   1      46.462 -18.967  44.953  0.00  0.00     0.029 A 
ATOM     16  C   UNL d   1      46.431 -19.545  44.350  0.00  0.00     0.032 A 
ENDBRANCH   8  12
ENDBRANCH   1   4
BRANCH   1  17
ATOM     17  C   UNL d   1      45.206 -17.512  39.500  0.00  0.00     0.104 A 
ATOM     18  C   UNL d   1      45.862 -17.188  39.129  0.00  0.00     0.015 A 
ATOM     19  C   UNL d   1      45.781 -16.822  38.395  0.00  0.00     0.025 A 
ATOM     20  C   UNL d   1      45.043 -16.783  38.036  0.00  0.00     0.100 A 
ATOM     21  C   UNL d   1      44.384 -17.109  38.410  0.00  0.00     0.025 A 
ATOM     22  C   UNL d   1      44.468 -17.472  39.141  0.00  0.00     0.015 A 
BRANCH  20  23
ATOM     23  O   UNL d   1      44.952 -16.414  37.293  0.00  0.00    -0.307 OA
BRANCH  23  24
ATOM     24  C   UNL d   1      45.212 -15.639  37.189  0.00  0.00     0.100 A 
ATOM     25  C   UNL d   1      44.668 -15.027  37.130  0.00  0.00     0.023 A 
ATOM     26  C   UNL d   1      43.864 -15.191  37.176  0.00  0.00     0.002 C 
ATOM     27  C   UNL d   1      44.924 -14.246  37.026  0.00  0.00     0.002 A 
ATOM     28  C   UNL d   1      45.731 -14.078  36.979  0.00  0.00     0.000 A 
ATOM     29  C   UNL d   1      46.276 -14.697  37.039  0.00  0.00     0.002 A 
ATOM     30  C   UNL d   1      46.016 -15.472  37.143  0.00  0.00     0.025 A 
ENDBRANCH  23  24
ENDBRANCH  20  23
ENDBRANCH   1  17
TORSDOF 5
ENDMDL
