MODEL 1
REMARK VINA RESULT:      21.9      0.000      0.000
REMARK  1 active torsions:
REMARK  status: ('A' for Active; 'I' for Inactive)
REMARK    1  A    between atoms: C_2  and  C_1 
REMARK       I    between atoms: N_3  and  C_2 
ROOT
ATOM      1  C   UNL d   1     -51.439  25.381  33.326  0.00  0.00     0.109 A 
ATOM      2  C   UNL d   1     -52.141  25.661  33.315  0.00  0.00     0.026 A 
ATOM      3  C   UNL d   1     -51.424  24.666  33.340  0.00  0.00    -0.014 A 
ATOM      4  C   UNL d   1     -51.035  24.648  33.344  0.00  0.00    -0.014 A 
ATOM      5  C   UNL d   1     -52.690  25.030  33.322  0.00  0.00     0.045 A 
ATOM      6  C   UNL d   1     -51.475  24.116  33.351  0.00  0.00    -0.007 A 
ATOM      7  C   UNL d   1     -51.987  24.013  33.348  0.00  0.00    -0.007 A 
ATOM      8  C   UNL d   1     -52.671  24.287  33.336  0.00  0.00    -0.022 A 
ATOM      9  C   UNL d   1     -51.591  23.257  33.366  0.00  0.00    -0.001 A 
ATOM     10  C   UNL d   1     -52.384  24.447  33.336  0.00  0.00    -0.022 A 
ENDROOT
BRANCH   1  11
ATOM     11  C   UNL d   1     -50.744  25.981  33.321  0.00  0.00     0.248 C 
ATOM     12  N   UNL d   1     -50.665  26.775  33.325  0.00  0.00    -0.275 N 
ATOM     13  C   UNL d   1     -49.941  27.103  33.318  0.00  0.00     0.083 A 
ATOM     14  C   UNL d   1     -51.324  27.229  33.338  0.00  0.00     0.083 A 
ATOM     15  C   UNL d   1     -49.865  27.925  33.322  0.00  0.00     0.019 A 
ATOM     16  C   UNL d   1     -50.518  28.397  33.335  0.00  0.00     0.003 A 
ATOM     17  C   UNL d   1     -51.249  28.050  33.343  0.00  0.00     0.019 A 
ATOM     18  O   UNL d   1     -50.167  25.269  33.308  0.00  0.00    -0.271 OA
ENDBRANCH   1  11
TORSDOF 1
ENDMDL
