MODEL 1
REMARK VINA RESULT:      50.5      0.000      0.000
REMARK  7 active torsions:
REMARK  status: ('A' for Active; 'I' for Inactive)
REMARK       I    between atoms: C_3  and  N_1 
REMARK    1  A    between atoms: C_4  and  N_2 
REMARK    2  A    between atoms: C_15  and  C_3 
REMARK    3  A    between atoms: C_12  and  C_4 
REMARK    4  A    between atoms: C_13  and  C_4 
REMARK    5  A    between atoms: C_5  and  C_17 
REMARK    6  A    between atoms: C_16  and  C_15 
REMARK    7  A    between atoms: C_17  and  C_16 
ROOT
ATOM      1  N   UNL d   1      14.693  15.424  -2.417  0.00  0.00    -0.269 N 
ATOM      2  N   UNL d   1      14.336  13.801  -2.278  0.00  0.00    -0.301 N 
ATOM      3  C   UNL d   1      14.867  16.227  -2.493  0.00  0.00     0.265 C 
ATOM      4  C   UNL d   1      14.312  15.024  -3.042  0.00  0.00     0.102 A 
ATOM      5  C   UNL d   1      14.893  15.004  -1.725  0.00  0.00     0.102 A 
ATOM      6  C   UNL d   1      14.714  14.195  -1.658  0.00  0.00     0.100 A 
ATOM      7  C   UNL d   1      14.130  14.204  -2.974  0.00  0.00     0.100 A 
ATOM      8  O   UNL d   1      15.242  16.610  -1.874  0.00  0.00    -0.267 OA
ENDROOT
BRANCH   2   9
ATOM      9  C   UNL d   1      14.158  12.999  -2.211  0.00  0.00     0.064 C 
BRANCH   9  10
ATOM     10  C   UNL d   1      14.319  12.588  -1.503  0.00  0.00     0.016 A 
ATOM     11  C   UNL d   1      15.096  12.384  -1.319  0.00  0.00     0.001 A 
ATOM     12  C   UNL d   1      15.241  11.980  -0.619  0.00  0.00     0.000 A 
ATOM     13  C   UNL d   1      14.627  11.780  -0.107  0.00  0.00     0.000 A 
ATOM     14  C   UNL d   1      13.854  11.989  -0.301  0.00  0.00     0.000 A 
ATOM     15  C   UNL d   1      13.692  12.397  -1.004  0.00  0.00     0.001 A 
ENDBRANCH   9  10
BRANCH   9  16
ATOM     16  C   UNL d   1      13.821  12.600  -2.848  0.00  0.00     0.016 A 
ATOM     17  C   UNL d   1      13.121  12.188  -2.748  0.00  0.00     0.001 A 
ATOM     18  C   UNL d   1      12.776  11.785  -3.381  0.00  0.00     0.000 A 
ATOM     19  C   UNL d   1      13.148  11.802  -4.124  0.00  0.00     0.000 A 
ATOM     20  C   UNL d   1      13.858  12.221  -4.224  0.00  0.00     0.000 A 
ATOM     21  C   UNL d   1      14.190  12.616  -3.585  0.00  0.00     0.001 A 
ENDBRANCH   9  16
ENDBRANCH   2   9
BRANCH   3  22
ATOM     22  C   UNL d   1      14.667  16.630  -3.174  0.00  0.00     0.061 C 
BRANCH  22  23
ATOM     23  C   UNL d   1      15.258  16.900  -3.673  0.00  0.00     0.011 C 
BRANCH  23  24
ATOM     24  C   UNL d   1      15.078  17.114  -4.443  0.00  0.00     0.070 C 
BRANCH  24  25
ATOM     25  C   UNL d   1      15.536  17.671  -4.831  0.00  0.00     0.211 C 
ATOM     26  O   UNL d   1      16.304  17.499  -5.035  0.00  0.00    -0.644 OA
ATOM     27  O   UNL d   1      15.213  18.411  -5.015  0.00  0.00    -0.644 OA
ENDBRANCH  24  25
ENDBRANCH  23  24
ENDBRANCH  22  23
ENDBRANCH   3  22
TORSDOF 7
ENDMDL
