MODEL 1
REMARK VINA RESULT:     154.3      0.000      0.000
REMARK  6 active torsions:
REMARK  status: ('A' for Active; 'I' for Inactive)
REMARK    1  A    between atoms: C_2  and  S_1 
REMARK    2  A    between atoms: C_13  and  S_1 
REMARK    3  A    between atoms: C_5  and  C_3 
REMARK    4  A    between atoms: C_16  and  C_5 
REMARK    5  A    between atoms: O_30  and  C_24 
REMARK    6  A    between atoms: C_33  and  O_30 
ROOT
ATOM      1  C   UNL d   1     -56.002-100.250 -43.592  0.00  0.00     0.094 A 
ATOM      2  C   UNL d   1     -56.415 -99.538 -43.605  0.00  0.00     0.069 A 
ATOM      3  C   UNL d   1     -55.849-100.649 -44.295  0.00  0.00     0.031 A 
ATOM      4  C   UNL d   1     -56.110-100.335 -45.013  0.00  0.00     0.084 A 
ATOM      5  C   UNL d   1     -55.435-101.361 -44.283  0.00  0.00     0.029 A 
ATOM      6  N   UNL d   1     -56.524 -99.624 -45.027  0.00  0.00    -0.244 NA
ATOM      7  C   UNL d   1     -56.677 -99.225 -44.323  0.00  0.00     0.103 A 
ATOM      8  C   UNL d   1     -55.957-100.735 -45.717  0.00  0.00     0.046 A 
ATOM      9  C   UNL d   1     -55.283-101.759 -44.986  0.00  0.00     0.123 A 
ATOM     10  C   UNL d   1     -55.544-101.446 -45.704  0.00  0.00     0.124 A 
ATOM     11  O   UNL d   1     -54.869-102.471 -44.973  0.00  0.00    -0.301 OA
ATOM     12  O   UNL d   1     -55.391-101.845 -46.408  0.00  0.00    -0.301 OA
ATOM     13  C   UNL d   1     -54.711-102.880 -45.683  0.00  0.00     0.149 A 
ATOM     14  C   UNL d   1     -54.973-102.566 -46.401  0.00  0.00     0.149 A 
ENDROOT
BRANCH   1  15
ATOM     15  S   UNL d   1     -55.739-100.566 -42.877  0.00  0.00     0.210 S 
ATOM     16  O   UNL d   1     -54.958-100.403 -43.087  0.00  0.00    -0.217 OA
ATOM     17  O   UNL d   1     -56.520-100.730 -42.667  0.00  0.00    -0.217 OA
BRANCH  15  18
ATOM     18  C   UNL d   1     -55.484-100.884 -42.159  0.00  0.00     0.088 A 
ATOM     19  C   UNL d   1     -55.669-101.660 -41.964  0.00  0.00     0.013 A 
ATOM     20  C   UNL d   1     -55.411-101.976 -41.241  0.00  0.00     0.025 A 
ATOM     21  C   UNL d   1     -54.970-101.512 -40.723  0.00  0.00     0.100 A 
ATOM     22  C   UNL d   1     -54.784-100.739 -40.915  0.00  0.00     0.025 A 
ATOM     23  C   UNL d   1     -55.044-100.421 -41.641  0.00  0.00     0.013 A 
BRANCH  21  24
ATOM     24  O   UNL d   1     -54.711-101.830 -39.997  0.00  0.00    -0.305 OA
BRANCH  24  25
ATOM     25  C   UNL d   1     -54.743-101.374 -39.312  0.00  0.00     0.123 C 
ATOM     26  C   UNL d   1     -54.998-101.714 -38.606  0.00  0.00     0.029 C 
ENDBRANCH  24  25
ENDBRANCH  21  24
ENDBRANCH  15  18
ENDBRANCH   1  15
BRANCH   2  27
ATOM     27  C   UNL d   1     -56.573 -99.130 -42.895  0.00  0.00     0.198 C 
ATOM     28  O   UNL d   1     -55.947 -98.820 -42.455  0.00  0.00    -0.286 OA
BRANCH  27  29
ATOM     29  C   UNL d   1     -57.351 -99.036 -42.636  0.00  0.00     0.039 A 
ATOM     30  C   UNL d   1     -57.519 -98.951 -41.828  0.00  0.00     0.003 A 
ATOM     31  C   UNL d   1     -58.297 -98.858 -41.568  0.00  0.00     0.000 A 
ATOM     32  C   UNL d   1     -58.918 -98.848 -42.110  0.00  0.00     0.000 A 
ATOM     33  C   UNL d   1     -58.745 -98.935 -42.931  0.00  0.00     0.000 A 
ATOM     34  C   UNL d   1     -59.697 -98.755 -41.857  0.00  0.00     0.000 C 
ATOM     35  C   UNL d   1     -57.971 -99.028 -43.193  0.00  0.00     0.003 A 
ENDBRANCH  27  29
ENDBRANCH   2  27
TORSDOF 6
ENDMDL
