MODEL 1
REMARK VINA RESULT:      34.2      0.000      0.000
REMARK  4 active torsions:
REMARK  status: ('A' for Active; 'I' for Inactive)
REMARK    1  A    between atoms: C_10  and  N_4 
REMARK    2  A    between atoms: C_11  and  C_10 
REMARK       I    between atoms: N_15  and  C_11 
REMARK    3  A    between atoms: C_12  and  C_20 
REMARK    4  A    between atoms: C_20  and  N_15 
ROOT
ATOM      1  C   UNL d   1      14.322  11.865  -2.743  0.00  0.00     0.174 A 
ATOM      2  C   UNL d   1      13.706  11.822  -2.203  0.00  0.00     0.112 A 
ATOM      3  C   UNL d   1      14.171  11.867  -3.552  0.00  0.00     0.290 A 
ATOM      4  N   UNL d   1      13.394  11.824  -3.820  0.00  0.00    -0.249 N 
ATOM      5  O   UNL d   1      15.030  11.901  -2.314  0.00  0.00    -0.301 OA
ATOM      6  N   UNL d   1      12.929  11.779  -2.472  0.00  0.00    -0.223 NA
ATOM      7  C   UNL d   1      14.027  11.831  -1.442  0.00  0.00     0.043 A 
ATOM      8  C   UNL d   1      12.769  11.780  -3.281  0.00  0.00     0.185 A 
ATOM      9  C   UNL d   1      14.849  11.880  -1.514  0.00  0.00     0.102 A 
ATOM     10  O   UNL d   1      14.790  11.910  -4.093  0.00  0.00    -0.264 OA
ATOM     11  C   UNL d   1      13.676  11.800  -0.699  0.00  0.00     0.004 A 
ATOM     12  C   UNL d   1      15.316  11.899  -0.834  0.00  0.00     0.025 A 
ATOM     13  C   UNL d   1      14.145  11.819  -0.014  0.00  0.00     0.000 A 
ATOM     14  C   UNL d   1      14.966  11.868  -0.089  0.00  0.00     0.002 A 
ENDROOT
BRANCH   4  15
ATOM     15  C   UNL d   1      13.229  11.825  -4.632  0.00  0.00     0.147 C 
BRANCH  15  16
ATOM     16  C   UNL d   1      13.034  12.526  -5.019  0.00  0.00     0.297 C 
ATOM     17  N   UNL d   1      13.105  13.231  -4.617  0.00  0.00    -0.203 NA
ATOM     18  O   UNL d   1      12.771  12.513  -5.800  0.00  0.00    -0.264 OA
BRANCH  17  19
ATOM     19  C   UNL d   1      12.913  13.938  -4.995  0.00  0.00     0.127 C 
BRANCH  19  20
ATOM     20  C   UNL d   1      13.259  14.643  -4.739  0.00  0.00     0.119 A 
ATOM     21  O   UNL d   1      13.217  14.971  -3.982  0.00  0.00    -0.304 OA
ATOM     22  C   UNL d   1      13.649  15.684  -3.979  0.00  0.00     0.123 A 
ATOM     23  C   UNL d   1      13.960  15.796  -4.741  0.00  0.00     0.029 A 
ATOM     24  C   UNL d   1      13.723  15.158  -5.212  0.00  0.00     0.028 A 
ENDBRANCH  19  20
ENDBRANCH  17  19
ENDBRANCH  15  16
ENDBRANCH   4  15
TORSDOF 4
ENDMDL
MODEL 2
REMARK VINA RESULT:      36.3      2.730      4.346
REMARK  4 active torsions:
REMARK  status: ('A' for Active; 'I' for Inactive)
REMARK    1  A    between atoms: C_10  and  N_4 
REMARK    2  A    between atoms: C_11  and  C_10 
REMARK       I    between atoms: N_15  and  C_11 
REMARK    3  A    between atoms: C_12  and  C_20 
REMARK    4  A    between atoms: C_20  and  N_15 
ROOT
ATOM      1  C   UNL d   1      15.540  14.830  -0.461  0.00  0.00     0.174 A 
ATOM      2  C   UNL d   1      14.862  15.205  -0.731  0.00  0.00     0.112 A 
ATOM      3  C   UNL d   1      15.533  14.026  -0.286  0.00  0.00     0.290 A 
ATOM      4  N   UNL d   1      14.838  13.594  -0.382  0.00  0.00    -0.249 N 
ATOM      5  O   UNL d   1      16.142  15.397  -0.421  0.00  0.00    -0.301 OA
ATOM      6  N   UNL d   1      14.167  14.773  -0.827  0.00  0.00    -0.223 NA
ATOM      7  C   UNL d   1      15.038  16.000  -0.858  0.00  0.00     0.043 A 
ATOM      8  C   UNL d   1      14.151  13.967  -0.653  0.00  0.00     0.185 A 
ATOM      9  C   UNL d   1      15.834  16.118  -0.665  0.00  0.00     0.102 A 
ATOM     10  O   UNL d   1      16.214  13.650  -0.015  0.00  0.00    -0.264 OA
ATOM     11  C   UNL d   1      14.579  16.629  -1.123  0.00  0.00     0.004 A 
ATOM     12  C   UNL d   1      16.164  16.870  -0.740  0.00  0.00     0.025 A 
ATOM     13  C   UNL d   1      14.910  17.386  -1.199  0.00  0.00     0.000 A 
ATOM     14  C   UNL d   1      15.705  17.500  -1.006  0.00  0.00     0.002 A 
ENDROOT
BRANCH   4  15
ATOM     15  C   UNL d   1      14.818  12.785  -0.209  0.00  0.00     0.147 C 
BRANCH  15  16
ATOM     16  C   UNL d   1      14.306  12.283  -0.614  0.00  0.00     0.297 C 
ATOM     17  N   UNL d   1      14.321  12.278  -1.429  0.00  0.00    -0.203 NA
ATOM     18  O   UNL d   1      13.787  11.793  -0.201  0.00  0.00    -0.264 OA
BRANCH  17  19
ATOM     19  C   UNL d   1      13.813  11.779  -1.844  0.00  0.00     0.127 C 
BRANCH  19  20
ATOM     20  C   UNL d   1      13.619  11.957  -2.627  0.00  0.00     0.119 A 
ATOM     21  O   UNL d   1      14.134  12.208  -3.222  0.00  0.00    -0.304 OA
ATOM     22  C   UNL d   1      13.695  12.320  -3.922  0.00  0.00     0.123 A 
ATOM     23  C   UNL d   1      12.902  12.138  -3.756  0.00  0.00     0.029 A 
ATOM     24  C   UNL d   1      12.850  11.914  -2.961  0.00  0.00     0.028 A 
ENDBRANCH  19  20
ENDBRANCH  17  19
ENDBRANCH  15  16
ENDBRANCH   4  15
TORSDOF 4
ENDMDL
