MODEL 1
REMARK VINA RESULT:      63.9      0.000      0.000
REMARK  4 active torsions:
REMARK  status: ('A' for Active; 'I' for Inactive)
REMARK    1  A    between atoms: C_8  and  C_1 
REMARK    2  A    between atoms: C_14  and  C_5 
REMARK    3  A    between atoms: O_16  and  C_8 
REMARK    4  A    between atoms: C_21  and  O_16 
ROOT
ATOM      1  C   UNL d   1     -49.946  25.838  33.650  0.00  0.00     0.106 A 
ATOM      2  C   UNL d   1     -49.634  25.081  33.550  0.00  0.00     0.208 A 
ATOM      3  C   UNL d   1     -51.276  25.300  33.582  0.00  0.00     0.061 A 
ATOM      4  C   UNL d   1     -50.965  24.542  33.482  0.00  0.00     0.101 A 
ATOM      5  C   UNL d   1     -50.779  25.951  33.667  0.00  0.00     0.014 A 
ATOM      6  O   UNL d   1     -50.155  24.431  33.465  0.00  0.00    -0.288 OA
ATOM      7  C   UNL d   1     -52.082  25.424  33.600  0.00  0.00     0.194 A 
ATOM      8  C   UNL d   1     -51.457  23.904  33.399  0.00  0.00     0.002 A 
ATOM      9  C   UNL d   1     -52.263  24.017  33.415  0.00  0.00     0.042 A 
ATOM     10  C   UNL d   1     -52.575  24.775  33.516  0.00  0.00     0.019 A 
ATOM     11  O   UNL d   1     -52.392  26.176  33.700  0.00  0.00    -0.287 OA
ATOM     12  N   UNL d   1     -48.804  24.977  33.534  0.00  0.00    -0.121 N 
ATOM     13  C   UNL d   1     -53.078  23.884  33.400  0.00  0.00     0.009 C 
ATOM     14  C   UNL d   1     -52.377  23.191  33.307  0.00  0.00     0.009 C 
ENDROOT
BRANCH   5  15
ATOM     15  C   UNL d   1     -51.089  26.703  33.767  0.00  0.00     0.000 A 
ATOM     16  C   UNL d   1     -50.752  27.222  34.306  0.00  0.00     0.000 A 
ATOM     17  C   UNL d   1     -51.087  27.978  34.386  0.00  0.00     0.000 A 
ATOM     18  C   UNL d   1     -51.728  28.218  33.953  0.00  0.00     0.000 A 
ATOM     19  C   UNL d   1     -52.066  27.704  33.415  0.00  0.00     0.000 A 
ATOM     20  C   UNL d   1     -51.753  26.942  33.314  0.00  0.00     0.000 A 
ENDBRANCH   5  15
BRANCH   1  21
ATOM     21  C   UNL d   1     -49.429  26.497  33.736  0.00  0.00     0.304 C 
ATOM     22  O   UNL d   1     -49.607  27.188  33.387  0.00  0.00    -0.259 OA
BRANCH  21  23
ATOM     23  O   UNL d   1     -48.747  26.414  34.181  0.00  0.00    -0.271 OA
BRANCH  23  24
ATOM     24  C   UNL d   1     -48.476  26.937  34.437  0.00  0.00     0.126 C 
ATOM     25  C   UNL d   1     -47.749  26.899  34.871  0.00  0.00     0.029 C 
ENDBRANCH  23  24
ENDBRANCH  21  23
ENDBRANCH   1  21
TORSDOF 4
ENDMDL
