MODEL 1
REMARK VINA RESULT:      -3.9      0.000      0.000
REMARK  3 active torsions:
REMARK  status: ('A' for Active; 'I' for Inactive)
REMARK    1  A    between atoms: S_15  and  C_4 
REMARK    2  A    between atoms: C_9  and  C_16 
REMARK    3  A    between atoms: C_16  and  S_15 
ROOT
ATOM      1  C   UNL d   1      31.596  17.345 -23.924  0.00  0.00     0.141 A 
ATOM      2  C   UNL d   1      31.403  16.557 -24.079  0.00  0.00     0.110 A 
ATOM      3  O   UNL d   1      30.970  17.817 -24.179  0.00  0.00    -0.303 OA
ATOM      4  C   UNL d   1      32.319  17.532 -23.572  0.00  0.00     0.137 A 
ATOM      5  N   UNL d   1      32.849  16.931 -23.373  0.00  0.00    -0.218 NA
ATOM      6  C   UNL d   1      30.656  16.543 -24.429  0.00  0.00     0.043 A 
ATOM      7  N   UNL d   1      31.933  15.958 -23.880  0.00  0.00    -0.225 NA
ATOM      8  C   UNL d   1      30.388  17.320 -24.491  0.00  0.00     0.102 A 
ATOM      9  C   UNL d   1      32.655  16.143 -23.528  0.00  0.00     0.163 A 
ATOM     10  C   UNL d   1      30.186  15.922 -24.699  0.00  0.00     0.004 A 
ATOM     11  C   UNL d   1      29.649  17.475 -24.823  0.00  0.00     0.025 A 
ATOM     12  C   UNL d   1      33.184  15.543 -23.329  0.00  0.00     0.042 C 
ATOM     13  C   UNL d   1      29.447  16.077 -25.031  0.00  0.00     0.000 A 
ATOM     14  C   UNL d   1      29.180  16.854 -25.093  0.00  0.00     0.002 A 
ENDROOT
BRANCH   4  15
ATOM     15  S   UNL d   1      32.513  18.319 -23.417  0.00  0.00    -0.062 SA
BRANCH  15  16
ATOM     16  C   UNL d   1      33.091  18.498 -22.856  0.00  0.00     0.076 C 
BRANCH  16  17
ATOM     17  C   UNL d   1      33.106  19.245 -22.505  0.00  0.00     0.169 A 
ATOM     18  N   UNL d   1      33.036  19.402 -21.698  0.00  0.00    -0.225 NA
ATOM     19  C   UNL d   1      33.081  20.219 -21.593  0.00  0.00     0.101 A 
ATOM     20  C   UNL d   1      33.046  20.692 -20.918  0.00  0.00     0.021 A 
ATOM     21  C   UNL d   1      33.179  20.567 -22.335  0.00  0.00     0.101 A 
ATOM     22  C   UNL d   1      33.108  21.512 -20.985  0.00  0.00     0.002 A 
ATOM     23  C   UNL d   1      33.205  21.860 -21.726  0.00  0.00     0.002 A 
ATOM     24  C   UNL d   1      33.241  21.388 -22.402  0.00  0.00     0.021 A 
ATOM     25  N   UNL d   1      33.194  19.965 -22.899  0.00  0.00    -0.225 NA
ENDBRANCH  16  17
ENDBRANCH  15  16
ENDBRANCH   4  15
TORSDOF 3
ENDMDL
MODEL 2
REMARK VINA RESULT:      -2.9      2.283      6.038
REMARK  3 active torsions:
REMARK  status: ('A' for Active; 'I' for Inactive)
REMARK    1  A    between atoms: S_15  and  C_4 
REMARK    2  A    between atoms: C_9  and  C_16 
REMARK    3  A    between atoms: C_16  and  S_15 
ROOT
ATOM      1  C   UNL d   1      32.933  22.045 -21.284  0.00  0.00     0.141 A 
ATOM      2  C   UNL d   1      32.881  22.860 -21.167  0.00  0.00     0.110 A 
ATOM      3  O   UNL d   1      33.023  21.685 -20.548  0.00  0.00    -0.303 OA
ATOM      4  C   UNL d   1      32.892  21.734 -22.048  0.00  0.00     0.137 A 
ATOM      5  N   UNL d   1      32.799  22.239 -22.694  0.00  0.00    -0.218 NA
ATOM      6  C   UNL d   1      32.938  23.004 -20.356  0.00  0.00     0.043 A 
ATOM      7  N   UNL d   1      32.788  23.364 -21.813  0.00  0.00    -0.225 NA
ATOM      8  C   UNL d   1      33.026  22.279 -19.974  0.00  0.00     0.102 A 
ATOM      9  C   UNL d   1      32.747  23.055 -22.576  0.00  0.00     0.163 A 
ATOM     10  C   UNL d   1      32.922  23.702 -19.918  0.00  0.00     0.004 A 
ATOM     11  C   UNL d   1      33.097  22.253 -19.152  0.00  0.00     0.025 A 
ATOM     12  C   UNL d   1      32.654  23.559 -23.222  0.00  0.00     0.042 C 
ATOM     13  C   UNL d   1      32.994  23.676 -19.097  0.00  0.00     0.000 A 
ATOM     14  C   UNL d   1      33.081  22.950 -18.714  0.00  0.00     0.002 A 
ENDROOT
BRANCH   4  15
ATOM     15  S   UNL d   1      32.944  20.920 -22.167  0.00  0.00    -0.062 SA
BRANCH  15  16
ATOM     16  C   UNL d   1      33.236  20.625 -22.880  0.00  0.00     0.076 C 
BRANCH  16  17
ATOM     17  C   UNL d   1      33.130  19.829 -23.071  0.00  0.00     0.169 A 
ATOM     18  N   UNL d   1      33.241  19.190 -22.560  0.00  0.00    -0.225 NA
ATOM     19  C   UNL d   1      33.075  18.499 -22.978  0.00  0.00     0.101 A 
ATOM     20  C   UNL d   1      33.090  17.703 -22.760  0.00  0.00     0.021 A 
ATOM     21  C   UNL d   1      32.861  18.710 -23.748  0.00  0.00     0.101 A 
ATOM     22  C   UNL d   1      32.892  17.120 -23.308  0.00  0.00     0.002 A 
ATOM     23  C   UNL d   1      32.679  17.331 -24.076  0.00  0.00     0.002 A 
ATOM     24  C   UNL d   1      32.663  18.126 -24.297  0.00  0.00     0.021 A 
ATOM     25  N   UNL d   1      32.896  19.532 -23.804  0.00  0.00    -0.225 NA
ENDBRANCH  16  17
ENDBRANCH  15  16
ENDBRANCH   4  15
TORSDOF 3
ENDMDL
MODEL 3
REMARK VINA RESULT:      -2.6      1.457      5.306
REMARK  3 active torsions:
REMARK  status: ('A' for Active; 'I' for Inactive)
REMARK    1  A    between atoms: S_15  and  C_4 
REMARK    2  A    between atoms: C_9  and  C_16 
REMARK    3  A    between atoms: C_16  and  S_15 
ROOT
ATOM      1  C   UNL d   1      33.231  20.973 -22.328  0.00  0.00     0.141 A 
ATOM      2  C   UNL d   1      33.227  21.559 -21.747  0.00  0.00     0.110 A 
ATOM      3  O   UNL d   1      33.226  21.343 -23.065  0.00  0.00    -0.303 OA
ATOM      4  C   UNL d   1      33.237  20.176 -22.111  0.00  0.00     0.137 A 
ATOM      5  N   UNL d   1      33.241  19.966 -21.313  0.00  0.00    -0.218 NA
ATOM      6  C   UNL d   1      33.221  22.293 -22.125  0.00  0.00     0.043 A 
ATOM      7  N   UNL d   1      33.231  21.348 -20.950  0.00  0.00    -0.225 NA
ATOM      8  C   UNL d   1      33.220  22.160 -22.939  0.00  0.00     0.102 A 
ATOM      9  C   UNL d   1      33.237  20.553 -20.732  0.00  0.00     0.163 A 
ATOM     10  C   UNL d   1      33.215  23.063 -21.833  0.00  0.00     0.004 A 
ATOM     11  C   UNL d   1      33.214  22.799 -23.460  0.00  0.00     0.025 A 
ATOM     12  C   UNL d   1      33.240  20.342 -19.935  0.00  0.00     0.042 C 
ATOM     13  C   UNL d   1      33.209  23.702 -22.354  0.00  0.00     0.000 A 
ATOM     14  C   UNL d   1      33.209  23.569 -23.168  0.00  0.00     0.002 A 
ENDROOT
BRANCH   4  15
ATOM     15  S   UNL d   1      33.241  19.590 -22.692  0.00  0.00    -0.062 SA
BRANCH  15  16
ATOM     16  C   UNL d   1      33.110  18.803 -22.483  0.00  0.00     0.076 C 
BRANCH  16  17
ATOM     17  C   UNL d   1      32.803  18.275 -23.038  0.00  0.00     0.169 A 
ATOM     18  N   UNL d   1      33.132  17.546 -23.247  0.00  0.00    -0.225 NA
ATOM     19  C   UNL d   1      32.648  17.204 -23.819  0.00  0.00     0.101 A 
ATOM     20  C   UNL d   1      32.696  16.488 -24.228  0.00  0.00     0.021 A 
ATOM     21  C   UNL d   1      32.019  17.719 -23.964  0.00  0.00     0.101 A 
ATOM     22  C   UNL d   1      32.117  16.289 -24.780  0.00  0.00     0.002 A 
ATOM     23  C   UNL d   1      31.489  16.803 -24.925  0.00  0.00     0.002 A 
ATOM     24  C   UNL d   1      31.440  17.519 -24.518  0.00  0.00     0.021 A 
ATOM     25  N   UNL d   1      32.116  18.380 -23.481  0.00  0.00    -0.225 NA
ENDBRANCH  16  17
ENDBRANCH  15  16
ENDBRANCH   4  15
TORSDOF 3
ENDMDL
MODEL 4
REMARK VINA RESULT:      -2.0      2.024      3.022
REMARK  3 active torsions:
REMARK  status: ('A' for Active; 'I' for Inactive)
REMARK    1  A    between atoms: S_15  and  C_4 
REMARK    2  A    between atoms: C_9  and  C_16 
REMARK    3  A    between atoms: C_16  and  S_15 
ROOT
ATOM      1  C   UNL d   1      33.079  19.165 -23.213  0.00  0.00     0.141 A 
ATOM      2  C   UNL d   1      33.024  18.893 -23.990  0.00  0.00     0.110 A 
ATOM      3  O   UNL d   1      33.010  18.516 -22.708  0.00  0.00    -0.303 OA
ATOM      4  C   UNL d   1      33.185  19.970 -23.064  0.00  0.00     0.137 A 
ATOM      5  N   UNL d   1      33.236  20.503 -23.692  0.00  0.00    -0.218 NA
ATOM      6  C   UNL d   1      32.920  18.074 -23.966  0.00  0.00     0.043 A 
ATOM      7  N   UNL d   1      33.075  19.425 -24.617  0.00  0.00    -0.225 NA
ATOM      8  C   UNL d   1      32.912  17.841 -23.174  0.00  0.00     0.102 A 
ATOM      9  C   UNL d   1      33.181  20.229 -24.470  0.00  0.00     0.163 A 
ATOM     10  C   UNL d   1      32.833  17.512 -24.562  0.00  0.00     0.004 A 
ATOM     11  C   UNL d   1      32.815  17.045 -22.981  0.00  0.00     0.025 A 
ATOM     12  C   UNL d   1      33.232  20.762 -25.097  0.00  0.00     0.042 C 
ATOM     13  C   UNL d   1      32.737  16.716 -24.368  0.00  0.00     0.000 A 
ATOM     14  C   UNL d   1      32.728  16.483 -23.577  0.00  0.00     0.002 A 
ENDROOT
BRANCH   4  15
ATOM     15  S   UNL d   1      33.240  20.243 -22.287  0.00  0.00    -0.062 SA
BRANCH  15  16
ATOM     16  C   UNL d   1      32.577  20.562 -21.914  0.00  0.00     0.076 C 
BRANCH  16  17
ATOM     17  C   UNL d   1      32.670  21.130 -21.323  0.00  0.00     0.169 A 
ATOM     18  N   UNL d   1      32.992  21.000 -20.574  0.00  0.00    -0.225 NA
ATOM     19  C   UNL d   1      32.979  21.716 -20.164  0.00  0.00     0.101 A 
ATOM     20  C   UNL d   1      33.224  21.923 -19.404  0.00  0.00     0.021 A 
ATOM     21  C   UNL d   1      32.648  22.288 -20.659  0.00  0.00     0.101 A 
ATOM     22  C   UNL d   1      33.140  22.699 -19.139  0.00  0.00     0.002 A 
ATOM     23  C   UNL d   1      32.810  23.270 -19.634  0.00  0.00     0.002 A 
ATOM     24  C   UNL d   1      32.564  23.065 -20.394  0.00  0.00     0.021 A 
ATOM     25  N   UNL d   1      32.457  21.925 -21.375  0.00  0.00    -0.225 NA
ENDBRANCH  16  17
ENDBRANCH  15  16
ENDBRANCH   4  15
TORSDOF 3
ENDMDL
