MODEL 1
REMARK VINA RESULT:      -3.6      0.000      0.000
REMARK  3 active torsions:
REMARK  status: ('A' for Active; 'I' for Inactive)
REMARK    1  A    between atoms: N_7  and  C_6 
REMARK       I    between atoms: C_8  and  N_7 
REMARK    2  A    between atoms: C_12  and  C_8 
REMARK    3  A    between atoms: C_16  and  C_12 
ROOT
ATOM      1  C   UNL d   1      30.368  17.326 -24.565  0.00  0.00     0.269 A 
ATOM      2  N   UNL d   1      29.601  17.011 -24.662  0.00  0.00    -0.239 N 
ATOM      3  C   UNL d   1      30.802  16.766 -24.138  0.00  0.00     0.079 A 
ATOM      4  C   UNL d   1      29.576  16.285 -24.305  0.00  0.00     0.267 A 
ATOM      5  C   UNL d   1      30.312  16.122 -23.978  0.00  0.00     0.063 A 
ATOM      6  C   UNL d   1      31.581  16.766 -23.879  0.00  0.00     0.089 A 
ATOM      7  O   UNL d   1      30.644  18.051 -24.838  0.00  0.00    -0.267 OA
ATOM      8  O   UNL d   1      28.905  15.780 -24.275  0.00  0.00    -0.267 OA
ATOM      9  C   UNL d   1      28.978  17.381 -25.056  0.00  0.00     0.105 C 
ATOM     10  C   UNL d   1      30.601  15.479 -23.558  0.00  0.00     0.005 A 
ATOM     11  C   UNL d   1      31.874  16.120 -23.456  0.00  0.00     0.019 A 
ATOM     12  C   UNL d   1      31.383  15.476 -23.296  0.00  0.00     0.002 A 
ENDROOT
BRANCH   6  13
ATOM     13  N   UNL d   1      32.072  17.410 -24.039  0.00  0.00    -0.208 NA
ATOM     14  C   UNL d   1      32.733  17.547 -23.568  0.00  0.00     0.279 C 
ATOM     15  O   UNL d   1      32.910  17.046 -22.939  0.00  0.00    -0.265 OA
BRANCH  14  16
ATOM     16  C   UNL d   1      33.224  18.190 -23.729  0.00  0.00     0.062 C 
BRANCH  16  17
ATOM     17  C   UNL d   1      33.229  18.841 -23.221  0.00  0.00     0.005 A 
ATOM     18  C   UNL d   1      33.229  19.605 -23.530  0.00  0.00     0.000 A 
ATOM     19  C   UNL d   1      33.235  20.252 -23.035  0.00  0.00     0.000 A 
ATOM     20  C   UNL d   1      33.241  20.139 -22.213  0.00  0.00     0.000 A 
ATOM     21  C   UNL d   1      33.241  19.374 -21.904  0.00  0.00     0.000 A 
ATOM     22  C   UNL d   1      33.235  18.724 -22.412  0.00  0.00     0.000 A 
ENDBRANCH  16  17
ENDBRANCH  14  16
ENDBRANCH   6  13
TORSDOF 3
ENDMDL
MODEL 2
REMARK VINA RESULT:      -3.3      2.525      5.301
REMARK  3 active torsions:
REMARK  status: ('A' for Active; 'I' for Inactive)
REMARK    1  A    between atoms: N_7  and  C_6 
REMARK       I    between atoms: C_8  and  N_7 
REMARK    2  A    between atoms: C_12  and  C_8 
REMARK    3  A    between atoms: C_16  and  C_12 
ROOT
ATOM      1  C   UNL d   1      33.231  20.915 -21.099  0.00  0.00     0.269 A 
ATOM      2  N   UNL d   1      33.230  21.602 -20.623  0.00  0.00    -0.239 N 
ATOM      3  C   UNL d   1      33.234  21.170 -21.885  0.00  0.00     0.079 A 
ATOM      4  C   UNL d   1      33.232  22.249 -21.109  0.00  0.00     0.267 A 
ATOM      5  C   UNL d   1      33.235  21.995 -21.891  0.00  0.00     0.063 A 
ATOM      6  C   UNL d   1      33.237  20.752 -22.591  0.00  0.00     0.089 A 
ATOM      7  O   UNL d   1      33.230  20.134 -20.840  0.00  0.00    -0.267 OA
ATOM      8  O   UNL d   1      33.231  23.049 -20.855  0.00  0.00    -0.267 OA
ATOM      9  C   UNL d   1      33.226  21.613 -19.798  0.00  0.00     0.105 C 
ATOM     10  C   UNL d   1      33.238  22.402 -22.605  0.00  0.00     0.005 A 
ATOM     11  C   UNL d   1      33.240  21.159 -23.310  0.00  0.00     0.019 A 
ATOM     12  C   UNL d   1      33.240  21.984 -23.316  0.00  0.00     0.002 A 
ENDROOT
BRANCH   6  13
ATOM     13  N   UNL d   1      33.237  19.927 -22.585  0.00  0.00    -0.208 NA
ATOM     14  C   UNL d   1      33.232  19.513 -23.296  0.00  0.00     0.279 C 
ATOM     15  O   UNL d   1      33.227  19.915 -24.015  0.00  0.00    -0.265 OA
BRANCH  14  16
ATOM     16  C   UNL d   1      33.231  18.688 -23.290  0.00  0.00     0.062 C 
BRANCH  16  17
ATOM     17  C   UNL d   1      32.736  18.272 -23.802  0.00  0.00     0.005 A 
ATOM     18  C   UNL d   1      31.996  18.016 -23.542  0.00  0.00     0.000 A 
ATOM     19  C   UNL d   1      31.502  17.604 -24.043  0.00  0.00     0.000 A 
ATOM     20  C   UNL d   1      31.746  17.444 -24.819  0.00  0.00     0.000 A 
ATOM     21  C   UNL d   1      32.486  17.700 -25.079  0.00  0.00     0.000 A 
ATOM     22  C   UNL d   1      32.981  18.116 -24.566  0.00  0.00     0.000 A 
ENDBRANCH  16  17
ENDBRANCH  14  16
ENDBRANCH   6  13
TORSDOF 3
ENDMDL
MODEL 3
REMARK VINA RESULT:      -3.0      1.763      4.484
REMARK  3 active torsions:
REMARK  status: ('A' for Active; 'I' for Inactive)
REMARK    1  A    between atoms: N_7  and  C_6 
REMARK       I    between atoms: C_8  and  N_7 
REMARK    2  A    between atoms: C_12  and  C_8 
REMARK    3  A    between atoms: C_16  and  C_12 
ROOT
ATOM      1  C   UNL d   1      33.233  19.534 -22.385  0.00  0.00     0.269 A 
ATOM      2  N   UNL d   1      33.234  20.322 -22.106  0.00  0.00    -0.239 N 
ATOM      3  C   UNL d   1      33.236  19.575 -23.210  0.00  0.00     0.079 A 
ATOM      4  C   UNL d   1      33.237  20.819 -22.744  0.00  0.00     0.267 A 
ATOM      5  C   UNL d   1      33.238  20.369 -23.433  0.00  0.00     0.063 A 
ATOM      6  C   UNL d   1      33.236  18.986 -23.782  0.00  0.00     0.089 A 
ATOM      7  O   UNL d   1      33.231  18.848 -21.931  0.00  0.00    -0.267 OA
ATOM      8  O   UNL d   1      33.238  21.657 -22.708  0.00  0.00    -0.267 OA
ATOM      9  C   UNL d   1      33.232  20.549 -21.313  0.00  0.00     0.105 C 
ATOM     10  C   UNL d   1      33.240  20.574 -24.228  0.00  0.00     0.005 A 
ATOM     11  C   UNL d   1      33.239  19.190 -24.582  0.00  0.00     0.019 A 
ATOM     12  C   UNL d   1      33.241  19.985 -24.805  0.00  0.00     0.002 A 
ENDROOT
BRANCH   6  13
ATOM     13  N   UNL d   1      33.234  18.191 -23.560  0.00  0.00    -0.208 NA
ATOM     14  C   UNL d   1      33.028  17.614 -24.109  0.00  0.00     0.279 C 
ATOM     15  O   UNL d   1      32.823  17.823 -24.879  0.00  0.00    -0.265 OA
BRANCH  14  16
ATOM     16  C   UNL d   1      33.026  16.820 -23.887  0.00  0.00     0.062 C 
BRANCH  16  17
ATOM     17  C   UNL d   1      32.334  16.375 -23.952  0.00  0.00     0.005 A 
ATOM     18  C   UNL d   1      31.818  16.318 -23.311  0.00  0.00     0.000 A 
ATOM     19  C   UNL d   1      31.133  15.880 -23.369  0.00  0.00     0.000 A 
ATOM     20  C   UNL d   1      30.954  15.491 -24.079  0.00  0.00     0.000 A 
ATOM     21  C   UNL d   1      31.470  15.548 -24.720  0.00  0.00     0.000 A 
ATOM     22  C   UNL d   1      32.162  15.993 -24.654  0.00  0.00     0.000 A 
ENDBRANCH  16  17
ENDBRANCH  14  16
ENDBRANCH   6  13
TORSDOF 3
ENDMDL
MODEL 4
REMARK VINA RESULT:      -1.8      1.233      2.120
REMARK  3 active torsions:
REMARK  status: ('A' for Active; 'I' for Inactive)
REMARK    1  A    between atoms: N_7  and  C_6 
REMARK       I    between atoms: C_8  and  N_7 
REMARK    2  A    between atoms: C_12  and  C_8 
REMARK    3  A    between atoms: C_16  and  C_12 
ROOT
ATOM      1  C   UNL d   1      31.737  16.761 -23.108  0.00  0.00     0.269 A 
ATOM      2  N   UNL d   1      31.247  16.138 -23.372  0.00  0.00    -0.239 N 
ATOM      3  C   UNL d   1      31.749  17.325 -23.713  0.00  0.00     0.079 A 
ATOM      4  C   UNL d   1      30.974  16.323 -24.111  0.00  0.00     0.267 A 
ATOM      5  C   UNL d   1      31.277  17.054 -24.333  0.00  0.00     0.063 A 
ATOM      6  C   UNL d   1      32.132  18.049 -23.771  0.00  0.00     0.089 A 
ATOM      7  O   UNL d   1      32.132  16.810 -22.389  0.00  0.00    -0.267 OA
ATOM      8  O   UNL d   1      30.464  15.844 -24.576  0.00  0.00    -0.267 OA
ATOM      9  C   UNL d   1      31.073  15.453 -22.947  0.00  0.00     0.105 C 
ATOM     10  C   UNL d   1      31.189  17.507 -25.012  0.00  0.00     0.005 A 
ATOM     11  C   UNL d   1      32.044  18.506 -24.453  0.00  0.00     0.019 A 
ATOM     12  C   UNL d   1      31.572  18.235 -25.073  0.00  0.00     0.002 A 
ENDROOT
BRANCH   6  13
ATOM     13  N   UNL d   1      32.603  18.321 -23.151  0.00  0.00    -0.208 NA
ATOM     14  C   UNL d   1      32.769  19.124 -23.086  0.00  0.00     0.279 C 
ATOM     15  O   UNL d   1      32.469  19.660 -23.634  0.00  0.00    -0.265 OA
BRANCH  14  16
ATOM     16  C   UNL d   1      33.241  19.395 -22.465  0.00  0.00     0.062 C 
BRANCH  16  17
ATOM     17  C   UNL d   1      33.013  20.062 -22.036  0.00  0.00     0.005 A 
ATOM     18  C   UNL d   1      32.748  20.736 -22.431  0.00  0.00     0.000 A 
ATOM     19  C   UNL d   1      32.522  21.398 -22.014  0.00  0.00     0.000 A 
ATOM     20  C   UNL d   1      32.559  21.393 -21.185  0.00  0.00     0.000 A 
ATOM     21  C   UNL d   1      32.824  20.719 -20.790  0.00  0.00     0.000 A 
ATOM     22  C   UNL d   1      33.052  20.052 -21.219  0.00  0.00     0.000 A 
ENDBRANCH  16  17
ENDBRANCH  14  16
ENDBRANCH   6  13
TORSDOF 3
ENDMDL
MODEL 5
REMARK VINA RESULT:      -1.7      3.251      5.816
REMARK  3 active torsions:
REMARK  status: ('A' for Active; 'I' for Inactive)
REMARK    1  A    between atoms: N_7  and  C_6 
REMARK       I    between atoms: C_8  and  N_7 
REMARK    2  A    between atoms: C_12  and  C_8 
REMARK    3  A    between atoms: C_16  and  C_12 
ROOT
ATOM      1  C   UNL d   1      32.725  21.609 -20.132  0.00  0.00     0.269 A 
ATOM      2  N   UNL d   1      32.546  22.249 -19.627  0.00  0.00    -0.239 N 
ATOM      3  C   UNL d   1      32.850  21.927 -20.884  0.00  0.00     0.079 A 
ATOM      4  C   UNL d   1      32.562  22.931 -20.063  0.00  0.00     0.267 A 
ATOM      5  C   UNL d   1      32.749  22.745 -20.842  0.00  0.00     0.063 A 
ATOM      6  C   UNL d   1      33.043  21.572 -21.599  0.00  0.00     0.089 A 
ATOM      7  O   UNL d   1      32.771  20.813 -19.926  0.00  0.00    -0.267 OA
ATOM      8  O   UNL d   1      32.412  23.702 -19.767  0.00  0.00    -0.267 OA
ATOM      9  C   UNL d   1      32.380  22.192 -18.820  0.00  0.00     0.105 C 
ATOM     10  C   UNL d   1      32.841  23.207 -21.514  0.00  0.00     0.005 A 
ATOM     11  C   UNL d   1      33.135  22.035 -22.276  0.00  0.00     0.019 A 
ATOM     12  C   UNL d   1      33.034  22.853 -22.234  0.00  0.00     0.002 A 
ENDROOT
BRANCH   6  13
ATOM     13  N   UNL d   1      33.144  20.754 -21.641  0.00  0.00    -0.208 NA
ATOM     14  C   UNL d   1      33.088  20.373 -22.369  0.00  0.00     0.279 C 
ATOM     15  O   UNL d   1      32.933  20.801 -23.055  0.00  0.00    -0.265 OA
BRANCH  14  16
ATOM     16  C   UNL d   1      33.189  19.556 -22.412  0.00  0.00     0.062 C 
BRANCH  16  17
ATOM     17  C   UNL d   1      32.866  19.133 -23.042  0.00  0.00     0.005 A 
ATOM     18  C   UNL d   1      33.226  19.161 -23.784  0.00  0.00     0.000 A 
ATOM     19  C   UNL d   1      32.912  18.746 -24.411  0.00  0.00     0.000 A 
ATOM     20  C   UNL d   1      32.226  18.293 -24.301  0.00  0.00     0.000 A 
ATOM     21  C   UNL d   1      31.867  18.265 -23.560  0.00  0.00     0.000 A 
ATOM     22  C   UNL d   1      32.190  18.688 -22.929  0.00  0.00     0.000 A 
ENDBRANCH  16  17
ENDBRANCH  14  16
ENDBRANCH   6  13
TORSDOF 3
ENDMDL
