MODEL 1
REMARK VINA RESULT:      44.1      0.000      0.000
REMARK  4 active torsions:
REMARK  status: ('A' for Active; 'I' for Inactive)
REMARK    1  A    between atoms: N_2  and  S_1 
REMARK    2  A    between atoms: C_3  and  S_1 
REMARK    3  A    between atoms: C_14  and  C_4 
REMARK    4  A    between atoms: O_17  and  C_11 
ROOT
ATOM      1  S   UNL d   1     -57.124 -99.313 -44.154  0.00  0.00     0.274 S 
ATOM      2  O   UNL d   1     -56.685 -98.819 -44.638  0.00  0.00    -0.199 OA
ATOM      3  O   UNL d   1     -56.786 -99.996 -43.840  0.00  0.00    -0.199 OA
ENDROOT
BRANCH   1   4
ATOM      4  N   UNL d   1     -57.904 -99.125 -43.983  0.00  0.00    -0.213 N 
ATOM      5  C   UNL d   1     -58.447 -99.027 -44.587  0.00  0.00     0.157 A 
ATOM      6  N   UNL d   1     -59.255 -98.832 -44.407  0.00  0.00    -0.226 NA
ATOM      7  C   UNL d   1     -58.930 -98.844 -43.023  0.00  0.00     0.101 A 
ATOM      8  C   UNL d   1     -58.143 -99.034 -43.192  0.00  0.00     0.112 A 
ATOM      9  C   UNL d   1     -59.155 -98.756 -42.224  0.00  0.00     0.022 C 
BRANCH   5  10
ATOM     10  C   UNL d   1     -58.211 -99.117 -45.375  0.00  0.00     0.038 C 
ATOM     11  C   UNL d   1     -58.658 -98.757 -45.962  0.00  0.00     0.003 C 
ENDBRANCH   5  10
ENDBRANCH   1   4
BRANCH   1  12
ATOM     12  C   UNL d   1     -56.346 -99.496 -44.329  0.00  0.00     0.127 A 
ATOM     13  C   UNL d   1     -55.923 -99.044 -44.862  0.00  0.00     0.022 A 
ATOM     14  C   UNL d   1     -55.146 -99.220 -45.040  0.00  0.00     0.035 A 
ATOM     15 BR   UNL d   1     -54.734 -98.755 -45.579  0.00  0.00    -0.049 Br
ATOM     16  C   UNL d   1     -54.779 -99.865 -44.678  0.00  0.00     0.009 A 
ATOM     17  C   UNL d   1     -55.202-100.325 -44.140  0.00  0.00     0.025 A 
ATOM     18  C   UNL d   1     -55.980-100.141 -43.966  0.00  0.00     0.106 A 
BRANCH  18  19
ATOM     19  O   UNL d   1     -56.403-100.604 -43.425  0.00  0.00    -0.327 OA
ATOM     20  C   UNL d   1     -56.151-101.367 -43.240  0.00  0.00     0.181 C 
ENDBRANCH  18  19
ENDBRANCH   1  12
TORSDOF 4
ENDMDL
