MODEL 1
REMARK VINA RESULT:      -7.0      0.000      0.000
REMARK  7 active torsions:
REMARK  status: ('A' for Active; 'I' for Inactive)
REMARK    1  A    between atoms: C_3  and  C_1 
REMARK    2  A    between atoms: C_5  and  C_3 
REMARK    3  A    between atoms: C_14  and  C_3 
REMARK    4  A    between atoms: N_6  and  C_14 
REMARK    5  A    between atoms: O_17  and  C_9 
REMARK    6  A    between atoms: O_18  and  C_10 
REMARK    7  A    between atoms: O_19  and  C_11 
ROOT
ATOM      1  C   UNL d   1      53.661  32.831  53.406  0.00  0.00     0.025 C 
ENDROOT
BRANCH   1   2
ATOM      2  C   UNL d   1      53.582  32.139  53.849  0.00  0.00     0.021 A 
ATOM      3  C   UNL d   1      53.730  32.069  54.674  0.00  0.00     0.082 A 
ATOM      4  N   UNL d   1      53.588  31.301  54.892  0.00  0.00    -0.246 NA
ATOM      5  C   UNL d   1      53.978  32.682  55.174  0.00  0.00     0.021 C 
ATOM      6  C   UNL d   1      53.353  30.884  54.221  0.00  0.00     0.081 A 
ATOM      7  C   UNL d   1      53.354  31.414  53.584  0.00  0.00     0.019 A 
ATOM      8  C   UNL d   1      53.142  30.111  54.100  0.00  0.00     0.019 A 
ATOM      9  C   UNL d   1      53.140  31.150  52.831  0.00  0.00     0.002 A 
ATOM     10  C   UNL d   1      52.928  30.369  52.714  0.00  0.00     0.000 A 
ATOM     11  C   UNL d   1      52.927  29.839  53.351  0.00  0.00     0.002 A 
ENDBRANCH   1   2
BRANCH   1  12
ATOM     12  C   UNL d   1      53.054  33.395  53.426  0.00  0.00     0.006 A 
ATOM     13  C   UNL d   1      52.475  33.391  52.848  0.00  0.00     0.026 A 
ATOM     14  C   UNL d   1      51.870  33.947  52.859  0.00  0.00     0.118 A 
ATOM     15  C   UNL d   1      51.853  34.506  53.457  0.00  0.00     0.138 A 
ATOM     16  C   UNL d   1      52.432  34.518  54.045  0.00  0.00     0.118 A 
ATOM     17  C   UNL d   1      53.037  33.954  54.024  0.00  0.00     0.026 A 
BRANCH  14  18
ATOM     18  O   UNL d   1      51.292  33.943  52.282  0.00  0.00    -0.326 OA
ATOM     19  C   UNL d   1      51.487  34.094  51.501  0.00  0.00     0.181 C 
ENDBRANCH  14  18
BRANCH  15  20
ATOM     20  O   UNL d   1      51.251  35.061  53.471  0.00  0.00    -0.324 OA
ATOM     21  C   UNL d   1      50.490  34.824  53.694  0.00  0.00     0.182 C 
ENDBRANCH  15  20
BRANCH  16  22
ATOM     22  O   UNL d   1      52.419  35.073  54.642  0.00  0.00    -0.326 OA
ATOM     23  C   UNL d   1      52.963  35.688  54.653  0.00  0.00     0.181 C 
ENDBRANCH  16  22
ENDBRANCH   1  12
BRANCH   1  24
ATOM     24  C   UNL d   1      54.335  32.965  52.946  0.00  0.00     0.148 C 
BRANCH  24  25
ATOM     25  N   UNL d   1      55.031  33.167  53.350  0.00  0.00    -0.112 N 
ATOM     26  O   UNL d   1      55.698  32.672  53.282  0.00  0.00    -0.532 OA
ATOM     27  O   UNL d   1      55.057  33.846  53.809  0.00  0.00    -0.532 OA
ENDBRANCH  24  25
ENDBRANCH   1  24
TORSDOF 7
ENDMDL
MODEL 2
REMARK VINA RESULT:      -6.0      1.285      2.628
REMARK  7 active torsions:
REMARK  status: ('A' for Active; 'I' for Inactive)
REMARK    1  A    between atoms: C_3  and  C_1 
REMARK    2  A    between atoms: C_5  and  C_3 
REMARK    3  A    between atoms: C_14  and  C_3 
REMARK    4  A    between atoms: N_6  and  C_14 
REMARK    5  A    between atoms: O_17  and  C_9 
REMARK    6  A    between atoms: O_18  and  C_10 
REMARK    7  A    between atoms: O_19  and  C_11 
ROOT
ATOM      1  C   UNL d   1      52.735  33.038  52.972  0.00  0.00     0.025 C 
ENDROOT
BRANCH   1   2
ATOM      2  C   UNL d   1      52.265  32.384  53.152  0.00  0.00     0.021 A 
ATOM      3  C   UNL d   1      51.474  32.416  53.437  0.00  0.00     0.082 A 
ATOM      4  N   UNL d   1      51.214  31.655  53.544  0.00  0.00    -0.246 NA
ATOM      5  C   UNL d   1      51.041  33.106  53.582  0.00  0.00     0.021 C 
ATOM      6  C   UNL d   1      51.824  31.143  53.332  0.00  0.00     0.081 A 
ATOM      7  C   UNL d   1      52.467  31.607  53.093  0.00  0.00     0.019 A 
ATOM      8  C   UNL d   1      51.886  30.335  53.324  0.00  0.00     0.019 A 
ATOM      9  C   UNL d   1      53.166  31.242  52.846  0.00  0.00     0.002 A 
ATOM     10  C   UNL d   1      53.224  30.426  52.839  0.00  0.00     0.000 A 
ATOM     11  C   UNL d   1      52.581  29.962  53.079  0.00  0.00     0.002 A 
ENDBRANCH   1   2
BRANCH   1  12
ATOM     12  C   UNL d   1      53.244  33.343  53.551  0.00  0.00     0.006 A 
ATOM     13  C   UNL d   1      54.042  33.167  53.525  0.00  0.00     0.026 A 
ATOM     14  C   UNL d   1      54.554  33.465  54.095  0.00  0.00     0.118 A 
ATOM     15  C   UNL d   1      54.254  33.941  54.690  0.00  0.00     0.138 A 
ATOM     16  C   UNL d   1      53.450  34.124  54.724  0.00  0.00     0.118 A 
ATOM     17  C   UNL d   1      52.945  33.819  54.146  0.00  0.00     0.026 A 
BRANCH  14  18
ATOM     18  O   UNL d   1      55.351  33.290  54.069  0.00  0.00    -0.326 OA
ATOM     19  C   UNL d   1      55.750  33.282  53.354  0.00  0.00     0.181 C 
ENDBRANCH  14  18
BRANCH  15  20
ATOM     20  O   UNL d   1      54.762  34.239  55.259  0.00  0.00    -0.324 OA
ATOM     21  C   UNL d   1      54.968  33.764  55.904  0.00  0.00     0.182 C 
ENDBRANCH  15  20
BRANCH  16  22
ATOM     22  O   UNL d   1      53.148  34.598  55.315  0.00  0.00    -0.326 OA
ATOM     23  C   UNL d   1      52.895  35.362  55.150  0.00  0.00     0.181 C 
ENDBRANCH  16  22
ENDBRANCH   1  12
BRANCH   1  24
ATOM     24  C   UNL d   1      52.703  33.388  52.223  0.00  0.00     0.148 C 
BRANCH  24  25
ATOM     25  N   UNL d   1      52.309  34.116  52.166  0.00  0.00    -0.112 N 
ATOM     26  O   UNL d   1      52.757  34.819  52.138  0.00  0.00    -0.532 OA
ATOM     27  O   UNL d   1      51.490  34.139  52.139  0.00  0.00    -0.532 OA
ENDBRANCH  24  25
ENDBRANCH   1  24
TORSDOF 7
ENDMDL
MODEL 3
REMARK VINA RESULT:      -5.8      1.524      3.341
REMARK  7 active torsions:
REMARK  status: ('A' for Active; 'I' for Inactive)
REMARK    1  A    between atoms: C_3  and  C_1 
REMARK    2  A    between atoms: C_5  and  C_3 
REMARK    3  A    between atoms: C_14  and  C_3 
REMARK    4  A    between atoms: N_6  and  C_14 
REMARK    5  A    between atoms: O_17  and  C_9 
REMARK    6  A    between atoms: O_18  and  C_10 
REMARK    7  A    between atoms: O_19  and  C_11 
ROOT
ATOM      1  C   UNL d   1      54.043  33.213  53.691  0.00  0.00     0.025 C 
ENDROOT
BRANCH   1   2
ATOM      2  C   UNL d   1      53.829  33.689  54.331  0.00  0.00     0.021 A 
ATOM      3  C   UNL d   1      54.002  33.527  55.138  0.00  0.00     0.082 A 
ATOM      4  N   UNL d   1      53.697  34.129  55.587  0.00  0.00    -0.246 NA
ATOM      5  C   UNL d   1      54.413  32.865  55.420  0.00  0.00     0.021 C 
ATOM      6  C   UNL d   1      53.334  34.668  55.080  0.00  0.00     0.081 A 
ATOM      7  C   UNL d   1      53.424  34.384  54.307  0.00  0.00     0.019 A 
ATOM      8  C   UNL d   1      52.942  35.366  55.209  0.00  0.00     0.019 A 
ATOM      9  C   UNL d   1      53.113  34.813  53.674  0.00  0.00     0.002 A 
ATOM     10  C   UNL d   1      52.718  35.517  53.809  0.00  0.00     0.000 A 
ATOM     11  C   UNL d   1      52.628  35.801  54.581  0.00  0.00     0.002 A 
ENDBRANCH   1   2
BRANCH   1  12
ATOM     12  C   UNL d   1      53.620  32.515  53.547  0.00  0.00     0.006 A 
ATOM     13  C   UNL d   1      52.946  32.535  53.085  0.00  0.00     0.026 A 
ATOM     14  C   UNL d   1      52.520  31.848  52.937  0.00  0.00     0.118 A 
ATOM     15  C   UNL d   1      52.779  31.141  53.259  0.00  0.00     0.138 A 
ATOM     16  C   UNL d   1      53.458  31.110  53.727  0.00  0.00     0.118 A 
ATOM     17  C   UNL d   1      53.879  31.808  53.869  0.00  0.00     0.026 A 
BRANCH  14  18
ATOM     18  O   UNL d   1      51.847  31.868  52.475  0.00  0.00    -0.326 OA
ATOM     19  C   UNL d   1      51.240  32.388  52.651  0.00  0.00     0.181 C 
ENDBRANCH  14  18
BRANCH  15  20
ATOM     20  O   UNL d   1      52.357  30.455  53.113  0.00  0.00    -0.324 OA
ATOM     21  C   UNL d   1      52.648  29.913  52.559  0.00  0.00     0.182 C 
ENDBRANCH  15  20
BRANCH  16  22
ATOM     22  O   UNL d   1      53.720  30.409  54.049  0.00  0.00    -0.326 OA
ATOM     23  C   UNL d   1      53.498  30.191  54.810  0.00  0.00     0.181 C 
ENDBRANCH  16  22
ENDBRANCH   1  12
BRANCH   1  24
ATOM     24  C   UNL d   1      54.670  33.426  53.196  0.00  0.00     0.148 C 
BRANCH  24  25
ATOM     25  N   UNL d   1      55.409  33.086  53.360  0.00  0.00    -0.112 N 
ATOM     26  O   UNL d   1      55.702  32.488  52.858  0.00  0.00    -0.532 OA
ATOM     27  O   UNL d   1      55.843  33.338  54.009  0.00  0.00    -0.532 OA
ENDBRANCH  24  25
ENDBRANCH   1  24
TORSDOF 7
ENDMDL
MODEL 4
REMARK VINA RESULT:      -5.5      1.586      3.597
REMARK  7 active torsions:
REMARK  status: ('A' for Active; 'I' for Inactive)
REMARK    1  A    between atoms: C_3  and  C_1 
REMARK    2  A    between atoms: C_5  and  C_3 
REMARK    3  A    between atoms: C_14  and  C_3 
REMARK    4  A    between atoms: N_6  and  C_14 
REMARK    5  A    between atoms: O_17  and  C_9 
REMARK    6  A    between atoms: O_18  and  C_10 
REMARK    7  A    between atoms: O_19  and  C_11 
ROOT
ATOM      1  C   UNL d   1      52.358  33.004  53.394  0.00  0.00     0.025 C 
ENDROOT
BRANCH   1   2
ATOM      2  C   UNL d   1      51.972  33.518  52.877  0.00  0.00     0.021 A 
ATOM      3  C   UNL d   1      52.319  33.881  52.202  0.00  0.00     0.082 A 
ATOM      4  N   UNL d   1      51.755  34.343  51.846  0.00  0.00    -0.246 NA
ATOM      5  C   UNL d   1      53.101  33.781  51.949  0.00  0.00     0.021 C 
ATOM      6  C   UNL d   1      51.059  34.278  52.282  0.00  0.00     0.081 A 
ATOM      7  C   UNL d   1      51.207  33.766  52.916  0.00  0.00     0.019 A 
ATOM      8  C   UNL d   1      50.323  34.608  52.195  0.00  0.00     0.019 A 
ATOM      9  C   UNL d   1      50.604  33.595  53.454  0.00  0.00     0.002 A 
ATOM     10  C   UNL d   1      49.864  33.929  53.362  0.00  0.00     0.000 A 
ATOM     11  C   UNL d   1      49.715  34.441  52.729  0.00  0.00     0.002 A 
ENDBRANCH   1   2
BRANCH   1  12
ATOM     12  C   UNL d   1      52.995  33.285  53.844  0.00  0.00     0.006 A 
ATOM     13  C   UNL d   1      52.869  33.855  54.416  0.00  0.00     0.026 A 
ATOM     14  C   UNL d   1      53.495  34.139  54.867  0.00  0.00     0.118 A 
ATOM     15  C   UNL d   1      54.247  33.844  54.735  0.00  0.00     0.138 A 
ATOM     16  C   UNL d   1      54.384  33.269  54.160  0.00  0.00     0.118 A 
ATOM     17  C   UNL d   1      53.747  32.990  53.713  0.00  0.00     0.026 A 
BRANCH  14  18
ATOM     18  O   UNL d   1      53.370  34.709  55.438  0.00  0.00    -0.326 OA
ATOM     19  C   UNL d   1      53.011  35.418  55.243  0.00  0.00     0.181 C 
ENDBRANCH  14  18
BRANCH  15  20
ATOM     20  O   UNL d   1      54.873  34.126  55.183  0.00  0.00    -0.324 OA
ATOM     21  C   UNL d   1      55.094  33.718  55.867  0.00  0.00     0.182 C 
ENDBRANCH  15  20
BRANCH  16  22
ATOM     22  O   UNL d   1      55.132  32.972  54.026  0.00  0.00    -0.326 OA
ATOM     23  C   UNL d   1      55.523  33.128  53.320  0.00  0.00     0.181 C 
ENDBRANCH  16  22
ENDBRANCH   1  12
BRANCH   1  24
ATOM     24  C   UNL d   1      52.115  32.216  53.468  0.00  0.00     0.148 C 
BRANCH  24  25
ATOM     25  N   UNL d   1      52.547  31.649  53.044  0.00  0.00    -0.112 N 
ATOM     26  O   UNL d   1      52.935  31.039  53.461  0.00  0.00    -0.532 OA
ATOM     27  O   UNL d   1      52.591  31.692  52.226  0.00  0.00    -0.532 OA
ENDBRANCH  24  25
ENDBRANCH   1  24
TORSDOF 7
ENDMDL
MODEL 5
REMARK VINA RESULT:      -5.4      1.541      3.695
REMARK  7 active torsions:
REMARK  status: ('A' for Active; 'I' for Inactive)
REMARK    1  A    between atoms: C_3  and  C_1 
REMARK    2  A    between atoms: C_5  and  C_3 
REMARK    3  A    between atoms: C_14  and  C_3 
REMARK    4  A    between atoms: N_6  and  C_14 
REMARK    5  A    between atoms: O_17  and  C_9 
REMARK    6  A    between atoms: O_18  and  C_10 
REMARK    7  A    between atoms: O_19  and  C_11 
ROOT
ATOM      1  C   UNL d   1      52.343  33.938  53.661  0.00  0.00     0.025 C 
ENDROOT
BRANCH   1   2
ATOM      2  C   UNL d   1      51.983  34.163  52.954  0.00  0.00     0.021 A 
ATOM      3  C   UNL d   1      52.382  34.473  52.281  0.00  0.00     0.082 A 
ATOM      4  N   UNL d   1      51.829  34.622  51.706  0.00  0.00    -0.246 NA
ATOM      5  C   UNL d   1      53.198  34.601  52.220  0.00  0.00     0.021 C 
ATOM      6  C   UNL d   1      51.089  34.413  52.003  0.00  0.00     0.081 A 
ATOM      7  C   UNL d   1      51.199  34.131  52.774  0.00  0.00     0.019 A 
ATOM      8  C   UNL d   1      50.343  34.439  51.687  0.00  0.00     0.019 A 
ATOM      9  C   UNL d   1      50.548  33.878  53.214  0.00  0.00     0.002 A 
ATOM     10  C   UNL d   1      49.797  33.906  52.891  0.00  0.00     0.000 A 
ATOM     11  C   UNL d   1      49.687  34.187  52.120  0.00  0.00     0.002 A 
ENDBRANCH   1   2
BRANCH   1  12
ATOM     12  C   UNL d   1      52.843  33.277  53.668  0.00  0.00     0.006 A 
ATOM     13  C   UNL d   1      52.526  32.526  53.734  0.00  0.00     0.026 A 
ATOM     14  C   UNL d   1      53.014  31.866  53.741  0.00  0.00     0.118 A 
ATOM     15  C   UNL d   1      53.824  31.967  53.683  0.00  0.00     0.138 A 
ATOM     16  C   UNL d   1      54.154  32.721  53.617  0.00  0.00     0.118 A 
ATOM     17  C   UNL d   1      53.653  33.379  53.610  0.00  0.00     0.026 A 
BRANCH  14  18
ATOM     18  O   UNL d   1      52.696  31.116  53.807  0.00  0.00    -0.326 OA
ATOM     19  C   UNL d   1      52.028  30.912  53.381  0.00  0.00     0.181 C 
ENDBRANCH  14  18
BRANCH  15  20
ATOM     20  O   UNL d   1      54.313  31.311  53.690  0.00  0.00    -0.324 OA
ATOM     21  C   UNL d   1      54.369  30.842  53.011  0.00  0.00     0.182 C 
ENDBRANCH  15  20
BRANCH  16  22
ATOM     22  O   UNL d   1      54.961  32.827  53.558  0.00  0.00    -0.326 OA
ATOM     23  C   UNL d   1      55.370  33.243  54.137  0.00  0.00     0.181 C 
ENDBRANCH  16  22
ENDBRANCH   1  12
BRANCH   1  24
ATOM     24  C   UNL d   1      52.209  34.363  54.359  0.00  0.00     0.148 C 
BRANCH  24  25
ATOM     25  N   UNL d   1      52.767  34.944  54.556  0.00  0.00    -0.112 N 
ATOM     26  O   UNL d   1      53.237  34.840  55.237  0.00  0.00    -0.532 OA
ATOM     27  O   UNL d   1      52.852  35.610  54.086  0.00  0.00    -0.532 OA
ENDBRANCH  24  25
ENDBRANCH   1  24
TORSDOF 7
ENDMDL
MODEL 6
REMARK VINA RESULT:      -5.1      1.587      2.544
REMARK  7 active torsions:
REMARK  status: ('A' for Active; 'I' for Inactive)
REMARK    1  A    between atoms: C_3  and  C_1 
REMARK    2  A    between atoms: C_5  and  C_3 
REMARK    3  A    between atoms: C_14  and  C_3 
REMARK    4  A    between atoms: N_6  and  C_14 
REMARK    5  A    between atoms: O_17  and  C_9 
REMARK    6  A    between atoms: O_18  and  C_10 
REMARK    7  A    between atoms: O_19  and  C_11 
ROOT
ATOM      1  C   UNL d   1      53.507  32.452  53.497  0.00  0.00     0.025 C 
ENDROOT
BRANCH   1   2
ATOM      2  C   UNL d   1      53.826  32.555  54.250  0.00  0.00     0.021 A 
ATOM      3  C   UNL d   1      53.638  32.093  54.928  0.00  0.00     0.082 A 
ATOM      4  N   UNL d   1      54.070  32.374  55.554  0.00  0.00    -0.246 NA
ATOM      5  C   UNL d   1      53.103  31.461  54.947  0.00  0.00     0.021 C 
ATOM      6  C   UNL d   1      54.528  33.005  55.285  0.00  0.00     0.081 A 
ATOM      7  C   UNL d   1      54.368  33.106  54.479  0.00  0.00     0.019 A 
ATOM      8  C   UNL d   1      55.060  33.494  55.654  0.00  0.00     0.019 A 
ATOM      9  C   UNL d   1      54.750  33.704  54.057  0.00  0.00     0.002 A 
ATOM     10  C   UNL d   1      55.285  34.195  54.433  0.00  0.00     0.000 A 
ATOM     11  C   UNL d   1      55.446  34.094  55.239  0.00  0.00     0.002 A 
ENDBRANCH   1   2
BRANCH   1  12
ATOM     12  C   UNL d   1      52.798  32.834  53.302  0.00  0.00     0.006 A 
ATOM     13  C   UNL d   1      52.814  33.529  52.872  0.00  0.00     0.026 A 
ATOM     14  C   UNL d   1      52.116  33.914  52.674  0.00  0.00     0.118 A 
ATOM     15  C   UNL d   1      51.402  33.594  52.913  0.00  0.00     0.138 A 
ATOM     16  C   UNL d   1      51.375  32.893  53.347  0.00  0.00     0.118 A 
ATOM     17  C   UNL d   1      52.083  32.513  53.541  0.00  0.00     0.026 A 
BRANCH  14  18
ATOM     18  O   UNL d   1      52.133  34.609  52.244  0.00  0.00    -0.326 OA
ATOM     19  C   UNL d   1      52.705  34.726  51.670  0.00  0.00     0.181 C 
ENDBRANCH  14  18
BRANCH  15  20
ATOM     20  O   UNL d   1      50.705  33.976  52.717  0.00  0.00    -0.324 OA
ATOM     21  C   UNL d   1      50.392  34.536  53.239  0.00  0.00     0.182 C 
ENDBRANCH  15  20
BRANCH  16  22
ATOM     22  O   UNL d   1      50.665  32.570  53.587  0.00  0.00    -0.326 OA
ATOM     23  C   UNL d   1      50.403  31.858  53.272  0.00  0.00     0.181 C 
ENDBRANCH  16  22
ENDBRANCH   1  12
BRANCH   1  24
ATOM     24  C   UNL d   1      53.886  31.974  52.938  0.00  0.00     0.148 C 
BRANCH  24  25
ATOM     25  N   UNL d   1      53.572  31.216  52.818  0.00  0.00    -0.112 N 
ATOM     26  O   UNL d   1      53.084  31.079  52.156  0.00  0.00    -0.532 OA
ATOM     27  O   UNL d   1      53.741  30.611  53.347  0.00  0.00    -0.532 OA
ENDBRANCH  24  25
ENDBRANCH   1  24
TORSDOF 7
ENDMDL
