MODEL 1
REMARK VINA RESULT:      46.8      0.000      0.000
REMARK  4 active torsions:
REMARK  status: ('A' for Active; 'I' for Inactive)
REMARK    1  A    between atoms: C_7  and  C_4 
REMARK    2  A    between atoms: C_11  and  C_7 
REMARK    3  A    between atoms: C_9  and  O_16 
REMARK    4  A    between atoms: O_16  and  C_11 
ROOT
ATOM      1  C   UNL d   1      61.536  47.445  49.987  0.00  0.00     0.124 C 
ENDROOT
BRANCH   1   2
ATOM      2  C   UNL d   1      62.210  47.001  49.784  0.00  0.00     0.046 C 
BRANCH   2   3
ATOM      3  C   UNL d   1      62.123  46.253  49.447  0.00  0.00     0.092 A 
ATOM      4  N   UNL d   1      61.419  45.830  49.401  0.00  0.00    -0.219 NA
ATOM      5  C   UNL d   1      61.585  45.115  49.023  0.00  0.00     0.215 A 
ATOM      6  S   UNL d   1      62.383  45.102  48.840  0.00  0.00    -0.045 SA
ATOM      7  N   UNL d   1      61.042  44.517  48.858  0.00  0.00    -0.120 N 
ATOM      8  C   UNL d   1      62.721  45.805  49.100  0.00  0.00     0.058 A 
ENDBRANCH   2   3
ENDBRANCH   1   2
BRANCH   1   9
ATOM      9  O   UNL d   1      61.620  48.238  50.178  0.00  0.00    -0.305 OA
BRANCH   9  10
ATOM     10  C   UNL d   1      61.063  48.601  50.672  0.00  0.00     0.100 A 
ATOM     11  C   UNL d   1      60.961  48.330  51.438  0.00  0.00     0.027 A 
ATOM     12  C   UNL d   1      60.405  48.692  51.932  0.00  0.00     0.032 A 
ATOM     13  C   UNL d   1      59.954  49.325  51.656  0.00  0.00     0.140 A 
ATOM     14  C   UNL d   1      60.055  49.599  50.885  0.00  0.00     0.032 A 
ATOM     15  F   UNL d   1      59.398  49.684  52.155  0.00  0.00    -0.204 F 
ATOM     16  C   UNL d   1      60.606  49.241  50.393  0.00  0.00     0.027 A 
ENDBRANCH   9  10
ENDBRANCH   1   9
TORSDOF 4
ENDMDL
