MODEL 1
REMARK VINA RESULT:      18.0      0.000      0.000
REMARK  4 active torsions:
REMARK  status: ('A' for Active; 'I' for Inactive)
REMARK    1  A    between atoms: C_7  and  N_1 
REMARK    2  A    between atoms: C_10  and  C_5 
REMARK    3  A    between atoms: N_6  and  C_9 
REMARK    4  A    between atoms: O_18  and  C_13 
ROOT
ATOM      1  N   UNL d   1      45.567 -14.503  44.420  0.00  0.00    -0.279 N 
ATOM      2  C   UNL d   1      44.830 -14.766  44.682  0.00  0.00     0.206 A 
ATOM      3  N   UNL d   1      44.827 -15.570  44.627  0.00  0.00    -0.217 NA
ATOM      4  C   UNL d   1      46.004 -15.163  44.207  0.00  0.00     0.101 A 
ATOM      5  C   UNL d   1      45.534 -15.801  44.342  0.00  0.00     0.101 A 
ATOM      6  S   UNL d   1      44.202 -14.271  44.955  0.00  0.00    -0.038 SA
ENDROOT
BRANCH   5   7
ATOM      7  C   UNL d   1      45.814 -16.550  44.183  0.00  0.00     0.019 A 
ATOM      8  C   UNL d   1      46.184 -16.864  43.525  0.00  0.00     0.003 A 
ATOM      9  C   UNL d   1      46.419 -17.669  43.511  0.00  0.00     0.024 A 
ATOM     10  C   UNL d   1      46.277 -18.145  44.159  0.00  0.00     0.127 A 
ATOM     11  C   UNL d   1      45.897 -17.819  44.832  0.00  0.00     0.024 A 
ATOM     12  C   UNL d   1      45.672 -17.025  44.831  0.00  0.00     0.003 A 
BRANCH  10  13
ATOM     13  N   UNL d   1      46.507 -18.938  44.148  0.00  0.00    -0.114 N 
ATOM     14  O   UNL d   1      46.639 -19.337  44.847  0.00  0.00    -0.532 OA
ATOM     15  O   UNL d   1      46.603 -19.328  43.423  0.00  0.00    -0.532 OA
ENDBRANCH  10  13
ENDBRANCH   5   7
BRANCH   1  16
ATOM     16  C   UNL d   1      45.755 -13.687  44.405  0.00  0.00     0.088 A 
ATOM     17  C   UNL d   1      45.414 -13.187  43.842  0.00  0.00     0.110 A 
ATOM     18  C   UNL d   1      45.599 -12.403  43.833  0.00  0.00     0.026 A 
ATOM     19  C   UNL d   1      46.133 -12.080  44.385  0.00  0.00     0.002 A 
ATOM     20  C   UNL d   1      46.482 -12.568  44.955  0.00  0.00     0.002 A 
ATOM     21  C   UNL d   1      46.281 -13.387  44.955  0.00  0.00     0.020 A 
BRANCH  17  22
ATOM     22  O   UNL d   1      44.865 -13.531  43.277  0.00  0.00    -0.327 OA
ATOM     23  C   UNL d   1      44.538 -13.027  42.692  0.00  0.00     0.181 C 
ENDBRANCH  17  22
ENDBRANCH   1  16
TORSDOF 4
ENDMDL
