MODEL 1
REMARK VINA RESULT:      31.2      0.000      0.000
REMARK  3 active torsions:
REMARK  status: ('A' for Active; 'I' for Inactive)
REMARK    1  A    between atoms: N_4  and  C_2 
REMARK    2  A    between atoms: C_10  and  C_3 
REMARK       I    between atoms: C_7  and  N_4 
REMARK    3  A    between atoms: C_8  and  C_7 
ROOT
ATOM      1  N   UNL d   1     -54.736-100.905 -42.641  0.00  0.00    -0.051 NA
ATOM      2  C   UNL d   1     -54.738-101.693 -42.411  0.00  0.00     0.760 A 
ATOM      3  C   UNL d   1     -54.765-100.889 -43.471  0.00  0.00     0.147 A 
ATOM      4  N   UNL d   1     -54.767-102.171 -43.094  0.00  0.00    -0.019 NA
ATOM      5  S   UNL d   1     -54.783-101.666 -43.739  0.00  0.00     0.052 SA
ENDROOT
BRANCH   2   6
ATOM      6  N   UNL d   1     -54.717-102.052 -41.660  0.00  0.00    -0.018 NA
ATOM      7  C   UNL d   1     -54.769-101.595 -40.975  0.00  0.00     0.301 C 
ATOM      8  O   UNL d   1     -54.844-100.770 -41.035  0.00  0.00    -0.264 OA
BRANCH   7   9
ATOM      9  C   UNL d   1     -54.748-101.955 -40.234  0.00  0.00     0.088 A 
ATOM     10  S   UNL d   1     -54.730-101.557 -39.501  0.00  0.00    -0.082 SA
ATOM     11  C   UNL d   1     -54.711-102.133 -38.900  0.00  0.00     0.036 A 
ATOM     12  C   UNL d   1     -54.717-102.875 -39.259  0.00  0.00     0.008 A 
ATOM     13  C   UNL d   1     -54.739-102.764 -40.078  0.00  0.00     0.012 A 
ENDBRANCH   7   9
ENDBRANCH   2   6
BRANCH   3  14
ATOM     14  C   UNL d   1     -54.772-100.207 -43.931  0.00  0.00     0.026 A 
ATOM     15  C   UNL d   1     -54.830-100.273 -44.761  0.00  0.00     0.002 A 
ATOM     16  C   UNL d   1     -54.838 -99.586 -45.228  0.00  0.00     0.000 A 
ATOM     17  C   UNL d   1     -54.788 -98.845 -44.871  0.00  0.00     0.000 A 
ATOM     18  C   UNL d   1     -54.730 -98.773 -44.052  0.00  0.00     0.000 A 
ATOM     19  C   UNL d   1     -54.722 -99.452 -43.581  0.00  0.00     0.002 A 
ENDBRANCH   3  14
TORSDOF 3
ENDMDL
MODEL 2
REMARK VINA RESULT:      31.9      1.113      4.692
REMARK  3 active torsions:
REMARK  status: ('A' for Active; 'I' for Inactive)
REMARK    1  A    between atoms: N_4  and  C_2 
REMARK    2  A    between atoms: C_10  and  C_3 
REMARK       I    between atoms: C_7  and  N_4 
REMARK    3  A    between atoms: C_8  and  C_7 
ROOT
ATOM      1  N   UNL d   1     -54.756-101.526 -40.791  0.00  0.00    -0.051 NA
ATOM      2  C   UNL d   1     -54.738-101.799 -41.565  0.00  0.00     0.760 A 
ATOM      3  C   UNL d   1     -54.778-102.192 -40.294  0.00  0.00     0.147 A 
ATOM      4  N   UNL d   1     -54.748-102.633 -41.555  0.00  0.00    -0.019 NA
ATOM      5  S   UNL d   1     -54.773-102.862 -40.770  0.00  0.00     0.052 SA
ENDROOT
BRANCH   2   6
ATOM      6  N   UNL d   1     -54.712-101.398 -42.294  0.00  0.00    -0.018 NA
ATOM      7  C   UNL d   1     -55.136-101.679 -42.943  0.00  0.00     0.301 C 
ATOM      8  O   UNL d   1     -55.593-102.369 -42.869  0.00  0.00    -0.264 OA
BRANCH   7   9
ATOM      9  C   UNL d   1     -55.108-101.278 -43.663  0.00  0.00     0.088 A 
ATOM     10  S   UNL d   1     -54.734-101.551 -44.357  0.00  0.00    -0.082 SA
ATOM     11  C   UNL d   1     -54.842-100.974 -44.947  0.00  0.00     0.036 A 
ATOM     12  C   UNL d   1     -55.276-100.354 -44.620  0.00  0.00     0.008 A 
ATOM     13  C   UNL d   1     -55.439-100.543 -43.831  0.00  0.00     0.012 A 
ENDBRANCH   7   9
ENDBRANCH   2   6
BRANCH   3  14
ATOM     14  C   UNL d   1     -54.801-102.167 -39.472  0.00  0.00     0.026 A 
ATOM     15  C   UNL d   1     -54.863-102.880 -39.043  0.00  0.00     0.002 A 
ATOM     16  C   UNL d   1     -54.886-102.858 -38.213  0.00  0.00     0.000 A 
ATOM     17  C   UNL d   1     -54.848-102.137 -37.819  0.00  0.00     0.000 A 
ATOM     18  C   UNL d   1     -54.787-101.429 -38.237  0.00  0.00     0.000 A 
ATOM     19  C   UNL d   1     -54.764-101.442 -39.062  0.00  0.00     0.002 A 
ENDBRANCH   3  14
TORSDOF 3
ENDMDL
