MODEL 1
REMARK VINA RESULT:      -5.8      0.000      0.000
REMARK  6 active torsions:
REMARK  status: ('A' for Active; 'I' for Inactive)
REMARK    1  A    between atoms: N_2  and  S_1 
REMARK    2  A    between atoms: C_4  and  S_1 
REMARK    3  A    between atoms: C_3  and  N_2 
REMARK    4  A    between atoms: N_7  and  C_3 
REMARK    5  A    between atoms: C_14  and  N_7 
REMARK    6  A    between atoms: C_15  and  C_13 
ROOT
ATOM      1  S   UNL d   1      57.143  -0.402  31.304  0.00  0.00     0.287 S 
ATOM      2  O   UNL d   1      57.015  -1.220  31.400  0.00  0.00    -0.198 OA
ATOM      3  O   UNL d   1      57.270   0.408  31.210  0.00  0.00    -0.198 OA
ENDROOT
BRANCH   1   4
ATOM      4  N   UNL d   1      57.643  -0.556  30.661  0.00  0.00    -0.128 NA
BRANCH   4   5
ATOM      5  C   UNL d   1      58.217  -0.290  30.135  0.00  0.00     0.232 C 
ATOM      6  S   UNL d   1      58.801   0.235  30.388  0.00  0.00    -0.036 SA
BRANCH   5   7
ATOM      7  N   UNL d   1      58.208  -0.551  29.353  0.00  0.00    -0.217 NA
BRANCH   7   8
ATOM      8  C   UNL d   1      58.854  -0.969  29.056  0.00  0.00     0.084 A 
ATOM      9  C   UNL d   1      58.844  -1.793  29.066  0.00  0.00     0.019 A 
ATOM     10  C   UNL d   1      59.487  -2.214  28.771  0.00  0.00     0.002 A 
ATOM     11  C   UNL d   1      60.136  -1.814  28.466  0.00  0.00     0.000 A 
ATOM     12  C   UNL d   1      60.146  -0.992  28.456  0.00  0.00     0.002 A 
ATOM     13  C   UNL d   1      59.506  -0.568  28.750  0.00  0.00     0.019 A 
ENDBRANCH   7   8
ENDBRANCH   5   7
ENDBRANCH   4   5
ENDBRANCH   1   4
BRANCH   1  14
ATOM     14  C   UNL d   1      56.640  -0.248  31.951  0.00  0.00     0.105 A 
ATOM     15  C   UNL d   1      56.318  -0.879  32.374  0.00  0.00     0.013 A 
ATOM     16  C   UNL d   1      55.814  -0.733  33.022  0.00  0.00     0.001 A 
ATOM     17  C   UNL d   1      55.636   0.052  33.242  0.00  0.00     0.000 A 
ATOM     18  C   UNL d   1      55.963   0.681  32.812  0.00  0.00     0.001 A 
ATOM     19  C   UNL d   1      56.462   0.537  32.171  0.00  0.00     0.013 A 
BRANCH  17  20
ATOM     20  C   UNL d   1      55.138   0.200  33.882  0.00  0.00     0.000 C 
ATOM     21  C   UNL d   1      54.468   0.675  34.016  0.00  0.00     0.000 C 
ENDBRANCH  17  20
ENDBRANCH   1  14
TORSDOF 6
ENDMDL
MODEL 2
REMARK VINA RESULT:      -4.1      1.102      5.175
REMARK  6 active torsions:
REMARK  status: ('A' for Active; 'I' for Inactive)
REMARK    1  A    between atoms: N_2  and  S_1 
REMARK    2  A    between atoms: C_4  and  S_1 
REMARK    3  A    between atoms: C_3  and  N_2 
REMARK    4  A    between atoms: N_7  and  C_3 
REMARK    5  A    between atoms: C_14  and  N_7 
REMARK    6  A    between atoms: C_15  and  C_13 
ROOT
ATOM      1  S   UNL d   1      57.371   0.091  31.043  0.00  0.00     0.287 S 
ATOM      2  O   UNL d   1      57.733  -0.506  31.499  0.00  0.00    -0.198 OA
ATOM      3  O   UNL d   1      57.014   0.682  30.591  0.00  0.00    -0.198 OA
ENDROOT
BRANCH   1   4
ATOM      4  N   UNL d   1      56.839   0.240  31.660  0.00  0.00    -0.128 NA
BRANCH   4   5
ATOM      5  C   UNL d   1      56.574   0.068  32.420  0.00  0.00     0.232 C 
ATOM      6  S   UNL d   1      56.327  -0.696  32.609  0.00  0.00    -0.036 SA
BRANCH   5   7
ATOM      7  N   UNL d   1      56.557   0.661  32.992  0.00  0.00    -0.217 NA
BRANCH   7   8
ATOM      8  C   UNL d   1      55.952   0.668  33.554  0.00  0.00     0.084 A 
ATOM      9  C   UNL d   1      55.167   0.675  33.305  0.00  0.00     0.019 A 
ATOM     10  C   UNL d   1      54.561   0.682  33.863  0.00  0.00     0.002 A 
ATOM     11  C   UNL d   1      54.739   0.681  34.664  0.00  0.00     0.000 A 
ATOM     12  C   UNL d   1      55.523   0.673  34.912  0.00  0.00     0.002 A 
ATOM     13  C   UNL d   1      56.131   0.666  34.359  0.00  0.00     0.019 A 
ENDBRANCH   7   8
ENDBRANCH   5   7
ENDBRANCH   4   5
ENDBRANCH   1   4
BRANCH   1  14
ATOM     14  C   UNL d   1      57.907  -0.060  30.422  0.00  0.00     0.105 A 
ATOM     15  C   UNL d   1      58.267   0.573  30.034  0.00  0.00     0.013 A 
ATOM     16  C   UNL d   1      58.804   0.430  29.412  0.00  0.00     0.001 A 
ATOM     17  C   UNL d   1      58.977  -0.353  29.183  0.00  0.00     0.000 A 
ATOM     18  C   UNL d   1      58.611  -0.984  29.578  0.00  0.00     0.001 A 
ATOM     19  C   UNL d   1      58.080  -0.843  30.193  0.00  0.00     0.013 A 
BRANCH  17  20
ATOM     20  C   UNL d   1      59.507  -0.499  28.569  0.00  0.00     0.000 C 
ATOM     21  C   UNL d   1      60.325  -0.636  28.511  0.00  0.00     0.000 C 
ENDBRANCH  17  20
ENDBRANCH   1  14
TORSDOF 6
ENDMDL
MODEL 3
REMARK VINA RESULT:      -4.0      0.887      5.046
REMARK  6 active torsions:
REMARK  status: ('A' for Active; 'I' for Inactive)
REMARK    1  A    between atoms: N_2  and  S_1 
REMARK    2  A    between atoms: C_4  and  S_1 
REMARK    3  A    between atoms: C_3  and  N_2 
REMARK    4  A    between atoms: N_7  and  C_3 
REMARK    5  A    between atoms: C_14  and  N_7 
REMARK    6  A    between atoms: C_15  and  C_13 
ROOT
ATOM      1  S   UNL d   1      57.726  -0.719  30.560  0.00  0.00     0.287 S 
ATOM      2  O   UNL d   1      57.695   0.002  30.142  0.00  0.00    -0.198 OA
ATOM      3  O   UNL d   1      57.757  -1.432  30.974  0.00  0.00    -0.198 OA
ENDROOT
BRANCH   1   4
ATOM      4  N   UNL d   1      57.149  -0.438  31.085  0.00  0.00    -0.128 NA
BRANCH   4   5
ATOM      5  C   UNL d   1      56.961  -0.099  31.811  0.00  0.00     0.232 C 
ATOM      6  S   UNL d   1      57.173   0.682  31.971  0.00  0.00    -0.036 SA
BRANCH   5   7
ATOM      7  N   UNL d   1      56.559  -0.542  32.378  0.00  0.00    -0.217 NA
BRANCH   7   8
ATOM      8  C   UNL d   1      56.147  -0.156  32.980  0.00  0.00     0.084 A 
ATOM      9  C   UNL d   1      55.324  -0.199  33.001  0.00  0.00     0.019 A 
ATOM     10  C   UNL d   1      54.910   0.186  33.599  0.00  0.00     0.002 A 
ATOM     11  C   UNL d   1      55.314   0.610  34.174  0.00  0.00     0.000 A 
ATOM     12  C   UNL d   1      56.136   0.652  34.152  0.00  0.00     0.002 A 
ATOM     13  C   UNL d   1      56.553   0.270  33.557  0.00  0.00     0.019 A 
ENDBRANCH   7   8
ENDBRANCH   5   7
ENDBRANCH   4   5
ENDBRANCH   1   4
BRANCH   1  14
ATOM     14  C   UNL d   1      58.306  -1.001  30.032  0.00  0.00     0.105 A 
ATOM     15  C   UNL d   1      58.283  -1.787  29.784  0.00  0.00     0.013 A 
ATOM     16  C   UNL d   1      58.860  -2.076  29.256  0.00  0.00     0.001 A 
ATOM     17  C   UNL d   1      59.460  -1.568  28.978  0.00  0.00     0.000 A 
ATOM     18  C   UNL d   1      59.477  -0.778  29.231  0.00  0.00     0.001 A 
ATOM     19  C   UNL d   1      58.907  -0.493  29.754  0.00  0.00     0.013 A 
BRANCH  17  20
ATOM     20  C   UNL d   1      60.033  -1.850  28.455  0.00  0.00     0.000 C 
ATOM     21  C   UNL d   1      60.728  -2.301  28.523  0.00  0.00     0.000 C 
ENDBRANCH  17  20
ENDBRANCH   1  14
TORSDOF 6
ENDMDL
