MODEL 1
REMARK VINA RESULT:      -2.6      0.000      0.000
REMARK  3 active torsions:
REMARK  status: ('A' for Active; 'I' for Inactive)
REMARK    1  A    between atoms: C_7  and  C_1 
REMARK    2  A    between atoms: C_9  and  C_6 
REMARK    3  A    between atoms: O_13  and  C_7 
ROOT
ATOM      1  C   UNL d   1      59.818  -0.966  29.200  0.00  0.00     0.097 A 
ATOM      2  C   UNL d   1      60.314  -1.559  28.920  0.00  0.00     0.073 A 
ATOM      3  C   UNL d   1      59.202  -2.450  28.837  0.00  0.00     0.206 A 
ATOM      4  N   UNL d   1      60.013  -2.301  28.737  0.00  0.00    -0.280 N 
ATOM      5  N   UNL d   1      58.706  -1.857  29.117  0.00  0.00    -0.218 NA
ATOM      6  C   UNL d   1      59.010  -1.103  29.304  0.00  0.00     0.090 A 
ATOM      7  S   UNL d   1      58.898  -3.195  28.654  0.00  0.00    -0.038 SA
ATOM      8  C   UNL d   1      61.133  -1.403  28.820  0.00  0.00     0.019 C 
ATOM      9  C   UNL d   1      60.511  -2.897  28.456  0.00  0.00     0.101 C 
ENDROOT
BRANCH   6  10
ATOM     10  C   UNL d   1      58.508  -0.504  29.587  0.00  0.00     0.018 A 
ATOM     11  C   UNL d   1      58.267  -0.514  30.376  0.00  0.00     0.002 A 
ATOM     12  C   UNL d   1      57.771   0.078  30.656  0.00  0.00     0.000 A 
ATOM     13  C   UNL d   1      57.516   0.682  30.147  0.00  0.00     0.000 A 
ATOM     14  C   UNL d   1      57.762   0.682  29.363  0.00  0.00     0.000 A 
ATOM     15  C   UNL d   1      58.258   0.089  29.083  0.00  0.00     0.002 A 
ENDBRANCH   6  10
BRANCH   1  16
ATOM     16  C   UNL d   1      60.131  -0.204  29.387  0.00  0.00     0.299 C 
ATOM     17  O   UNL d   1      60.085   0.413  28.832  0.00  0.00    -0.259 OA
BRANCH  16  18
ATOM     18  O   UNL d   1      60.482  -0.083  30.129  0.00  0.00    -0.296 OA
ATOM     19  C   UNL d   1      61.077   0.475  30.225  0.00  0.00     0.185 C 
ENDBRANCH  16  18
ENDBRANCH   1  16
TORSDOF 3
ENDMDL
MODEL 2
REMARK VINA RESULT:      -1.7      1.189      2.352
REMARK  3 active torsions:
REMARK  status: ('A' for Active; 'I' for Inactive)
REMARK    1  A    between atoms: C_7  and  C_1 
REMARK    2  A    between atoms: C_9  and  C_6 
REMARK    3  A    between atoms: O_13  and  C_7 
ROOT
ATOM      1  C   UNL d   1      59.516  -1.813  28.929  0.00  0.00     0.097 A 
ATOM      2  C   UNL d   1      59.247  -2.578  28.797  0.00  0.00     0.073 A 
ATOM      3  C   UNL d   1      60.595  -3.029  28.670  0.00  0.00     0.206 A 
ATOM      4  N   UNL d   1      59.781  -3.190  28.667  0.00  0.00    -0.280 N 
ATOM      5  N   UNL d   1      60.864  -2.264  28.801  0.00  0.00    -0.218 NA
ATOM      6  C   UNL d   1      60.324  -1.642  28.934  0.00  0.00     0.090 A 
ATOM      7  S   UNL d   1      61.133  -3.642  28.539  0.00  0.00    -0.038 SA
ATOM      8  C   UNL d   1      58.422  -2.735  28.796  0.00  0.00     0.019 C 
ATOM      9  C   UNL d   1      59.511  -3.959  28.535  0.00  0.00     0.101 C 
ENDROOT
BRANCH   6  10
ATOM     10  C   UNL d   1      60.596  -0.868  29.067  0.00  0.00     0.018 A 
ATOM     11  C   UNL d   1      60.865  -0.654  29.817  0.00  0.00     0.002 A 
ATOM     12  C   UNL d   1      61.133   0.112  29.949  0.00  0.00     0.000 A 
ATOM     13  C   UNL d   1      61.133   0.665  29.330  0.00  0.00     0.000 A 
ATOM     14  C   UNL d   1      60.863   0.440  28.587  0.00  0.00     0.000 A 
ATOM     15  C   UNL d   1      60.595  -0.325  28.455  0.00  0.00     0.002 A 
ENDBRANCH   6  10
BRANCH   1  16
ATOM     16  C   UNL d   1      58.965  -1.187  29.062  0.00  0.00     0.299 C 
ATOM     17  O   UNL d   1      58.806  -0.636  28.461  0.00  0.00    -0.259 OA
BRANCH  16  18
ATOM     18  O   UNL d   1      58.587  -1.132  29.799  0.00  0.00    -0.296 OA
ATOM     19  C   UNL d   1      57.901  -0.688  29.887  0.00  0.00     0.185 C 
ENDBRANCH  16  18
ENDBRANCH   1  16
TORSDOF 3
ENDMDL
MODEL 3
REMARK VINA RESULT:      -1.4      1.529      2.965
REMARK  3 active torsions:
REMARK  status: ('A' for Active; 'I' for Inactive)
REMARK    1  A    between atoms: C_7  and  C_1 
REMARK    2  A    between atoms: C_9  and  C_6 
REMARK    3  A    between atoms: O_13  and  C_7 
ROOT
ATOM      1  C   UNL d   1      58.890  -0.725  29.813  0.00  0.00     0.097 A 
ATOM      2  C   UNL d   1      58.649  -0.043  30.204  0.00  0.00     0.073 A 
ATOM      3  C   UNL d   1      57.625  -0.783  30.866  0.00  0.00     0.206 A 
ATOM      4  N   UNL d   1      58.019  -0.065  30.730  0.00  0.00    -0.280 N 
ATOM      5  N   UNL d   1      57.866  -1.465  30.476  0.00  0.00    -0.218 NA
ATOM      6  C   UNL d   1      58.505  -1.445  29.942  0.00  0.00     0.090 A 
ATOM      7  S   UNL d   1      56.992  -0.808  31.395  0.00  0.00    -0.038 SA
ATOM      8  C   UNL d   1      59.051   0.681  30.062  0.00  0.00     0.019 C 
ATOM      9  C   UNL d   1      57.777   0.620  31.122  0.00  0.00     0.101 C 
ENDROOT
BRANCH   6  10
ATOM     10  C   UNL d   1      58.748  -2.135  29.547  0.00  0.00     0.018 A 
ATOM     11  C   UNL d   1      58.374  -2.356  28.846  0.00  0.00     0.002 A 
ATOM     12  C   UNL d   1      58.614  -3.039  28.456  0.00  0.00     0.000 A 
ATOM     13  C   UNL d   1      59.230  -3.500  28.767  0.00  0.00     0.000 A 
ATOM     14  C   UNL d   1      59.596  -3.270  29.466  0.00  0.00     0.000 A 
ATOM     15  C   UNL d   1      59.355  -2.587  29.856  0.00  0.00     0.002 A 
ENDBRANCH   6  10
BRANCH   1  16
ATOM     16  C   UNL d   1      59.538  -0.698  29.273  0.00  0.00     0.299 C 
ATOM     17  O   UNL d   1      59.399  -0.610  28.459  0.00  0.00    -0.259 OA
BRANCH  16  18
ATOM     18  O   UNL d   1      60.311  -0.761  29.567  0.00  0.00    -0.296 OA
ATOM     19  C   UNL d   1      60.948  -0.461  29.142  0.00  0.00     0.185 C 
ENDBRANCH  16  18
ENDBRANCH   1  16
TORSDOF 3
ENDMDL
MODEL 4
REMARK VINA RESULT:      -1.1      1.935      3.150
REMARK  3 active torsions:
REMARK  status: ('A' for Active; 'I' for Inactive)
REMARK    1  A    between atoms: C_7  and  C_1 
REMARK    2  A    between atoms: C_9  and  C_6 
REMARK    3  A    between atoms: O_13  and  C_7 
ROOT
ATOM      1  C   UNL d   1      58.565  -0.799  29.957  0.00  0.00     0.097 A 
ATOM      2  C   UNL d   1      57.910  -1.016  30.404  0.00  0.00     0.073 A 
ATOM      3  C   UNL d   1      58.027   0.189  31.159  0.00  0.00     0.206 A 
ATOM      4  N   UNL d   1      57.637  -0.527  31.006  0.00  0.00    -0.280 N 
ATOM      5  N   UNL d   1      58.681   0.406  30.712  0.00  0.00    -0.218 NA
ATOM      6  C   UNL d   1      58.960  -0.089  30.101  0.00  0.00     0.090 A 
ATOM      7  S   UNL d   1      57.754   0.682  31.763  0.00  0.00    -0.038 SA
ATOM      8  C   UNL d   1      57.519  -1.742  30.245  0.00  0.00     0.019 C 
ATOM      9  C   UNL d   1      56.979  -0.745  31.455  0.00  0.00     0.101 C 
ENDROOT
BRANCH   6  10
ATOM     10  C   UNL d   1      59.622   0.131  29.649  0.00  0.00     0.018 A 
ATOM     11  C   UNL d   1      59.512   0.465  28.902  0.00  0.00     0.002 A 
ATOM     12  C   UNL d   1      60.167   0.682  28.455  0.00  0.00     0.000 A 
ATOM     13  C   UNL d   1      60.932   0.565  28.754  0.00  0.00     0.000 A 
ATOM     14  C   UNL d   1      61.029   0.231  29.498  0.00  0.00     0.000 A 
ATOM     15  C   UNL d   1      60.375   0.014  29.946  0.00  0.00     0.002 A 
ENDBRANCH   6  10
BRANCH   1  16
ATOM     16  C   UNL d   1      58.843  -1.304  29.340  0.00  0.00     0.299 C 
ATOM     17  O   UNL d   1      58.642  -1.146  28.549  0.00  0.00    -0.259 OA
BRANCH  16  18
ATOM     18  O   UNL d   1      59.317  -1.956  29.535  0.00  0.00    -0.296 OA
ATOM     19  C   UNL d   1      59.337  -2.621  29.052  0.00  0.00     0.185 C 
ENDBRANCH  16  18
ENDBRANCH   1  16
TORSDOF 3
ENDMDL
MODEL 5
REMARK VINA RESULT:      -0.7      2.014      2.641
REMARK  3 active torsions:
REMARK  status: ('A' for Active; 'I' for Inactive)
REMARK    1  A    between atoms: C_7  and  C_1 
REMARK    2  A    between atoms: C_9  and  C_6 
REMARK    3  A    between atoms: O_13  and  C_7 
ROOT
ATOM      1  C   UNL d   1      58.977  -0.042  29.755  0.00  0.00     0.097 A 
ATOM      2  C   UNL d   1      59.711   0.050  29.396  0.00  0.00     0.073 A 
ATOM      3  C   UNL d   1      60.274   0.440  30.647  0.00  0.00     0.206 A 
ATOM      4  N   UNL d   1      60.362   0.290  29.836  0.00  0.00    -0.280 N 
ATOM      5  N   UNL d   1      59.540   0.349  31.006  0.00  0.00    -0.218 NA
ATOM      6  C   UNL d   1      58.878   0.106  30.561  0.00  0.00     0.090 A 
ATOM      7  S   UNL d   1      60.926   0.682  31.091  0.00  0.00    -0.038 SA
ATOM      8  C   UNL d   1      59.794  -0.104  28.574  0.00  0.00     0.019 C 
ATOM      9  C   UNL d   1      61.099   0.381  29.476  0.00  0.00     0.101 C 
ENDROOT
BRANCH   6  10
ATOM     10  C   UNL d   1      58.136   0.013  30.924  0.00  0.00     0.018 A 
ATOM     11  C   UNL d   1      57.702   0.682  31.139  0.00  0.00     0.002 A 
ATOM     12  C   UNL d   1      56.968   0.591  31.497  0.00  0.00     0.000 A 
ATOM     13  C   UNL d   1      56.667  -0.169  31.642  0.00  0.00     0.000 A 
ATOM     14  C   UNL d   1      57.108  -0.827  31.424  0.00  0.00     0.000 A 
ATOM     15  C   UNL d   1      57.842  -0.736  31.065  0.00  0.00     0.002 A 
ENDBRANCH   6  10
BRANCH   1  16
ATOM     16  C   UNL d   1      58.310  -0.288  29.299  0.00  0.00     0.299 C 
ATOM     17  O   UNL d   1      57.804   0.277  28.959  0.00  0.00    -0.259 OA
BRANCH  16  18
ATOM     18  O   UNL d   1      58.169  -1.100  29.197  0.00  0.00    -0.296 OA
ATOM     19  C   UNL d   1      57.972  -1.402  28.459  0.00  0.00     0.185 C 
ENDBRANCH  16  18
ENDBRANCH   1  16
TORSDOF 3
ENDMDL
MODEL 6
REMARK VINA RESULT:       0.1      3.724      4.950
REMARK  3 active torsions:
REMARK  status: ('A' for Active; 'I' for Inactive)
REMARK    1  A    between atoms: C_7  and  C_1 
REMARK    2  A    between atoms: C_9  and  C_6 
REMARK    3  A    between atoms: O_13  and  C_7 
ROOT
ATOM      1  C   UNL d   1      56.453  -0.847  32.375  0.00  0.00     0.097 A 
ATOM      2  C   UNL d   1      56.846  -1.101  31.699  0.00  0.00     0.073 A 
ATOM      3  C   UNL d   1      57.478   0.173  31.588  0.00  0.00     0.206 A 
ATOM      4  N   UNL d   1      57.359  -0.597  31.302  0.00  0.00    -0.280 N 
ATOM      5  N   UNL d   1      57.084   0.427  32.263  0.00  0.00    -0.218 NA
ATOM      6  C   UNL d   1      56.563  -0.083  32.668  0.00  0.00     0.090 A 
ATOM      7  S   UNL d   1      57.993   0.682  31.191  0.00  0.00    -0.038 SA
ATOM      8  C   UNL d   1      56.722  -1.882  31.414  0.00  0.00     0.019 C 
ATOM      9  C   UNL d   1      57.755  -0.852  30.623  0.00  0.00     0.101 C 
ENDROOT
BRANCH   6  10
ATOM     10  C   UNL d   1      56.165   0.174  33.351  0.00  0.00     0.018 A 
ATOM     11  C   UNL d   1      56.564   0.187  34.073  0.00  0.00     0.002 A 
ATOM     12  C   UNL d   1      56.170   0.441  34.749  0.00  0.00     0.000 A 
ATOM     13  C   UNL d   1      55.378   0.682  34.702  0.00  0.00     0.000 A 
ATOM     14  C   UNL d   1      54.991   0.664  33.977  0.00  0.00     0.000 A 
ATOM     15  C   UNL d   1      55.385   0.410  33.302  0.00  0.00     0.002 A 
ENDBRANCH   6  10
BRANCH   1  16
ATOM     16  C   UNL d   1      55.926  -1.369  32.780  0.00  0.00     0.299 C 
ATOM     17  O   UNL d   1      55.110  -1.339  32.627  0.00  0.00    -0.259 OA
BRANCH  16  18
ATOM     18  O   UNL d   1      56.236  -1.907  33.329  0.00  0.00    -0.296 OA
ATOM     19  C   UNL d   1      55.842  -2.610  33.497  0.00  0.00     0.185 C 
ENDBRANCH  16  18
ENDBRANCH   1  16
TORSDOF 3
ENDMDL
MODEL 7
REMARK VINA RESULT:       0.3      1.919      3.176
REMARK  3 active torsions:
REMARK  status: ('A' for Active; 'I' for Inactive)
REMARK    1  A    between atoms: C_7  and  C_1 
REMARK    2  A    between atoms: C_9  and  C_6 
REMARK    3  A    between atoms: O_13  and  C_7 
ROOT
ATOM      1  C   UNL d   1      58.121  -0.244  31.011  0.00  0.00     0.097 A 
ATOM      2  C   UNL d   1      57.788   0.001  31.721  0.00  0.00     0.073 A 
ATOM      3  C   UNL d   1      56.866  -1.087  31.664  0.00  0.00     0.206 A 
ATOM      4  N   UNL d   1      57.161  -0.415  32.052  0.00  0.00    -0.280 N 
ATOM      5  N   UNL d   1      57.200  -1.332  30.953  0.00  0.00    -0.218 NA
ATOM      6  C   UNL d   1      57.836  -0.911  30.616  0.00  0.00     0.090 A 
ATOM      7  S   UNL d   1      56.237  -1.506  31.994  0.00  0.00    -0.038 SA
ATOM      8  C   UNL d   1      58.091   0.682  32.109  0.00  0.00     0.019 C 
ATOM      9  C   UNL d   1      56.826  -0.169  32.765  0.00  0.00     0.101 C 
ENDROOT
BRANCH   6  10
ATOM     10  C   UNL d   1      58.173  -1.159  29.898  0.00  0.00     0.018 A 
ATOM     11  C   UNL d   1      58.712  -1.784  29.896  0.00  0.00     0.002 A 
ATOM     12  C   UNL d   1      59.046  -2.029  29.186  0.00  0.00     0.000 A 
ATOM     13  C   UNL d   1      58.840  -1.650  28.477  0.00  0.00     0.000 A 
ATOM     14  C   UNL d   1      58.302  -1.029  28.491  0.00  0.00     0.000 A 
ATOM     15  C   UNL d   1      57.968  -0.784  29.201  0.00  0.00     0.002 A 
ENDBRANCH   6  10
BRANCH   1  16
ATOM     16  C   UNL d   1      58.765   0.186  30.674  0.00  0.00     0.299 C 
ATOM     17  O   UNL d   1      58.638   0.682  30.019  0.00  0.00    -0.259 OA
BRANCH  16  18
ATOM     18  O   UNL d   1      59.521   0.105  31.005  0.00  0.00    -0.296 OA
ATOM     19  C   UNL d   1      60.096   0.681  30.884  0.00  0.00     0.185 C 
ENDBRANCH  16  18
ENDBRANCH   1  16
TORSDOF 3
ENDMDL
