MODEL 1
REMARK VINA RESULT:      -0.7      0.000      0.000
REMARK  4 active torsions:
REMARK  status: ('A' for Active; 'I' for Inactive)
REMARK    1  A    between atoms: N_6  and  C_1 
REMARK    2  A    between atoms: C_7  and  N_2 
REMARK       I    between atoms: C_8  and  N_6 
REMARK    3  A    between atoms: C_19  and  C_8 
REMARK    4  A    between atoms: O_20  and  C_15 
ROOT
ATOM      1  C   UNL d   1      33.003  22.115 -21.704  0.00  0.00     0.169 A 
ATOM      2  N   UNL d   1      32.722  22.841 -21.411  0.00  0.00    -0.212 N 
ATOM      3  N   UNL d   1      32.531  23.301 -22.068  0.00  0.00    -0.163 NA
ATOM      4  C   UNL d   1      32.976  22.148 -22.517  0.00  0.00     0.062 A 
ATOM      5  C   UNL d   1      32.685  22.880 -22.766  0.00  0.00     0.111 A 
ATOM      6  S   UNL d   1      32.935  22.197 -23.856  0.00  0.00    -0.084 SA
ATOM      7  C   UNL d   1      33.139  21.703 -23.222  0.00  0.00     0.040 A 
ATOM      8  C   UNL d   1      32.664  22.898 -23.603  0.00  0.00     0.056 A 
ENDROOT
BRANCH   2   9
ATOM      9  C   UNL d   1      32.652  23.053 -20.649  0.00  0.00     0.085 A 
ATOM     10  C   UNL d   1      33.237  23.467 -20.282  0.00  0.00     0.021 A 
ATOM     11  C   UNL d   1      33.172  23.691 -19.489  0.00  0.00     0.026 A 
ATOM     12  C   UNL d   1      32.516  23.499 -19.063  0.00  0.00     0.094 A 
ATOM     13  C   UNL d   1      31.913  23.076 -19.429  0.00  0.00     0.026 A 
ATOM     14  C   UNL d   1      31.979  22.852 -20.223  0.00  0.00     0.021 A 
BRANCH  12  15
ATOM     15  O   UNL d   1      32.423  23.688 -18.335  0.00  0.00    -0.328 OA
ATOM     16  C   UNL d   1      32.648  23.087 -17.657  0.00  0.00     0.181 C 
ENDBRANCH  12  15
ENDBRANCH   2   9
BRANCH   1  17
ATOM     17  N   UNL d   1      33.241  21.527 -21.255  0.00  0.00    -0.188 NA
ATOM     18  C   UNL d   1      32.936  20.772 -21.352  0.00  0.00     0.292 C 
ATOM     19  O   UNL d   1      32.359  20.652 -21.949  0.00  0.00    -0.264 OA
BRANCH  18  20
ATOM     20  C   UNL d   1      33.203  20.162 -20.865  0.00  0.00     0.131 C 
ATOM     21 CL   UNL d   1      32.995  19.379 -20.987  0.00  0.00    -0.076 Cl
ENDBRANCH  18  20
ENDBRANCH   1  17
TORSDOF 4
ENDMDL
MODEL 2
REMARK VINA RESULT:      -0.5      2.100      4.121
REMARK  4 active torsions:
REMARK  status: ('A' for Active; 'I' for Inactive)
REMARK    1  A    between atoms: N_6  and  C_1 
REMARK    2  A    between atoms: C_7  and  N_2 
REMARK       I    between atoms: C_8  and  N_6 
REMARK    3  A    between atoms: C_19  and  C_8 
REMARK    4  A    between atoms: O_20  and  C_15 
ROOT
ATOM      1  C   UNL d   1      32.969  21.734 -21.955  0.00  0.00     0.169 A 
ATOM      2  N   UNL d   1      32.765  20.985 -21.657  0.00  0.00    -0.212 N 
ATOM      3  N   UNL d   1      32.531  21.100 -20.875  0.00  0.00    -0.163 NA
ATOM      4  C   UNL d   1      32.857  22.277 -21.360  0.00  0.00     0.062 A 
ATOM      5  C   UNL d   1      32.584  21.903 -20.676  0.00  0.00     0.111 A 
ATOM      6  S   UNL d   1      32.675  23.177 -20.384  0.00  0.00    -0.084 SA
ATOM      7  C   UNL d   1      32.918  23.104 -21.172  0.00  0.00     0.040 A 
ATOM      8  C   UNL d   1      32.474  22.475 -20.074  0.00  0.00     0.056 A 
ENDROOT
BRANCH   2   9
ATOM      9  C   UNL d   1      32.789  20.293 -22.047  0.00  0.00     0.085 A 
ATOM     10  C   UNL d   1      32.403  20.204 -22.748  0.00  0.00     0.021 A 
ATOM     11  C   UNL d   1      32.424  19.487 -23.161  0.00  0.00     0.026 A 
ATOM     12  C   UNL d   1      32.833  18.859 -22.867  0.00  0.00     0.094 A 
ATOM     13  C   UNL d   1      33.229  18.941 -22.151  0.00  0.00     0.026 A 
ATOM     14  C   UNL d   1      33.209  19.658 -21.739  0.00  0.00     0.021 A 
BRANCH  12  15
ATOM     15  O   UNL d   1      32.872  18.189 -23.218  0.00  0.00    -0.328 OA
ATOM     16  C   UNL d   1      32.099  17.779 -23.543  0.00  0.00     0.181 C 
ENDBRANCH  12  15
ENDBRANCH   2   9
BRANCH   1  17
ATOM     17  N   UNL d   1      33.220  21.861 -22.679  0.00  0.00    -0.188 NA
ATOM     18  C   UNL d   1      32.961  22.510 -23.108  0.00  0.00     0.292 C 
ATOM     19  O   UNL d   1      32.417  23.034 -22.742  0.00  0.00    -0.264 OA
BRANCH  18  20
ATOM     20  C   UNL d   1      33.240  22.626 -23.876  0.00  0.00     0.131 C 
ATOM     21 CL   UNL d   1      32.877  23.138 -24.403  0.00  0.00    -0.076 Cl
ENDBRANCH  18  20
ENDBRANCH   1  17
TORSDOF 4
ENDMDL
MODEL 3
REMARK VINA RESULT:      -0.2      1.125      1.614
REMARK  4 active torsions:
REMARK  status: ('A' for Active; 'I' for Inactive)
REMARK    1  A    between atoms: N_6  and  C_1 
REMARK    2  A    between atoms: C_7  and  N_2 
REMARK       I    between atoms: C_8  and  N_6 
REMARK    3  A    between atoms: C_19  and  C_8 
REMARK    4  A    between atoms: O_20  and  C_15 
ROOT
ATOM      1  C   UNL d   1      32.751  22.517 -20.424  0.00  0.00     0.169 A 
ATOM      2  N   UNL d   1      32.506  23.129 -19.917  0.00  0.00    -0.212 N 
ATOM      3  N   UNL d   1      32.154  23.702 -20.394  0.00  0.00    -0.163 NA
ATOM      4  C   UNL d   1      32.547  22.727 -21.184  0.00  0.00     0.062 A 
ATOM      5  C   UNL d   1      32.173  23.464 -21.188  0.00  0.00     0.111 A 
ATOM      6  S   UNL d   1      32.214  23.067 -22.436  0.00  0.00    -0.084 SA
ATOM      7  C   UNL d   1      32.574  22.468 -21.992  0.00  0.00     0.040 A 
ATOM      8  C   UNL d   1      31.970  23.665 -21.976  0.00  0.00     0.056 A 
ENDROOT
BRANCH   2   9
ATOM      9  C   UNL d   1      32.593  23.158 -19.128  0.00  0.00     0.085 A 
ATOM     10  C   UNL d   1      32.130  22.707 -18.648  0.00  0.00     0.021 A 
ATOM     11  C   UNL d   1      32.213  22.731 -17.825  0.00  0.00     0.026 A 
ATOM     12  C   UNL d   1      32.763  23.211 -17.485  0.00  0.00     0.094 A 
ATOM     13  C   UNL d   1      33.240  23.675 -17.967  0.00  0.00     0.026 A 
ATOM     14  C   UNL d   1      33.156  23.651 -18.790  0.00  0.00     0.021 A 
BRANCH  12  15
ATOM     15  O   UNL d   1      32.866  23.257 -16.736  0.00  0.00    -0.328 OA
ATOM     16  C   UNL d   1      32.942  22.484 -16.219  0.00  0.00     0.181 C 
ENDBRANCH  12  15
ENDBRANCH   2   9
BRANCH   1  17
ATOM     17  N   UNL d   1      33.109  21.871 -20.185  0.00  0.00    -0.188 NA
ATOM     18  C   UNL d   1      32.845  21.131 -20.420  0.00  0.00     0.292 C 
ATOM     19  O   UNL d   1      32.177  21.091 -20.925  0.00  0.00    -0.264 OA
BRANCH  18  20
ATOM     20  C   UNL d   1      33.241  20.457 -20.154  0.00  0.00     0.131 C 
ATOM     21 CL   UNL d   1      32.960  19.699 -20.291  0.00  0.00    -0.076 Cl
ENDBRANCH  18  20
ENDBRANCH   1  17
TORSDOF 4
ENDMDL
MODEL 4
REMARK VINA RESULT:       0.5      2.470      4.476
REMARK  4 active torsions:
REMARK  status: ('A' for Active; 'I' for Inactive)
REMARK    1  A    between atoms: N_6  and  C_1 
REMARK    2  A    between atoms: C_7  and  N_2 
REMARK       I    between atoms: C_8  and  N_6 
REMARK    3  A    between atoms: C_19  and  C_8 
REMARK    4  A    between atoms: O_20  and  C_15 
ROOT
ATOM      1  C   UNL d   1      32.995  20.624 -23.143  0.00  0.00     0.169 A 
ATOM      2  N   UNL d   1      32.887  20.066 -23.750  0.00  0.00    -0.212 N 
ATOM      3  N   UNL d   1      32.918  20.483 -24.460  0.00  0.00    -0.163 NA
ATOM      4  C   UNL d   1      33.088  21.354 -23.490  0.00  0.00     0.062 A 
ATOM      5  C   UNL d   1      33.043  21.290 -24.313  0.00  0.00     0.111 A 
ATOM      6  S   UNL d   1      33.241  22.560 -24.056  0.00  0.00    -0.084 SA
ATOM      7  C   UNL d   1      33.216  22.177 -23.322  0.00  0.00     0.040 A 
ATOM      8  C   UNL d   1      33.140  22.049 -24.654  0.00  0.00     0.056 A 
ENDROOT
BRANCH   2   9
ATOM      9  C   UNL d   1      32.776  19.285 -23.665  0.00  0.00     0.085 A 
ATOM     10  C   UNL d   1      33.241  18.856 -23.166  0.00  0.00     0.021 A 
ATOM     11  C   UNL d   1      33.132  18.041 -23.072  0.00  0.00     0.026 A 
ATOM     12  C   UNL d   1      32.553  17.657 -23.480  0.00  0.00     0.094 A 
ATOM     13  C   UNL d   1      32.074  18.087 -23.991  0.00  0.00     0.026 A 
ATOM     14  C   UNL d   1      32.183  18.901 -24.085  0.00  0.00     0.021 A 
BRANCH  12  15
ATOM     15  O   UNL d   1      32.426  16.913 -23.417  0.00  0.00    -0.328 OA
ATOM     16  C   UNL d   1      32.985  16.379 -22.894  0.00  0.00     0.181 C 
ENDBRANCH  12  15
ENDBRANCH   2   9
BRANCH   1  17
ATOM     17  N   UNL d   1      33.002  20.449 -22.386  0.00  0.00    -0.188 NA
ATOM     18  C   UNL d   1      32.542  20.868 -21.852  0.00  0.00     0.292 C 
ATOM     19  O   UNL d   1      32.064  21.492 -22.145  0.00  0.00    -0.264 OA
BRANCH  18  20
ATOM     20  C   UNL d   1      32.565  20.665 -21.052  0.00  0.00     0.131 C 
ATOM     21 CL   UNL d   1      32.151  21.082 -20.481  0.00  0.00    -0.076 Cl
ENDBRANCH  18  20
ENDBRANCH   1  17
TORSDOF 4
ENDMDL
MODEL 5
REMARK VINA RESULT:       0.5      1.966      2.831
REMARK  4 active torsions:
REMARK  status: ('A' for Active; 'I' for Inactive)
REMARK    1  A    between atoms: N_6  and  C_1 
REMARK    2  A    between atoms: C_7  and  N_2 
REMARK       I    between atoms: C_8  and  N_6 
REMARK    3  A    between atoms: C_19  and  C_8 
REMARK    4  A    between atoms: O_20  and  C_15 
ROOT
ATOM      1  C   UNL d   1      33.067  20.615 -22.704  0.00  0.00     0.169 A 
ATOM      2  N   UNL d   1      32.865  20.587 -21.898  0.00  0.00    -0.212 N 
ATOM      3  N   UNL d   1      32.774  19.790 -21.707  0.00  0.00    -0.163 NA
ATOM      4  C   UNL d   1      33.094  19.850 -22.981  0.00  0.00     0.062 A 
ATOM      5  C   UNL d   1      32.914  19.318 -22.374  0.00  0.00     0.111 A 
ATOM      6  S   UNL d   1      33.140  18.593 -23.442  0.00  0.00    -0.084 SA
ATOM      7  C   UNL d   1      33.241  19.382 -23.674  0.00  0.00     0.040 A 
ATOM      8  C   UNL d   1      32.946  18.537 -22.675  0.00  0.00     0.056 A 
ENDROOT
BRANCH   2   9
ATOM      9  C   UNL d   1      32.777  21.204 -21.406  0.00  0.00     0.085 A 
ATOM     10  C   UNL d   1      32.262  21.798 -21.582  0.00  0.00     0.021 A 
ATOM     11  C   UNL d   1      32.165  22.445 -21.075  0.00  0.00     0.026 A 
ATOM     12  C   UNL d   1      32.585  22.494 -20.390  0.00  0.00     0.094 A 
ATOM     13  C   UNL d   1      33.112  21.892 -20.203  0.00  0.00     0.026 A 
ATOM     14  C   UNL d   1      33.210  21.245 -20.709  0.00  0.00     0.021 A 
BRANCH  12  15
ATOM     15  O   UNL d   1      32.519  23.071 -19.905  0.00  0.00    -0.328 OA
ATOM     16  C   UNL d   1      31.824  23.687 -19.991  0.00  0.00     0.181 C 
ENDBRANCH  12  15
ENDBRANCH   2   9
BRANCH   1  17
ATOM     17  N   UNL d   1      33.201  21.272 -23.097  0.00  0.00    -0.188 NA
ATOM     18  C   UNL d   1      33.093  21.308 -23.909  0.00  0.00     0.292 C 
ATOM     19  O   UNL d   1      32.833  20.615 -24.304  0.00  0.00    -0.264 OA
BRANCH  18  20
ATOM     20  C   UNL d   1      33.241  22.016 -24.306  0.00  0.00     0.131 C 
ATOM     21 CL   UNL d   1      32.890  22.198 -25.024  0.00  0.00    -0.076 Cl
ENDBRANCH  18  20
ENDBRANCH   1  17
TORSDOF 4
ENDMDL
MODEL 6
REMARK VINA RESULT:       1.0      3.332      5.504
REMARK  4 active torsions:
REMARK  status: ('A' for Active; 'I' for Inactive)
REMARK    1  A    between atoms: N_6  and  C_1 
REMARK    2  A    between atoms: C_7  and  N_2 
REMARK       I    between atoms: C_8  and  N_6 
REMARK    3  A    between atoms: C_19  and  C_8 
REMARK    4  A    between atoms: O_20  and  C_15 
ROOT
ATOM      1  C   UNL d   1      32.931  19.800 -23.193  0.00  0.00     0.169 A 
ATOM      2  N   UNL d   1      32.725  19.016 -23.012  0.00  0.00    -0.212 N 
ATOM      3  N   UNL d   1      32.676  18.969 -22.191  0.00  0.00    -0.163 NA
ATOM      4  C   UNL d   1      33.002  20.207 -22.491  0.00  0.00     0.062 A 
ATOM      5  C   UNL d   1      32.847  19.707 -21.852  0.00  0.00     0.111 A 
ATOM      6  S   UNL d   1      33.120  20.882 -21.339  0.00  0.00    -0.084 SA
ATOM      7  C   UNL d   1      33.179  20.969 -22.161  0.00  0.00     0.040 A 
ATOM      8  C   UNL d   1      32.924  20.140 -21.139  0.00  0.00     0.056 A 
ENDROOT
BRANCH   2   9
ATOM      9  C   UNL d   1      32.599  18.425 -23.527  0.00  0.00     0.085 A 
ATOM     10  C   UNL d   1      33.177  18.198 -24.040  0.00  0.00     0.021 A 
ATOM     11  C   UNL d   1      33.054  17.583 -24.580  0.00  0.00     0.026 A 
ATOM     12  C   UNL d   1      32.348  17.196 -24.605  0.00  0.00     0.094 A 
ATOM     13  C   UNL d   1      31.753  17.421 -24.085  0.00  0.00     0.026 A 
ATOM     14  C   UNL d   1      31.876  18.036 -23.545  0.00  0.00     0.021 A 
BRANCH  12  15
ATOM     15  O   UNL d   1      32.203  16.630 -25.086  0.00  0.00    -0.328 OA
ATOM     16  C   UNL d   1      32.546  15.776 -24.931  0.00  0.00     0.181 C 
ENDBRANCH  12  15
ENDBRANCH   2   9
BRANCH   1  17
ATOM     17  N   UNL d   1      33.031  20.069 -23.915  0.00  0.00    -0.188 NA
ATOM     18  C   UNL d   1      32.909  20.861 -24.091  0.00  0.00     0.292 C 
ATOM     19  O   UNL d   1      32.673  21.373 -23.470  0.00  0.00    -0.264 OA
BRANCH  18  20
ATOM     20  C   UNL d   1      33.022  21.126 -24.865  0.00  0.00     0.131 C 
ATOM     21 CL   UNL d   1      33.241  21.896 -25.038  0.00  0.00    -0.076 Cl
ENDBRANCH  18  20
ENDBRANCH   1  17
TORSDOF 4
ENDMDL
MODEL 7
REMARK VINA RESULT:       1.0      5.097      6.824
REMARK  4 active torsions:
REMARK  status: ('A' for Active; 'I' for Inactive)
REMARK    1  A    between atoms: N_6  and  C_1 
REMARK    2  A    between atoms: C_7  and  N_2 
REMARK       I    between atoms: C_8  and  N_6 
REMARK    3  A    between atoms: C_19  and  C_8 
REMARK    4  A    between atoms: O_20  and  C_15 
ROOT
ATOM      1  C   UNL d   1      31.849  17.147 -23.771  0.00  0.00     0.169 A 
ATOM      2  N   UNL d   1      31.105  16.776 -23.792  0.00  0.00    -0.212 N 
ATOM      3  N   UNL d   1      31.194  16.050 -23.414  0.00  0.00    -0.163 NA
ATOM      4  C   UNL d   1      32.365  16.647 -23.388  0.00  0.00     0.062 A 
ATOM      5  C   UNL d   1      31.976  15.956 -23.156  0.00  0.00     0.111 A 
ATOM      6  S   UNL d   1      33.218  15.829 -22.758  0.00  0.00    -0.084 SA
ATOM      7  C   UNL d   1      33.170  16.567 -23.130  0.00  0.00     0.040 A 
ATOM      8  C   UNL d   1      32.520  15.453 -22.764  0.00  0.00     0.056 A 
ENDROOT
BRANCH   2   9
ATOM      9  C   UNL d   1      30.438  17.064 -24.113  0.00  0.00     0.085 A 
ATOM     10  C   UNL d   1      29.717  16.809 -23.859  0.00  0.00     0.021 A 
ATOM     11  C   UNL d   1      29.018  17.104 -24.188  0.00  0.00     0.026 A 
ATOM     12  C   UNL d   1      29.043  17.655 -24.774  0.00  0.00     0.094 A 
ATOM     13  C   UNL d   1      29.774  17.921 -25.040  0.00  0.00     0.026 A 
ATOM     14  C   UNL d   1      30.473  17.627 -24.711  0.00  0.00     0.021 A 
BRANCH  12  15
ATOM     15  O   UNL d   1      28.422  17.946 -25.097  0.00  0.00    -0.328 OA
ATOM     16  C   UNL d   1      28.243  18.860 -25.041  0.00  0.00     0.181 C 
ENDBRANCH  12  15
ENDBRANCH   2   9
BRANCH   1  17
ATOM     17  N   UNL d   1      31.995  17.848 -24.073  0.00  0.00    -0.188 NA
ATOM     18  C   UNL d   1      32.434  18.403 -23.657  0.00  0.00     0.292 C 
ATOM     19  O   UNL d   1      32.719  18.193 -22.897  0.00  0.00    -0.264 OA
BRANCH  18  20
ATOM     20  C   UNL d   1      32.578  19.141 -23.997  0.00  0.00     0.131 C 
ATOM     21 CL   UNL d   1      32.955  19.745 -23.592  0.00  0.00    -0.076 Cl
ENDBRANCH  18  20
ENDBRANCH   1  17
TORSDOF 4
ENDMDL
MODEL 8
REMARK VINA RESULT:       1.9      6.420      7.172
REMARK  4 active torsions:
REMARK  status: ('A' for Active; 'I' for Inactive)
REMARK    1  A    between atoms: N_6  and  C_1 
REMARK    2  A    between atoms: C_7  and  N_2 
REMARK       I    between atoms: C_8  and  N_6 
REMARK    3  A    between atoms: C_19  and  C_8 
REMARK    4  A    between atoms: O_20  and  C_15 
ROOT
ATOM      1  C   UNL d   1      29.606  17.169 -24.312  0.00  0.00     0.169 A 
ATOM      2  N   UNL d   1      30.400  17.401 -24.396  0.00  0.00    -0.212 N 
ATOM      3  N   UNL d   1      30.390  18.161 -24.713  0.00  0.00    -0.163 NA
ATOM      4  C   UNL d   1      29.139  17.782 -24.574  0.00  0.00     0.062 A 
ATOM      5  C   UNL d   1      29.608  18.412 -24.829  0.00  0.00     0.111 A 
ATOM      6  S   UNL d   1      28.364  18.788 -25.005  0.00  0.00    -0.084 SA
ATOM      7  C   UNL d   1      28.332  18.023 -24.687  0.00  0.00     0.040 A 
ATOM      8  C   UNL d   1      29.113  19.034 -25.096  0.00  0.00     0.056 A 
ENDROOT
BRANCH   2   9
ATOM      9  C   UNL d   1      31.043  16.975 -24.209  0.00  0.00     0.085 A 
ATOM     10  C   UNL d   1      31.094  16.197 -24.412  0.00  0.00     0.021 A 
ATOM     11  C   UNL d   1      31.761  15.746 -24.221  0.00  0.00     0.026 A 
ATOM     12  C   UNL d   1      32.378  16.078 -23.825  0.00  0.00     0.094 A 
ATOM     13  C   UNL d   1      32.335  16.871 -23.613  0.00  0.00     0.026 A 
ATOM     14  C   UNL d   1      31.668  17.322 -23.805  0.00  0.00     0.021 A 
BRANCH  12  15
ATOM     15  O   UNL d   1      33.003  15.694 -23.635  0.00  0.00    -0.328 OA
ATOM     16  C   UNL d   1      33.159  15.456 -22.746  0.00  0.00     0.181 C 
ENDBRANCH  12  15
ENDBRANCH   2   9
BRANCH   1  17
ATOM     17  N   UNL d   1      29.380  16.481 -24.029  0.00  0.00    -0.188 NA
ATOM     18  C   UNL d   1      28.760  16.428 -23.495  0.00  0.00     0.292 C 
ATOM     19  O   UNL d   1      28.376  17.136 -23.262  0.00  0.00    -0.264 OA
BRANCH  18  20
ATOM     20  C   UNL d   1      28.537  15.687 -23.207  0.00  0.00     0.131 C 
ATOM     21 CL   UNL d   1      27.755  15.490 -23.060  0.00  0.00    -0.076 Cl
ENDBRANCH  18  20
ENDBRANCH   1  17
TORSDOF 4
ENDMDL
