MODEL 1
REMARK VINA RESULT:      -8.5      0.000      0.000
REMARK  6 active torsions:
REMARK  status: ('A' for Active; 'I' for Inactive)
REMARK    1  A    between atoms: C_6  and  C_1 
REMARK    2  A    between atoms: C_9  and  C_2 
REMARK    3  A    between atoms: N_8  and  C_3 
REMARK       I    between atoms: N_7  and  C_6 
REMARK    4  A    between atoms: C_13  and  N_7 
REMARK    5  A    between atoms: C_12  and  N_8 
REMARK    6  A    between atoms: O_19  and  C_14 
ROOT
ATOM      1  C   UNL d   1      52.296  33.243  52.888  0.00  0.00     0.108 A 
ATOM      2  C   UNL d   1      52.952  33.320  53.387  0.00  0.00     0.094 A 
ATOM      3  C   UNL d   1      53.022  32.151  52.769  0.00  0.00     0.194 A 
ATOM      4  N   UNL d   1      53.405  32.635  53.310  0.00  0.00    -0.221 NA
ATOM      5  S   UNL d   1      52.358  32.512  52.515  0.00  0.00    -0.042 SA
ENDROOT
BRANCH   1   6
ATOM      6  C   UNL d   1      51.690  33.787  52.778  0.00  0.00     0.287 C 
ATOM      7  N   UNL d   1      50.907  33.582  52.941  0.00  0.00    -0.206 NA
ATOM      8  O   UNL d   1      51.853  34.556  52.501  0.00  0.00    -0.265 OA
BRANCH   7   9
ATOM      9  C   UNL d   1      50.300  34.121  52.832  0.00  0.00     0.104 A 
ATOM     10  C   UNL d   1      50.009  34.510  53.479  0.00  0.00     0.118 A 
ATOM     11  N   UNL d   1      49.401  35.050  53.366  0.00  0.00    -0.241 NA
ATOM     12  C   UNL d   1      49.111  35.182  52.641  0.00  0.00     0.099 A 
ATOM     13  C   UNL d   1      49.402  34.793  51.994  0.00  0.00     0.022 A 
ATOM     14  C   UNL d   1      50.014  34.244  52.082  0.00  0.00     0.022 A 
ENDBRANCH   7   9
ENDBRANCH   1   6
BRANCH   2  15
ATOM     15  C   UNL d   1      53.049  33.987  53.834  0.00  0.00     0.018 A 
ATOM     16  C   UNL d   1      53.324  34.686  53.487  0.00  0.00     0.002 A 
ATOM     17  C   UNL d   1      53.419  35.363  53.955  0.00  0.00     0.000 A 
ATOM     18  C   UNL d   1      53.238  35.333  54.767  0.00  0.00     0.000 A 
ATOM     19  C   UNL d   1      52.977  34.669  55.097  0.00  0.00     0.000 A 
ATOM     20  C   UNL d   1      52.873  33.975  54.644  0.00  0.00     0.002 A 
ENDBRANCH   2  15
BRANCH   3  21
ATOM     21  N   UNL d   1      53.285  31.421  52.535  0.00  0.00    -0.221 NA
BRANCH  21  22
ATOM     22  C   UNL d   1      53.193  30.774  53.043  0.00  0.00     0.084 A 
ATOM     23  C   UNL d   1      52.497  30.326  53.012  0.00  0.00     0.021 A 
ATOM     24  C   UNL d   1      52.397  29.692  53.503  0.00  0.00     0.026 A 
ATOM     25  C   UNL d   1      53.008  29.500  54.040  0.00  0.00     0.094 A 
ATOM     26  C   UNL d   1      53.669  29.925  54.070  0.00  0.00     0.026 A 
ATOM     27  C   UNL d   1      53.778  30.580  53.566  0.00  0.00     0.021 A 
BRANCH  25  28
ATOM     28  O   UNL d   1      52.925  28.839  54.564  0.00  0.00    -0.328 OA
ATOM     29  C   UNL d   1      53.411  28.749  55.230  0.00  0.00     0.181 C 
ENDBRANCH  25  28
ENDBRANCH  21  22
ENDBRANCH   3  21
TORSDOF 6
ENDMDL
MODEL 2
REMARK VINA RESULT:      -8.4      1.351      4.583
REMARK  6 active torsions:
REMARK  status: ('A' for Active; 'I' for Inactive)
REMARK    1  A    between atoms: C_6  and  C_1 
REMARK    2  A    between atoms: C_9  and  C_2 
REMARK    3  A    between atoms: N_8  and  C_3 
REMARK       I    between atoms: N_7  and  C_6 
REMARK    4  A    between atoms: C_13  and  N_7 
REMARK    5  A    between atoms: C_12  and  N_8 
REMARK    6  A    between atoms: O_19  and  C_14 
ROOT
ATOM      1  C   UNL d   1      52.632  32.788  53.235  0.00  0.00     0.108 A 
ATOM      2  C   UNL d   1      53.049  33.474  53.437  0.00  0.00     0.094 A 
ATOM      3  C   UNL d   1      52.099  33.792  52.571  0.00  0.00     0.194 A 
ATOM      4  N   UNL d   1      52.714  34.101  53.020  0.00  0.00    -0.221 NA
ATOM      5  S   UNL d   1      52.049  33.007  52.697  0.00  0.00    -0.042 SA
ENDROOT
BRANCH   1   6
ATOM      6  C   UNL d   1      52.766  32.026  53.512  0.00  0.00     0.287 C 
ATOM      7  N   UNL d   1      52.850  31.396  52.984  0.00  0.00    -0.206 NA
ATOM      8  O   UNL d   1      52.821  31.873  54.330  0.00  0.00    -0.265 OA
BRANCH   7   9
ATOM      9  C   UNL d   1      52.983  30.636  53.257  0.00  0.00     0.104 A 
ATOM     10  C   UNL d   1      52.346  30.180  53.457  0.00  0.00     0.118 A 
ATOM     11  N   UNL d   1      52.484  29.417  53.730  0.00  0.00    -0.241 NA
ATOM     12  C   UNL d   1      53.225  29.142  53.792  0.00  0.00     0.099 A 
ATOM     13  C   UNL d   1      53.862  29.597  53.592  0.00  0.00     0.022 A 
ATOM     14  C   UNL d   1      53.749  30.368  53.314  0.00  0.00     0.022 A 
ENDBRANCH   7   9
ENDBRANCH   1   6
BRANCH   2  15
ATOM     15  C   UNL d   1      53.663  33.438  53.961  0.00  0.00     0.018 A 
ATOM     16  C   UNL d   1      54.438  33.330  53.690  0.00  0.00     0.002 A 
ATOM     17  C   UNL d   1      55.060  33.295  54.236  0.00  0.00     0.000 A 
ATOM     18  C   UNL d   1      54.900  33.368  55.050  0.00  0.00     0.000 A 
ATOM     19  C   UNL d   1      54.164  33.471  55.308  0.00  0.00     0.000 A 
ATOM     20  C   UNL d   1      53.522  33.510  54.774  0.00  0.00     0.002 A 
ENDBRANCH   2  15
BRANCH   3  21
ATOM     21  N   UNL d   1      51.625  34.226  52.078  0.00  0.00    -0.221 NA
BRANCH  21  22
ATOM     22  C   UNL d   1      50.863  34.436  52.327  0.00  0.00     0.084 A 
ATOM     23  C   UNL d   1      50.211  34.237  51.856  0.00  0.00     0.021 A 
ATOM     24  C   UNL d   1      49.464  34.436  52.089  0.00  0.00     0.026 A 
ATOM     25  C   UNL d   1      49.364  34.844  52.811  0.00  0.00     0.094 A 
ATOM     26  C   UNL d   1      49.983  35.033  53.258  0.00  0.00     0.026 A 
ATOM     27  C   UNL d   1      50.756  34.831  53.024  0.00  0.00     0.021 A 
BRANCH  25  28
ATOM     28  O   UNL d   1      48.589  35.064  53.075  0.00  0.00    -0.328 OA
ATOM     29  C   UNL d   1      48.369  35.858  53.164  0.00  0.00     0.181 C 
ENDBRANCH  25  28
ENDBRANCH  21  22
ENDBRANCH   3  21
TORSDOF 6
ENDMDL
MODEL 3
REMARK VINA RESULT:      -8.1      1.094      2.642
REMARK  6 active torsions:
REMARK  status: ('A' for Active; 'I' for Inactive)
REMARK    1  A    between atoms: C_6  and  C_1 
REMARK    2  A    between atoms: C_9  and  C_2 
REMARK    3  A    between atoms: N_8  and  C_3 
REMARK       I    between atoms: N_7  and  C_6 
REMARK    4  A    between atoms: C_13  and  N_7 
REMARK    5  A    between atoms: C_12  and  N_8 
REMARK    6  A    between atoms: O_19  and  C_14 
ROOT
ATOM      1  C   UNL d   1      52.559  33.023  53.323  0.00  0.00     0.108 A 
ATOM      2  C   UNL d   1      51.976  32.856  52.759  0.00  0.00     0.094 A 
ATOM      3  C   UNL d   1      52.873  31.881  52.747  0.00  0.00     0.194 A 
ATOM      4  N   UNL d   1      52.175  32.141  52.399  0.00  0.00    -0.221 NA
ATOM      5  S   UNL d   1      53.104  32.407  53.299  0.00  0.00    -0.042 SA
ENDROOT
BRANCH   1   6
ATOM      6  C   UNL d   1      52.596  33.677  53.819  0.00  0.00     0.287 C 
ATOM      7  N   UNL d   1      53.230  34.203  53.773  0.00  0.00    -0.206 NA
ATOM      8  O   UNL d   1      51.995  33.822  54.379  0.00  0.00    -0.265 OA
BRANCH   7   9
ATOM      9  C   UNL d   1      53.271  34.856  54.266  0.00  0.00     0.104 A 
ATOM     10  C   UNL d   1      53.239  35.592  53.934  0.00  0.00     0.118 A 
ATOM     11  N   UNL d   1      53.280  36.245  54.432  0.00  0.00    -0.241 NA
ATOM     12  C   UNL d   1      53.349  36.148  55.215  0.00  0.00     0.099 A 
ATOM     13  C   UNL d   1      53.381  35.411  55.547  0.00  0.00     0.022 A 
ATOM     14  C   UNL d   1      53.341  34.739  55.067  0.00  0.00     0.022 A 
ENDBRANCH   7   9
ENDBRANCH   1   6
BRANCH   2  15
ATOM     15  C   UNL d   1      51.357  33.364  52.649  0.00  0.00     0.018 A 
ATOM     16  C   UNL d   1      50.704  33.343  53.158  0.00  0.00     0.002 A 
ATOM     17  C   UNL d   1      50.076  33.869  53.036  0.00  0.00     0.000 A 
ATOM     18  C   UNL d   1      50.107  34.411  52.404  0.00  0.00     0.000 A 
ATOM     19  C   UNL d   1      50.727  34.431  51.921  0.00  0.00     0.000 A 
ATOM     20  C   UNL d   1      51.372  33.910  52.026  0.00  0.00     0.002 A 
ENDBRANCH   2  15
BRANCH   3  21
ATOM     21  N   UNL d   1      53.258  31.196  52.551  0.00  0.00    -0.221 NA
BRANCH  21  22
ATOM     22  C   UNL d   1      53.211  30.544  53.059  0.00  0.00     0.084 A 
ATOM     23  C   UNL d   1      52.586  30.006  52.974  0.00  0.00     0.021 A 
ATOM     24  C   UNL d   1      52.531  29.366  53.464  0.00  0.00     0.026 A 
ATOM     25  C   UNL d   1      53.114  29.259  54.053  0.00  0.00     0.094 A 
ATOM     26  C   UNL d   1      53.707  29.770  54.134  0.00  0.00     0.026 A 
ATOM     27  C   UNL d   1      53.770  30.432  53.632  0.00  0.00     0.021 A 
BRANCH  25  28
ATOM     28  O   UNL d   1      53.075  28.594  54.579  0.00  0.00    -0.328 OA
ATOM     29  C   UNL d   1      53.392  28.627  55.344  0.00  0.00     0.181 C 
ENDBRANCH  25  28
ENDBRANCH  21  22
ENDBRANCH   3  21
TORSDOF 6
ENDMDL
MODEL 4
REMARK VINA RESULT:      -6.7      1.554      4.859
REMARK  6 active torsions:
REMARK  status: ('A' for Active; 'I' for Inactive)
REMARK    1  A    between atoms: C_6  and  C_1 
REMARK    2  A    between atoms: C_9  and  C_2 
REMARK    3  A    between atoms: N_8  and  C_3 
REMARK       I    between atoms: N_7  and  C_6 
REMARK    4  A    between atoms: C_13  and  N_7 
REMARK    5  A    between atoms: C_12  and  N_8 
REMARK    6  A    between atoms: O_19  and  C_14 
ROOT
ATOM      1  C   UNL d   1      52.697  33.230  53.001  0.00  0.00     0.108 A 
ATOM      2  C   UNL d   1      52.271  32.580  52.716  0.00  0.00     0.094 A 
ATOM      3  C   UNL d   1      51.728  33.688  52.236  0.00  0.00     0.194 A 
ATOM      4  N   UNL d   1      51.665  32.870  52.238  0.00  0.00    -0.221 NA
ATOM      5  S   UNL d   1      52.344  33.906  52.692  0.00  0.00    -0.042 SA
ENDROOT
BRANCH   1   6
ATOM      6  C   UNL d   1      53.351  33.215  53.498  0.00  0.00     0.287 C 
ATOM      7  N   UNL d   1      53.342  33.624  54.215  0.00  0.00    -0.206 NA
ATOM      8  O   UNL d   1      54.036  32.788  53.290  0.00  0.00    -0.265 OA
BRANCH   7   9
ATOM      9  C   UNL d   1      53.991  33.612  54.714  0.00  0.00     0.104 A 
ATOM     10  C   UNL d   1      54.644  34.043  54.508  0.00  0.00     0.118 A 
ATOM     11  N   UNL d   1      55.294  34.028  55.011  0.00  0.00    -0.241 NA
ATOM     12  C   UNL d   1      55.275  33.601  55.678  0.00  0.00     0.099 A 
ATOM     13  C   UNL d   1      54.622  33.170  55.884  0.00  0.00     0.022 A 
ATOM     14  C   UNL d   1      53.955  33.169  55.394  0.00  0.00     0.022 A 
ENDBRANCH   7   9
ENDBRANCH   1   6
BRANCH   2  15
ATOM     15  C   UNL d   1      52.485  31.829  52.924  0.00  0.00     0.018 A 
ATOM     16  C   UNL d   1      53.117  31.454  52.543  0.00  0.00     0.002 A 
ATOM     17  C   UNL d   1      53.328  30.684  52.764  0.00  0.00     0.000 A 
ATOM     18  C   UNL d   1      52.903  30.296  53.367  0.00  0.00     0.000 A 
ATOM     19  C   UNL d   1      52.303  30.652  53.729  0.00  0.00     0.000 A 
ATOM     20  C   UNL d   1      52.074  31.428  53.521  0.00  0.00     0.002 A 
ENDBRANCH   2  15
BRANCH   3  21
ATOM     21  N   UNL d   1      51.235  34.188  51.832  0.00  0.00    -0.221 NA
BRANCH  21  22
ATOM     22  C   UNL d   1      50.531  34.441  52.187  0.00  0.00     0.084 A 
ATOM     23  C   UNL d   1      49.811  34.324  51.792  0.00  0.00     0.021 A 
ATOM     24  C   UNL d   1      49.118  34.567  52.129  0.00  0.00     0.026 A 
ATOM     25  C   UNL d   1      49.143  34.935  52.879  0.00  0.00     0.094 A 
ATOM     26  C   UNL d   1      49.826  35.046  53.253  0.00  0.00     0.026 A 
ATOM     27  C   UNL d   1      50.544  34.799  52.911  0.00  0.00     0.021 A 
BRANCH  25  28
ATOM     28  O   UNL d   1      48.428  35.198  53.251  0.00  0.00    -0.328 OA
ATOM     29  C   UNL d   1      48.186  35.990  53.217  0.00  0.00     0.181 C 
ENDBRANCH  25  28
ENDBRANCH  21  22
ENDBRANCH   3  21
TORSDOF 6
ENDMDL
