MODEL 1
REMARK VINA RESULT:      55.5      0.000      0.000
REMARK  10 active torsions:
REMARK  status: ('A' for Active; 'I' for Inactive)
REMARK    1  A    between atoms: C_9  and  S_1 
REMARK    2  A    between atoms: N_20  and  S_1 
REMARK    3  A    between atoms: S_2  and  C_10 
REMARK    4  A    between atoms: N_19  and  S_2 
REMARK    5  A    between atoms: C_28  and  N_19 
REMARK    6  A    between atoms: C_29  and  N_20 
REMARK    7  A    between atoms: C_24  and  C_28 
REMARK    8  A    between atoms: C_30  and  C_24 
REMARK    9  A    between atoms: C_25  and  C_29 
REMARK   10  A    between atoms: C_31  and  C_25 
ROOT
ATOM      1  C   UNL d   1      14.522  16.128  -3.851  0.00  0.00     0.300 A 
ATOM      2  C   UNL d   1      14.164  16.273  -4.572  0.00  0.00     0.064 A 
ATOM      3  C   UNL d   1      13.992  14.805  -3.847  0.00  0.00     0.104 A 
ATOM      4  O   UNL d   1      14.437  15.396  -3.488  0.00  0.00    -0.273 OA
ATOM      5  C   UNL d   1      13.719  15.685  -4.934  0.00  0.00     0.007 A 
ATOM      6  C   UNL d   1      13.630  14.947  -4.574  0.00  0.00     0.023 A 
ATOM      7  C   UNL d   1      13.892  17.154  -5.659  0.00  0.00     0.105 A 
ATOM      8  C   UNL d   1      13.466  13.479  -3.835  0.00  0.00     0.107 A 
ATOM      9  C   UNL d   1      14.249  17.002  -4.933  0.00  0.00     0.018 A 
ATOM     10  C   UNL d   1      13.908  14.069  -3.479  0.00  0.00     0.038 A 
ATOM     11  C   UNL d   1      13.357  15.828  -5.660  0.00  0.00     0.001 A 
ATOM     12  C   UNL d   1      13.184  14.355  -4.934  0.00  0.00     0.003 A 
ATOM     13  O   UNL d   1      14.970  16.715  -3.482  0.00  0.00    -0.259 OA
ATOM     14  C   UNL d   1      13.442  16.559  -6.024  0.00  0.00     0.013 A 
ATOM     15  C   UNL d   1      13.101  13.620  -4.566  0.00  0.00     0.013 A 
ENDROOT
BRANCH   7  16
ATOM     16  S   UNL d   1      13.977  17.890  -6.023  0.00  0.00     0.285 S 
ATOM     17  O   UNL d   1      14.730  18.196  -6.149  0.00  0.00    -0.198 OA
ATOM     18  O   UNL d   1      13.305  18.317  -6.260  0.00  0.00    -0.198 OA
BRANCH  16  19
ATOM     19  N   UNL d   1      14.075  18.625  -6.387  0.00  0.00    -0.157 NA
BRANCH  19  20
ATOM     20  C   UNL d   1      14.158  19.304  -5.928  0.00  0.00     0.116 C 
BRANCH  20  21
ATOM     21  C   UNL d   1      14.596  19.943  -6.217  0.00  0.00     0.067 C 
BRANCH  21  22
ATOM     22  C   UNL d   1      14.954  20.469  -5.690  0.00  0.00     0.236 C 
ATOM     23  O   UNL d   1      15.135  21.235  -5.939  0.00  0.00    -0.283 OA
ENDBRANCH  21  22
ENDBRANCH  20  21
ENDBRANCH  19  20
ENDBRANCH  16  19
ENDBRANCH   7  16
BRANCH   8  24
ATOM     24  S   UNL d   1      13.378  12.742  -3.473  0.00  0.00     0.285 S 
ATOM     25  O   UNL d   1      12.789  12.226  -3.730  0.00  0.00    -0.198 OA
ATOM     26  O   UNL d   1      13.879  12.524  -2.858  0.00  0.00    -0.198 OA
BRANCH  24  27
ATOM     27  N   UNL d   1      13.296  12.006  -3.107  0.00  0.00    -0.157 NA
BRANCH  27  28
ATOM     28  C   UNL d   1      13.802  11.792  -2.493  0.00  0.00     0.116 C 
BRANCH  28  29
ATOM     29  C   UNL d   1      13.553  11.838  -1.707  0.00  0.00     0.067 C 
BRANCH  29  30
ATOM     30  C   UNL d   1      14.084  12.035  -1.109  0.00  0.00     0.236 C 
ATOM     31  O   UNL d   1      13.883  11.906  -0.318  0.00  0.00    -0.283 OA
ENDBRANCH  29  30
ENDBRANCH  28  29
ENDBRANCH  27  28
ENDBRANCH  24  27
ENDBRANCH   8  24
TORSDOF 10
ENDMDL
