MODEL 1
REMARK VINA RESULT:      21.2      0.000      0.000
REMARK  4 active torsions:
REMARK  status: ('A' for Active; 'I' for Inactive)
REMARK    1  A    between atoms: C_6  and  C_2 
REMARK    2  A    between atoms: C_8  and  C_6 
REMARK    3  A    between atoms: C_7  and  C_9 
REMARK    4  A    between atoms: C_9  and  C_8 
ROOT
ATOM      1  C   UNL d   1     -50.825  25.502  33.862  0.00  0.00     0.006 C 
ENDROOT
BRANCH   1   2
ATOM      2  C   UNL d   1     -50.521  26.242  33.683  0.00  0.00     0.039 A 
ATOM      3  C   UNL d   1     -49.754  26.501  33.526  0.00  0.00     0.103 A 
ATOM      4  N   UNL d   1     -49.783  27.310  33.382  0.00  0.00    -0.165 NA
ATOM      5  C   UNL d   1     -49.105  25.990  33.525  0.00  0.00     0.022 C 
ATOM      6  N   UNL d   1     -50.561  27.550  33.451  0.00  0.00    -0.225 N 
ATOM      7  C   UNL d   1     -51.019  26.894  33.636  0.00  0.00     0.102 A 
ATOM      8  C   UNL d   1     -50.831  28.324  33.349  0.00  0.00     0.121 C 
ENDBRANCH   1   2
BRANCH   1   9
ATOM      9  C   UNL d   1     -51.286  25.099  33.308  0.00  0.00     0.043 C 
BRANCH   9  10
ATOM     10  C   UNL d   1     -51.570  24.336  33.480  0.00  0.00     0.202 C 
ATOM     11  O   UNL d   1     -51.039  23.731  33.640  0.00  0.00    -0.286 OA
BRANCH  10  12
ATOM     12  C   UNL d   1     -52.389  24.191  33.487  0.00  0.00     0.068 A 
ATOM     13  S   UNL d   1     -53.144  24.507  33.562  0.00  0.00    -0.083 SA
ATOM     14  C   UNL d   1     -53.687  23.890  33.489  0.00  0.00     0.035 A 
ATOM     15  C   UNL d   1     -53.266  23.191  33.368  0.00  0.00     0.008 A 
ATOM     16  C   UNL d   1     -52.458  23.378  33.367  0.00  0.00     0.010 A 
ENDBRANCH  10  12
ENDBRANCH   9  10
ENDBRANCH   1   9
TORSDOF 4
ENDMDL
