MODEL 1
REMARK VINA RESULT:      -3.1      0.000      0.000
REMARK  3 active torsions:
REMARK  status: ('A' for Active; 'I' for Inactive)
REMARK    1  A    between atoms: N_9  and  C_3 
REMARK    2  A    between atoms: C_12  and  C_4 
REMARK    3  A    between atoms: C_17  and  N_10 
ROOT
ATOM      1  N   UNL d   1     -41.764-122.560 -51.759  0.00  0.00    -0.196 N 
ATOM      2  C   UNL d   1     -41.641-122.253 -52.509  0.00  0.00     0.167 A 
ATOM      3  C   UNL d   1     -41.677-122.079 -51.093  0.00  0.00     0.152 A 
ATOM      4  C   UNL d   1     -41.766-122.854 -53.056  0.00  0.00     0.057 A 
ATOM      5  N   UNL d   1     -41.965-123.353 -51.836  0.00  0.00    -0.161 NA
ATOM      6  N   UNL d   1     -41.430-121.460 -52.606  0.00  0.00    -0.227 NA
ATOM      7  C   UNL d   1     -41.464-121.283 -51.188  0.00  0.00     0.057 A 
ATOM      8  C   UNL d   1     -41.965-123.528 -52.644  0.00  0.00     0.124 A 
ATOM      9  C   UNL d   1     -41.342-120.976 -51.938  0.00  0.00     0.086 A 
ATOM     10  C   UNL d   1     -41.128-120.174 -52.026  0.00  0.00     0.021 C 
ENDROOT
BRANCH   3  11
ATOM     11  N   UNL d   1     -41.799-122.387 -50.341  0.00  0.00    -0.286 N 
ATOM     12  C   UNL d   1     -42.569-122.463 -50.043  0.00  0.00     0.101 A 
ATOM     13  C   UNL d   1     -42.693-122.772 -49.288  0.00  0.00     0.100 A 
ATOM     14  N   UNL d   1     -42.046-123.006 -48.828  0.00  0.00    -0.301 N 
ATOM     15  C   UNL d   1     -41.281-122.931 -49.122  0.00  0.00     0.100 A 
ATOM     16  C   UNL d   1     -41.158-122.622 -49.877  0.00  0.00     0.101 A 
BRANCH  14  17
ATOM     17  C   UNL d   1     -42.171-123.318 -48.064  0.00  0.00     0.064 A 
ATOM     18  C   UNL d   1     -41.528-123.492 -47.585  0.00  0.00     0.018 A 
ATOM     19  C   UNL d   1     -41.823-123.793 -46.864  0.00  0.00     0.002 A 
ATOM     20  C   UNL d   1     -42.641-123.798 -46.911  0.00  0.00     0.002 A 
ATOM     21  C   UNL d   1     -42.862-123.508 -47.647  0.00  0.00     0.018 A 
ENDBRANCH  14  17
ENDBRANCH   3  11
BRANCH   4  22
ATOM     22  C   UNL d   1     -41.724-122.872 -53.879  0.00  0.00     0.004 A 
ATOM     23  C   UNL d   1     -41.187-123.382 -54.255  0.00  0.00     0.000 A 
ATOM     24  C   UNL d   1     -41.144-123.401 -55.079  0.00  0.00     0.000 A 
ATOM     25  C   UNL d   1     -41.634-122.913 -55.532  0.00  0.00     0.000 A 
ATOM     26  C   UNL d   1     -42.169-122.405 -55.158  0.00  0.00     0.000 A 
ATOM     27  C   UNL d   1     -42.212-122.387 -54.335  0.00  0.00     0.000 A 
ENDBRANCH   4  22
TORSDOF 3
ENDMDL
