MODEL 1
REMARK VINA RESULT:       7.2      0.000      0.000
REMARK  4 active torsions:
REMARK  status: ('A' for Active; 'I' for Inactive)
REMARK    1  A    between atoms: S_2  and  N_1 
REMARK    2  A    between atoms: C_10  and  S_2 
REMARK    3  A    between atoms: C_7  and  C_4 
REMARK    4  A    between atoms: C_11  and  C_5 
ROOT
ATOM      1  N   UNL d   1     -41.904-122.964 -50.422  0.00  0.00    -0.152 N 
ATOM      2  N   UNL d   1     -41.464-122.845 -51.129  0.00  0.00    -0.155 NA
ATOM      3  C   UNL d   1     -42.711-122.977 -50.620  0.00  0.00     0.099 A 
ATOM      4  C   UNL d   1     -41.991-122.784 -51.768  0.00  0.00     0.104 A 
ATOM      5  C   UNL d   1     -42.761-122.865 -51.459  0.00  0.00     0.041 A 
ENDROOT
BRANCH   1   6
ATOM      6  S   UNL d   1     -41.609-123.052 -49.673  0.00  0.00     0.286 S 
ATOM      7  O   UNL d   1     -41.157-123.817 -49.897  0.00  0.00    -0.198 OA
ATOM      8  O   UNL d   1     -42.013-122.356 -49.448  0.00  0.00    -0.198 OA
BRANCH   6   9
ATOM      9  C   UNL d   1     -41.446-122.925 -48.878  0.00  0.00     0.105 A 
ATOM     10  C   UNL d   1     -41.391-122.154 -48.586  0.00  0.00     0.013 A 
ATOM     11  C   UNL d   1     -41.227-122.027 -47.787  0.00  0.00     0.001 A 
ATOM     12  C   UNL d   1     -41.123-122.673 -47.304  0.00  0.00     0.000 A 
ATOM     13  C   UNL d   1     -41.172-123.440 -47.572  0.00  0.00     0.001 A 
ATOM     14  C   UNL d   1     -41.336-123.568 -48.371  0.00  0.00     0.013 A 
ENDBRANCH   6   9
ENDBRANCH   1   6
BRANCH   3  15
ATOM     15  C   UNL d   1     -43.347-123.080 -50.104  0.00  0.00     0.058 A 
ATOM     16  C   UNL d   1     -43.938-122.521 -50.105  0.00  0.00     0.197 A 
ATOM     17  O   UNL d   1     -43.933-121.867 -50.588  0.00  0.00    -0.286 OA
ATOM     18  C   UNL d   1     -44.596-122.627 -49.572  0.00  0.00     0.042 A 
ATOM     19  C   UNL d   1     -44.620-123.284 -49.072  0.00  0.00     0.003 A 
ATOM     20  C   UNL d   1     -43.997-123.817 -49.113  0.00  0.00     0.000 A 
ATOM     21  C   UNL d   1     -43.381-123.718 -49.612  0.00  0.00     0.005 A 
ENDBRANCH   3  15
BRANCH   4  22
ATOM     22  C   UNL d   1     -41.780-122.669 -52.539  0.00  0.00     0.019 A 
ATOM     23  C   UNL d   1     -41.531-123.312 -52.998  0.00  0.00     0.002 A 
ATOM     24  C   UNL d   1     -41.318-123.197 -53.772  0.00  0.00     0.000 A 
ATOM     25  C   UNL d   1     -41.349-122.473 -54.082  0.00  0.00     0.000 A 
ATOM     26  C   UNL d   1     -41.586-121.830 -53.663  0.00  0.00     0.000 A 
ATOM     27  C   UNL d   1     -41.128-122.379 -54.872  0.00  0.00     0.000 C 
ATOM     28  C   UNL d   1     -41.808-121.924 -52.871  0.00  0.00     0.002 A 
ENDBRANCH   4  22
TORSDOF 4
ENDMDL
