MODEL 1
REMARK VINA RESULT:      -1.6      0.000      0.000
REMARK  6 active torsions:
REMARK  status: ('A' for Active; 'I' for Inactive)
REMARK    1  A    between atoms: C_5  and  S_1 
REMARK    2  A    between atoms: N_6  and  S_1 
REMARK       I    between atoms: N_2  and  C_3 
REMARK    3  A    between atoms: C_3  and  C_14 
REMARK    4  A    between atoms: C_4  and  C_7 
REMARK    5  A    between atoms: C_23  and  N_6 
REMARK    6  A    between atoms: C_24  and  C_23 
ROOT
ATOM      1  C   UNL d   1     -41.673-122.863 -49.785  0.00  0.00     0.057 A 
ATOM      2  C   UNL d   1     -42.028-122.211 -50.146  0.00  0.00     0.005 A 
ATOM      3  C   UNL d   1     -41.220-123.386 -50.237  0.00  0.00     0.005 A 
ATOM      4  C   UNL d   1     -41.480-122.605 -51.401  0.00  0.00     0.020 A 
ATOM      5  C   UNL d   1     -41.932-122.081 -50.950  0.00  0.00     0.002 A 
ATOM      6  C   UNL d   1     -41.124-123.256 -51.045  0.00  0.00     0.002 A 
ENDROOT
BRANCH   4   7
ATOM      7  C   UNL d   1     -41.383-122.475 -52.209  0.00  0.00     0.112 C 
BRANCH   7   8
ATOM      8  N   UNL d   1     -42.040-122.440 -52.699  0.00  0.00    -0.157 NA
BRANCH   8   9
ATOM      9  S   UNL d   1     -41.946-122.552 -53.522  0.00  0.00     0.285 S 
ATOM     10  O   UNL d   1     -42.286-121.800 -53.655  0.00  0.00    -0.198 OA
ATOM     11  O   UNL d   1     -41.612-123.292 -53.385  0.00  0.00    -0.198 OA
BRANCH   9  12
ATOM     12  C   UNL d   1     -41.857-122.654 -54.335  0.00  0.00     0.105 A 
ATOM     13  C   UNL d   1     -42.060-122.050 -54.850  0.00  0.00     0.017 A 
ATOM     14  C   UNL d   1     -41.971-122.150 -55.665  0.00  0.00     0.072 A 
ATOM     15  C   UNL d   1     -41.675-122.867 -55.958  0.00  0.00     0.004 A 
ATOM     16  C   UNL d   1     -41.472-123.472 -55.442  0.00  0.00     0.001 A 
ATOM     17  C   UNL d   1     -41.564-123.363 -54.631  0.00  0.00     0.013 A 
BRANCH  14  18
ATOM     18  C   UNL d   1     -42.173-121.548 -56.184  0.00  0.00     0.419 C 
ATOM     19  F   UNL d   1     -42.938-121.856 -56.247  0.00  0.00    -0.166 F 
ATOM     20  F   UNL d   1     -41.407-121.235 -56.124  0.00  0.00    -0.166 F 
ATOM     21  F   UNL d   1     -42.377-120.937 -56.710  0.00  0.00    -0.166 F 
ENDBRANCH  14  18
ENDBRANCH   9  12
ENDBRANCH   8   9
ENDBRANCH   7   8
ENDBRANCH   4   7
BRANCH   1  22
ATOM     22  C   UNL d   1     -41.770-122.996 -48.965  0.00  0.00     0.265 C 
ATOM     23  N   UNL d   1     -42.498-123.267 -48.675  0.00  0.00    -0.268 N 
ATOM     24  C   UNL d   1     -43.124-123.405 -49.195  0.00  0.00     0.108 A 
ATOM     25  C   UNL d   1     -42.591-123.397 -47.867  0.00  0.00     0.108 A 
ATOM     26  C   UNL d   1     -43.852-123.677 -48.901  0.00  0.00     0.118 A 
ATOM     27  C   UNL d   1     -44.482-123.816 -49.423  0.00  0.00     0.028 C 
ATOM     28  O   UNL d   1     -43.946-123.807 -48.092  0.00  0.00    -0.304 OA
ATOM     29  C   UNL d   1     -43.321-123.670 -47.568  0.00  0.00     0.118 A 
ATOM     30  C   UNL d   1     -43.419-123.801 -46.757  0.00  0.00     0.028 C 
ATOM     31  O   UNL d   1     -41.139-122.856 -48.447  0.00  0.00    -0.267 OA
ENDBRANCH   1  22
TORSDOF 6
ENDMDL
