MODEL 1
REMARK VINA RESULT:      23.5      0.000      0.000
REMARK  3 active torsions:
REMARK  status: ('A' for Active; 'I' for Inactive)
REMARK    1  A    between atoms: C_10  and  N_1 
REMARK    2  A    between atoms: C_11  and  C_14 
REMARK    3  A    between atoms: O_20  and  C_11 
ROOT
ATOM      1  N   UNL d   1      46.041 -16.866  43.564  0.00  0.00    -0.242 N 
ATOM      2  C   UNL d   1      46.134 -17.151  42.813  0.00  0.00     0.267 A 
ATOM      3  C   UNL d   1      46.109 -17.474  44.116  0.00  0.00     0.267 A 
ATOM      4  C   UNL d   1      46.266 -17.973  42.886  0.00  0.00     0.061 A 
ATOM      5  C   UNL d   1      46.251 -18.169  43.677  0.00  0.00     0.061 A 
ATOM      6  C   UNL d   1      46.367 -18.953  43.921  0.00  0.00     0.005 A 
ATOM      7  C   UNL d   1      46.398 -18.554  42.314  0.00  0.00     0.005 A 
ATOM      8  C   UNL d   1      46.496 -19.525  43.346  0.00  0.00     0.000 A 
ATOM      9  C   UNL d   1      46.512 -19.329  42.555  0.00  0.00     0.000 A 
ATOM     10  O   UNL d   1      46.099 -16.688  42.129  0.00  0.00    -0.267 OA
ATOM     11  O   UNL d   1      46.048 -17.416  44.955  0.00  0.00    -0.267 OA
ATOM     12  C   UNL d   1      46.615 -20.330  43.603  0.00  0.00     0.000 C 
ATOM     13  C   UNL d   1      46.647 -19.922  41.956  0.00  0.00     0.000 C 
ENDROOT
BRANCH   1  14
ATOM     14  C   UNL d   1      45.898 -16.099  43.822  0.00  0.00     0.070 A 
ATOM     15  C   UNL d   1      46.440 -15.494  43.652  0.00  0.00     0.018 A 
ATOM     16  C   UNL d   1      46.310 -14.727  43.903  0.00  0.00     0.007 A 
ATOM     17  C   UNL d   1      45.626 -14.568  44.330  0.00  0.00     0.063 A 
ATOM     18  C   UNL d   1      45.079 -15.170  44.505  0.00  0.00     0.007 A 
ATOM     19  C   UNL d   1      45.229 -15.929  44.244  0.00  0.00     0.018 A 
BRANCH  17  20
ATOM     20  C   UNL d   1      45.477 -13.780  44.596  0.00  0.00     0.296 C 
ATOM     21  O   UNL d   1      44.768 -13.591  44.938  0.00  0.00    -0.259 OA
BRANCH  20  22
ATOM     22  O   UNL d   1      46.065 -13.216  44.501  0.00  0.00    -0.296 OA
ATOM     23  C   UNL d   1      45.937 -12.450  44.757  0.00  0.00     0.185 C 
ENDBRANCH  20  22
ENDBRANCH  17  20
ENDBRANCH   1  14
TORSDOF 3
ENDMDL
