MODEL 1
REMARK VINA RESULT:      -3.7      0.000      0.000
REMARK  8 active torsions:
REMARK  status: ('A' for Active; 'I' for Inactive)
REMARK    1  A    between atoms: S_13  and  C_4 
REMARK    2  A    between atoms: C_5  and  N_10 
REMARK    3  A    between atoms: C_20  and  N_6 
REMARK       I    between atoms: N_10  and  C_14 
REMARK    4  A    between atoms: C_19  and  S_13 
REMARK    5  A    between atoms: C_14  and  C_19 
REMARK    6  A    between atoms: C_22  and  C_20 
REMARK    7  A    between atoms: C_28  and  C_22 
REMARK    8  A    between atoms: N_25  and  C_28 
ROOT
ATOM      1  N   UNL d   1      58.267  -0.993  29.547  0.00  0.00    -0.185 NA
ATOM      2  C   UNL d   1      58.651  -1.589  29.125  0.00  0.00     0.354 A 
ATOM      3  C   UNL d   1      59.505  -0.288  29.677  0.00  0.00     0.040 A 
ATOM      4  C   UNL d   1      58.694  -0.343  29.823  0.00  0.00     0.117 A 
ATOM      5  N   UNL d   1      59.462  -1.534  28.979  0.00  0.00    -0.258 N 
ATOM      6  C   UNL d   1      59.889  -0.884  29.255  0.00  0.00     0.070 A 
ATOM      7  O   UNL d   1      58.229  -2.246  28.845  0.00  0.00    -0.244 OA
ATOM      8  C   UNL d   1      60.067   0.277  29.875  0.00  0.00     0.004 A 
ATOM      9  C   UNL d   1      60.685  -0.683  29.195  0.00  0.00     0.018 A 
ATOM     10  C   UNL d   1      60.797   0.028  29.574  0.00  0.00     0.002 A 
ENDROOT
BRANCH   4  11
ATOM     11  S   UNL d   1      58.310   0.253  30.245  0.00  0.00    -0.062 SA
BRANCH  11  12
ATOM     12  C   UNL d   1      57.533   0.157  30.472  0.00  0.00     0.099 C 
BRANCH  12  13
ATOM     13  C   UNL d   1      57.313   0.286  31.257  0.00  0.00     0.288 C 
ATOM     14  N   UNL d   1      56.584   0.022  31.530  0.00  0.00    -0.182 NA
ATOM     15  O   UNL d   1      57.826   0.682  31.768  0.00  0.00    -0.265 OA
BRANCH  14  16
ATOM     16  C   UNL d   1      56.364   0.151  32.314  0.00  0.00     0.197 A 
ATOM     17  N   UNL d   1      55.569   0.262  32.507  0.00  0.00    -0.221 NA
ATOM     18  C   UNL d   1      55.525   0.378  33.329  0.00  0.00     0.090 A 
ATOM     19  C   UNL d   1      54.886   0.514  33.831  0.00  0.00     0.020 A 
ATOM     20  C   UNL d   1      56.280   0.339  33.633  0.00  0.00     0.050 A 
ATOM     21  C   UNL d   1      55.011   0.609  34.636  0.00  0.00     0.002 A 
ATOM     22  C   UNL d   1      55.771   0.571  34.942  0.00  0.00     0.001 A 
ATOM     23  C   UNL d   1      56.409   0.435  34.444  0.00  0.00     0.008 A 
ATOM     24  C   UNL d   1      55.882   0.671  35.766  0.00  0.00     0.000 C 
ATOM     25  S   UNL d   1      56.807   0.199  33.009  0.00  0.00    -0.047 SA
ENDBRANCH  14  16
ENDBRANCH  12  13
ENDBRANCH  11  12
ENDBRANCH   4  11
BRANCH   5  26
ATOM     26  C   UNL d   1      59.846  -2.130  28.557  0.00  0.00     0.086 C 
BRANCH  26  27
ATOM     27  C   UNL d   1      59.994  -2.854  28.908  0.00  0.00     0.038 C 
BRANCH  27  28
ATOM     28  C   UNL d   1      60.732  -3.214  28.825  0.00  0.00     0.082 C 
BRANCH  28  29
ATOM     29  N   UNL d   1      60.830  -4.005  29.025  0.00  0.00    -0.300 N 
ATOM     30  C   UNL d   1      60.625  -4.596  28.487  0.00  0.00     0.100 C 
ATOM     31  C   UNL d   1      61.133  -4.208  29.765  0.00  0.00     0.100 C 
ENDBRANCH  28  29
ENDBRANCH  27  28
ENDBRANCH  26  27
ENDBRANCH   5  26
TORSDOF 8
ENDMDL
