MODEL 1
REMARK VINA RESULT:      87.5      0.000      0.000
REMARK  9 active torsions:
REMARK  status: ('A' for Active; 'I' for Inactive)
REMARK    1  A    between atoms: C_9  and  N_1 
REMARK    2  A    between atoms: S_8  and  C_2 
REMARK    3  A    between atoms: C_7  and  C_12 
REMARK       I    between atoms: N_13  and  C_7 
REMARK    4  A    between atoms: C_26  and  S_8 
REMARK    5  A    between atoms: C_27  and  N_13 
REMARK    6  A    between atoms: C_15  and  C_27 
REMARK    7  A    between atoms: C_16  and  C_26 
REMARK    8  A    between atoms: O_31  and  C_16 
REMARK    9  A    between atoms: C_33  and  O_31 
ROOT
ATOM      1  N   UNL d   1     -49.757  27.309  34.839  0.00  0.00    -0.254 N 
ATOM      2  C   UNL d   1     -49.859  27.438  35.637  0.00  0.00     0.182 A 
ATOM      3  C   UNL d   1     -49.196  27.733  34.417  0.00  0.00     0.268 A 
ATOM      4  N   UNL d   1     -49.394  27.997  36.015  0.00  0.00    -0.222 NA
ATOM      5  C   UNL d   1     -48.733  28.290  34.791  0.00  0.00     0.074 A 
ATOM      6  C   UNL d   1     -48.829  28.427  35.603  0.00  0.00     0.088 A 
ATOM      7  C   UNL d   1     -48.362  28.991  35.991  0.00  0.00     0.024 A 
ATOM      8  C   UNL d   1     -48.165  28.722  34.377  0.00  0.00     0.006 A 
ATOM      9  C   UNL d   1     -47.798  29.418  35.566  0.00  0.00     0.059 A 
ATOM     10  O   UNL d   1     -49.099  27.596  33.605  0.00  0.00    -0.267 OA
ATOM     11  C   UNL d   1     -47.700  29.281  34.754  0.00  0.00     0.005 A 
ENDROOT
BRANCH   9  12
ATOM     12  C   UNL d   1     -47.327  29.985  35.952  0.00  0.00     0.279 C 
ATOM     13  N   UNL d   1     -47.316  30.744  35.667  0.00  0.00    -0.204 NA
ATOM     14  O   UNL d   1     -46.889  29.758  36.608  0.00  0.00    -0.265 OA
BRANCH  13  15
ATOM     15  C   UNL d   1     -47.762  30.952  35.010  0.00  0.00     0.127 C 
BRANCH  15  16
ATOM     16  C   UNL d   1     -47.715  31.715  34.704  0.00  0.00     0.119 A 
ATOM     17  O   UNL d   1     -47.304  32.375  34.930  0.00  0.00    -0.304 OA
ATOM     18  C   UNL d   1     -47.468  32.992  34.416  0.00  0.00     0.123 A 
ATOM     19  C   UNL d   1     -48.000  32.690  33.857  0.00  0.00     0.029 A 
ATOM     20  C   UNL d   1     -48.153  31.914  34.028  0.00  0.00     0.028 A 
ENDBRANCH  15  16
ENDBRANCH  13  15
ENDBRANCH   9  12
BRANCH   2  21
ATOM     21  S   UNL d   1     -50.423  27.011  36.062  0.00  0.00    -0.044 SA
BRANCH  21  22
ATOM     22  C   UNL d   1     -50.750  27.324  36.743  0.00  0.00     0.107 C 
BRANCH  22  23
ATOM     23  C   UNL d   1     -50.830  26.846  37.411  0.00  0.00     0.307 C 
ATOM     24  O   UNL d   1     -50.302  26.913  38.045  0.00  0.00    -0.258 OA
BRANCH  23  25
ATOM     25  O   UNL d   1     -51.449  26.295  37.439  0.00  0.00    -0.271 OA
BRANCH  25  26
ATOM     26  C   UNL d   1     -51.800  26.128  38.167  0.00  0.00     0.126 C 
ATOM     27  C   UNL d   1     -52.421  25.603  38.187  0.00  0.00     0.029 C 
ENDBRANCH  25  26
ENDBRANCH  23  25
ENDBRANCH  22  23
ENDBRANCH  21  22
ENDBRANCH   2  21
BRANCH   1  28
ATOM     28  C   UNL d   1     -50.224  26.746  34.455  0.00  0.00     0.069 A 
ATOM     29  C   UNL d   1     -49.930  25.986  34.323  0.00  0.00     0.020 A 
ATOM     30  C   UNL d   1     -50.384  25.429  33.946  0.00  0.00     0.031 A 
ATOM     31  C   UNL d   1     -51.144  25.626  33.694  0.00  0.00     0.140 A 
ATOM     32  C   UNL d   1     -51.438  26.385  33.826  0.00  0.00     0.031 A 
ATOM     33  F   UNL d   1     -51.610  25.052  33.307  0.00  0.00    -0.204 F 
ATOM     34  C   UNL d   1     -50.981  26.945  34.204  0.00  0.00     0.020 A 
ENDBRANCH   1  28
TORSDOF 9
ENDMDL
