MODEL 1
REMARK VINA RESULT:      78.1      0.000      0.000
REMARK  7 active torsions:
REMARK  status: ('A' for Active; 'I' for Inactive)
REMARK    1  A    between atoms: S_3  and  C_1 
REMARK    2  A    between atoms: C_10  and  S_3 
REMARK    3  A    between atoms: N_11  and  C_4 
REMARK    4  A    between atoms: C_9  and  C_5 
REMARK    5  A    between atoms: C_20  and  N_11 
REMARK    6  A    between atoms: C_22  and  C_20 
REMARK    7  A    between atoms: C_23  and  C_22 
ROOT
ATOM      1  C   UNL d   1     -48.282  28.414  34.990  0.00  0.00     0.042 A 
ATOM      2  C   UNL d   1     -47.700  28.767  34.531  0.00  0.00     0.006 A 
ATOM      3  C   UNL d   1     -48.404  28.654  35.775  0.00  0.00     0.006 A 
ATOM      4  C   UNL d   1     -47.342  29.617  35.638  0.00  0.00     0.094 A 
ATOM      5  C   UNL d   1     -47.941  29.252  36.106  0.00  0.00     0.024 A 
ATOM      6  C   UNL d   1     -47.228  29.369  34.853  0.00  0.00     0.024 A 
ATOM      7  O   UNL d   1     -46.873  30.219  35.965  0.00  0.00    -0.328 OA
ATOM      8  C   UNL d   1     -46.389  30.833  36.289  0.00  0.00     0.181 C 
ENDROOT
BRANCH   1   9
ATOM      9  C   UNL d   1     -48.756  27.814  34.675  0.00  0.00     0.185 A 
ATOM     10  N   UNL d   1     -49.576  27.870  34.643  0.00  0.00    -0.207 NA
ATOM     11  C   UNL d   1     -49.866  27.178  34.298  0.00  0.00     0.212 A 
ATOM     12  C   UNL d   1     -49.221  26.706  34.122  0.00  0.00     0.213 A 
ATOM     13  O   UNL d   1     -48.539  27.085  34.348  0.00  0.00    -0.269 OA
BRANCH  11  14
ATOM     14  S   UNL d   1     -50.631  26.890  34.108  0.00  0.00     0.230 S 
ATOM     15  O   UNL d   1     -50.430  26.617  34.953  0.00  0.00    -0.215 OA
ATOM     16  O   UNL d   1     -50.844  27.138  33.307  0.00  0.00    -0.215 OA
BRANCH  14  17
ATOM     17  C   UNL d   1     -51.379  26.608  33.921  0.00  0.00     0.090 A 
ATOM     18  C   UNL d   1     -51.601  25.858  34.157  0.00  0.00     0.011 A 
ATOM     19  C   UNL d   1     -52.345  25.575  33.973  0.00  0.00     0.001 A 
ATOM     20  C   UNL d   1     -52.867  26.042  33.553  0.00  0.00     0.000 A 
ATOM     21  C   UNL d   1     -52.648  26.800  33.313  0.00  0.00     0.001 A 
ATOM     22  C   UNL d   1     -51.905  27.083  33.497  0.00  0.00     0.011 A 
ENDBRANCH  14  17
ENDBRANCH  11  14
BRANCH  12  23
ATOM     23  N   UNL d   1     -49.299  25.959  33.766  0.00  0.00    -0.219 NA
BRANCH  23  24
ATOM     24  C   UNL d   1     -48.797  25.446  33.374  0.00  0.00     0.101 C 
BRANCH  24  25
ATOM     25  C   UNL d   1     -49.201  24.732  33.340  0.00  0.00     0.021 C 
BRANCH  25  26
ATOM     26  C   UNL d   1     -48.791  24.013  33.457  0.00  0.00     0.002 C 
ATOM     27  C   UNL d   1     -49.204  23.314  33.630  0.00  0.00     0.000 C 
ENDBRANCH  25  26
ENDBRANCH  24  25
ENDBRANCH  23  24
ENDBRANCH  12  23
ENDBRANCH   1   9
TORSDOF 7
ENDMDL
MODEL 2
REMARK VINA RESULT:      79.6      1.736      5.379
REMARK  7 active torsions:
REMARK  status: ('A' for Active; 'I' for Inactive)
REMARK    1  A    between atoms: S_3  and  C_1 
REMARK    2  A    between atoms: C_10  and  S_3 
REMARK    3  A    between atoms: N_11  and  C_4 
REMARK    4  A    between atoms: C_9  and  C_5 
REMARK    5  A    between atoms: C_20  and  N_11 
REMARK    6  A    between atoms: C_22  and  C_20 
REMARK    7  A    between atoms: C_23  and  C_22 
ROOT
ATOM      1  C   UNL d   1     -50.098  27.029  33.980  0.00  0.00     0.042 A 
ATOM      2  C   UNL d   1     -49.750  26.422  33.550  0.00  0.00     0.006 A 
ATOM      3  C   UNL d   1     -50.880  26.962  34.248  0.00  0.00     0.006 A 
ATOM      4  C   UNL d   1     -50.967  25.657  33.646  0.00  0.00     0.094 A 
ATOM      5  C   UNL d   1     -51.320  26.283  34.087  0.00  0.00     0.024 A 
ATOM      6  C   UNL d   1     -50.183  25.735  33.382  0.00  0.00     0.024 A 
ATOM      7  O   UNL d   1     -51.404  24.971  33.480  0.00  0.00    -0.328 OA
ATOM      8  C   UNL d   1     -51.841  24.267  33.306  0.00  0.00     0.181 C 
ENDROOT
BRANCH   1   9
ATOM      9  C   UNL d   1     -49.672  27.717  34.151  0.00  0.00     0.185 A 
ATOM     10  N   UNL d   1     -49.082  27.739  34.723  0.00  0.00    -0.207 NA
ATOM     11  C   UNL d   1     -48.776  28.506  34.746  0.00  0.00     0.212 A 
ATOM     12  C   UNL d   1     -49.183  28.946  34.188  0.00  0.00     0.213 A 
ATOM     13  O   UNL d   1     -49.732  28.473  33.819  0.00  0.00    -0.269 OA
BRANCH  11  14
ATOM     14  S   UNL d   1     -48.179  28.890  35.194  0.00  0.00     0.230 S 
ATOM     15  O   UNL d   1     -48.830  28.617  35.769  0.00  0.00    -0.215 OA
ATOM     16  O   UNL d   1     -47.549  29.159  34.667  0.00  0.00    -0.215 OA
BRANCH  14  17
ATOM     17  C   UNL d   1     -47.595  29.266  35.632  0.00  0.00     0.090 A 
ATOM     18  C   UNL d   1     -46.828  29.287  35.351  0.00  0.00     0.011 A 
ATOM     19  C   UNL d   1     -46.244  29.660  35.783  0.00  0.00     0.001 A 
ATOM     20  C   UNL d   1     -46.427  30.012  36.497  0.00  0.00     0.000 A 
ATOM     21  C   UNL d   1     -47.199  29.994  36.784  0.00  0.00     0.001 A 
ATOM     22  C   UNL d   1     -47.783  29.621  36.352  0.00  0.00     0.011 A 
ENDBRANCH  14  17
ENDBRANCH  11  14
BRANCH  12  23
ATOM     23  N   UNL d   1     -49.025  29.750  34.054  0.00  0.00    -0.219 NA
BRANCH  23  24
ATOM     24  C   UNL d   1     -49.314  30.322  33.545  0.00  0.00     0.101 C 
BRANCH  24  25
ATOM     25  C   UNL d   1     -49.088  31.040  33.876  0.00  0.00     0.021 C 
BRANCH  25  26
ATOM     26  C   UNL d   1     -49.074  31.730  33.407  0.00  0.00     0.002 C 
ATOM     27  C   UNL d   1     -48.554  32.352  33.586  0.00  0.00     0.000 C 
ENDBRANCH  25  26
ENDBRANCH  24  25
ENDBRANCH  23  24
ENDBRANCH  12  23
ENDBRANCH   1   9
TORSDOF 7
ENDMDL
MODEL 3
REMARK VINA RESULT:      79.9      1.736      2.463
REMARK  7 active torsions:
REMARK  status: ('A' for Active; 'I' for Inactive)
REMARK    1  A    between atoms: S_3  and  C_1 
REMARK    2  A    between atoms: C_10  and  S_3 
REMARK    3  A    between atoms: N_11  and  C_4 
REMARK    4  A    between atoms: C_9  and  C_5 
REMARK    5  A    between atoms: C_20  and  N_11 
REMARK    6  A    between atoms: C_22  and  C_20 
REMARK    7  A    between atoms: C_23  and  C_22 
ROOT
ATOM      1  C   UNL d   1     -48.393  29.386  35.211  0.00  0.00     0.042 A 
ATOM      2  C   UNL d   1     -48.627  30.008  34.730  0.00  0.00     0.006 A 
ATOM      3  C   UNL d   1     -47.695  29.436  35.657  0.00  0.00     0.006 A 
ATOM      4  C   UNL d   1     -47.461  30.756  35.130  0.00  0.00     0.094 A 
ATOM      5  C   UNL d   1     -47.225  30.114  35.623  0.00  0.00     0.024 A 
ATOM      6  C   UNL d   1     -48.162  30.695  34.688  0.00  0.00     0.024 A 
ATOM      7  O   UNL d   1     -46.993  31.440  35.091  0.00  0.00    -0.328 OA
ATOM      8  C   UNL d   1     -46.523  32.143  35.044  0.00  0.00     0.181 C 
ENDROOT
BRANCH   1   9
ATOM      9  C   UNL d   1     -48.851  28.699  35.258  0.00  0.00     0.185 A 
ATOM     10  N   UNL d   1     -49.086  28.280  34.590  0.00  0.00    -0.207 NA
ATOM     11  C   UNL d   1     -49.533  27.631  34.839  0.00  0.00     0.212 A 
ATOM     12  C   UNL d   1     -49.566  27.660  35.657  0.00  0.00     0.213 A 
ATOM     13  O   UNL d   1     -49.153  28.308  35.922  0.00  0.00    -0.269 OA
BRANCH  11  14
ATOM     14  S   UNL d   1     -49.926  27.001  34.449  0.00  0.00     0.230 S 
ATOM     15  O   UNL d   1     -49.030  26.890  34.330  0.00  0.00    -0.215 OA
ATOM     16  O   UNL d   1     -50.780  27.086  34.549  0.00  0.00    -0.215 OA
BRANCH  14  17
ATOM     17  C   UNL d   1     -50.312  26.385  34.068  0.00  0.00     0.090 A 
ATOM     18  C   UNL d   1     -49.968  25.644  34.044  0.00  0.00     0.011 A 
ATOM     19  C   UNL d   1     -50.350  25.028  33.665  0.00  0.00     0.001 A 
ATOM     20  C   UNL d   1     -51.074  25.154  33.310  0.00  0.00     0.000 A 
ATOM     21  C   UNL d   1     -51.424  25.900  33.332  0.00  0.00     0.001 A 
ATOM     22  C   UNL d   1     -51.044  26.515  33.710  0.00  0.00     0.011 A 
ENDBRANCH  14  17
ENDBRANCH  11  14
BRANCH  12  23
ATOM     23  N   UNL d   1     -49.973  27.091  36.106  0.00  0.00    -0.219 NA
BRANCH  23  24
ATOM     24  C   UNL d   1     -49.924  26.814  36.874  0.00  0.00     0.101 C 
BRANCH  24  25
ATOM     25  C   UNL d   1     -50.647  26.999  37.217  0.00  0.00     0.021 C 
BRANCH  25  26
ATOM     26  C   UNL d   1     -50.861  26.660  37.950  0.00  0.00     0.002 C 
ATOM     27  C   UNL d   1     -51.483  26.980  38.398  0.00  0.00     0.000 C 
ENDBRANCH  25  26
ENDBRANCH  24  25
ENDBRANCH  23  24
ENDBRANCH  12  23
ENDBRANCH   1   9
TORSDOF 7
ENDMDL
