MODEL 1
REMARK VINA RESULT:      -6.0      0.000      0.000
REMARK  2 active torsions:
REMARK  status: ('A' for Active; 'I' for Inactive)
REMARK    1  A    between atoms: C_6  and  C_1 
REMARK    2  A    between atoms: C_7  and  C_5 
ROOT
ATOM      1  C   UNL d   1     -41.871-122.220 -54.795  0.00  0.00     0.169 A 
ATOM      2  C   UNL d   1     -42.186-121.863 -54.115  0.00  0.00     0.048 A 
ATOM      3  N   UNL d   1     -41.137-123.119 -53.987  0.00  0.00    -0.148 NA
ATOM      4  N   UNL d   1     -41.345-122.849 -54.733  0.00  0.00    -0.142 NA
ATOM      5  C   UNL d   1     -41.448-122.767 -53.308  0.00  0.00     0.105 A 
ENDROOT
BRANCH   5   6
ATOM      6  C   UNL d   1     -41.367-122.887 -52.497  0.00  0.00     0.019 A 
ATOM      7  C   UNL d   1     -41.451-122.249 -51.981  0.00  0.00     0.002 A 
ATOM      8  C   UNL d   1     -41.370-122.368 -51.171  0.00  0.00     0.000 A 
ATOM      9  C   UNL d   1     -41.456-121.707 -50.629  0.00  0.00     0.000 C 
ATOM     10  C   UNL d   1     -41.205-123.126 -50.876  0.00  0.00     0.000 A 
ATOM     11  C   UNL d   1     -41.123-123.757 -51.398  0.00  0.00     0.000 A 
ATOM     12  C   UNL d   1     -41.124-123.242 -50.062  0.00  0.00     0.000 C 
ATOM     13  C   UNL d   1     -41.203-123.641 -52.205  0.00  0.00     0.002 A 
ENDBRANCH   5   6
BRANCH   1  14
ATOM     14  C   UNL d   1     -42.090-121.937 -55.541  0.00  0.00     0.231 C 
ATOM     15  O   UNL d   1     -42.861-122.040 -55.807  0.00  0.00    -0.643 OA
ATOM     16  O   UNL d   1     -41.539-121.557 -56.015  0.00  0.00    -0.643 OA
ENDBRANCH   1  14
TORSDOF 2
ENDMDL
MODEL 2
REMARK VINA RESULT:      -5.1      1.522      2.245
REMARK  2 active torsions:
REMARK  status: ('A' for Active; 'I' for Inactive)
REMARK    1  A    between atoms: C_6  and  C_1 
REMARK    2  A    between atoms: C_7  and  C_5 
ROOT
ATOM      1  C   UNL d   1     -41.508-122.665 -52.782  0.00  0.00     0.169 A 
ATOM      2  C   UNL d   1     -41.383-122.157 -52.137  0.00  0.00     0.048 A 
ATOM      3  N   UNL d   1     -41.800-123.726 -51.892  0.00  0.00    -0.148 NA
ATOM      4  N   UNL d   1     -41.717-123.451 -52.661  0.00  0.00    -0.142 NA
ATOM      5  C   UNL d   1     -41.677-123.223 -51.249  0.00  0.00     0.105 A 
ENDROOT
BRANCH   5   6
ATOM      6  C   UNL d   1     -41.710-123.303 -50.429  0.00  0.00     0.019 A 
ATOM      7  C   UNL d   1     -42.330-122.953 -50.012  0.00  0.00     0.002 A 
ATOM      8  C   UNL d   1     -42.364-123.033 -49.193  0.00  0.00     0.000 A 
ATOM      9  C   UNL d   1     -43.006-122.671 -48.753  0.00  0.00     0.000 C 
ATOM     10  C   UNL d   1     -41.778-123.462 -48.792  0.00  0.00     0.000 A 
ATOM     11  C   UNL d   1     -41.163-123.807 -49.218  0.00  0.00     0.000 A 
ATOM     12  C   UNL d   1     -41.814-123.540 -47.971  0.00  0.00     0.000 C 
ATOM     13  C   UNL d   1     -41.127-123.730 -50.032  0.00  0.00     0.002 A 
ENDBRANCH   5   6
BRANCH   1  14
ATOM     14  C   UNL d   1     -41.420-122.375 -53.552  0.00  0.00     0.231 C 
ATOM     15  O   UNL d   1     -41.631-121.599 -53.723  0.00  0.00    -0.643 OA
ATOM     16  O   UNL d   1     -41.124-122.860 -54.142  0.00  0.00    -0.643 OA
ENDBRANCH   1  14
TORSDOF 2
ENDMDL
MODEL 3
REMARK VINA RESULT:      -4.6      2.708      4.066
REMARK  2 active torsions:
REMARK  status: ('A' for Active; 'I' for Inactive)
REMARK    1  A    between atoms: C_6  and  C_1 
REMARK    2  A    between atoms: C_7  and  C_5 
ROOT
ATOM      1  C   UNL d   1     -41.695-122.902 -50.441  0.00  0.00     0.169 A 
ATOM      2  C   UNL d   1     -42.016-123.436 -50.990  0.00  0.00     0.048 A 
ATOM      3  N   UNL d   1     -41.162-122.130 -51.500  0.00  0.00    -0.148 NA
ATOM      4  N   UNL d   1     -41.267-122.247 -50.695  0.00  0.00    -0.142 NA
ATOM      5  C   UNL d   1     -41.480-122.658 -52.049  0.00  0.00     0.105 A 
ENDROOT
BRANCH   5   6
ATOM      6  C   UNL d   1     -41.487-122.715 -52.871  0.00  0.00     0.019 A 
ATOM      7  C   UNL d   1     -41.859-122.129 -53.316  0.00  0.00     0.002 A 
ATOM      8  C   UNL d   1     -41.866-122.185 -54.137  0.00  0.00     0.000 A 
ATOM      9  C   UNL d   1     -42.252-121.577 -54.605  0.00  0.00     0.000 C 
ATOM     10  C   UNL d   1     -41.500-122.827 -54.513  0.00  0.00     0.000 A 
ATOM     11  C   UNL d   1     -41.131-123.408 -54.061  0.00  0.00     0.000 A 
ATOM     12  C   UNL d   1     -41.508-122.881 -55.337  0.00  0.00     0.000 C 
ATOM     13  C   UNL d   1     -41.123-123.354 -53.244  0.00  0.00     0.002 A 
ENDBRANCH   5   6
BRANCH   1  14
ATOM     14  C   UNL d   1     -41.808-123.033 -49.632  0.00  0.00     0.231 C 
ATOM     15  O   UNL d   1     -42.477-122.735 -49.260  0.00  0.00    -0.643 OA
ATOM     16  O   UNL d   1     -41.254-123.458 -49.203  0.00  0.00    -0.643 OA
ENDBRANCH   1  14
TORSDOF 2
ENDMDL
MODEL 4
REMARK VINA RESULT:      -4.4      3.619      4.770
REMARK  2 active torsions:
REMARK  status: ('A' for Active; 'I' for Inactive)
REMARK    1  A    between atoms: C_6  and  C_1 
REMARK    2  A    between atoms: C_7  and  C_5 
ROOT
ATOM      1  C   UNL d   1     -42.273-123.120 -48.622  0.00  0.00     0.169 A 
ATOM      2  C   UNL d   1     -42.763-123.048 -49.289  0.00  0.00     0.048 A 
ATOM      3  N   UNL d   1     -41.136-123.184 -49.462  0.00  0.00    -0.148 NA
ATOM      4  N   UNL d   1     -41.458-123.188 -48.707  0.00  0.00    -0.142 NA
ATOM      5  C   UNL d   1     -41.620-123.113 -50.127  0.00  0.00     0.105 A 
ENDROOT
BRANCH   5   6
ATOM      6  C   UNL d   1     -41.495-123.089 -50.941  0.00  0.00     0.019 A 
ATOM      7  C   UNL d   1     -41.548-122.368 -51.339  0.00  0.00     0.002 A 
ATOM      8  C   UNL d   1     -41.424-122.344 -52.153  0.00  0.00     0.000 A 
ATOM      9  C   UNL d   1     -41.477-121.597 -52.572  0.00  0.00     0.000 C 
ATOM     10  C   UNL d   1     -41.247-123.040 -52.568  0.00  0.00     0.000 A 
ATOM     11  C   UNL d   1     -41.197-123.755 -52.162  0.00  0.00     0.000 A 
ATOM     12  C   UNL d   1     -41.123-123.013 -53.384  0.00  0.00     0.000 C 
ATOM     13  C   UNL d   1     -41.320-123.782 -51.353  0.00  0.00     0.002 A 
ENDBRANCH   5   6
BRANCH   1  14
ATOM     14  C   UNL d   1     -42.611-123.122 -47.867  0.00  0.00     0.231 C 
ATOM     15  O   UNL d   1     -42.478-122.491 -47.358  0.00  0.00    -0.643 OA
ATOM     16  O   UNL d   1     -43.077-123.752 -47.627  0.00  0.00    -0.643 OA
ENDBRANCH   1  14
TORSDOF 2
ENDMDL
MODEL 5
REMARK VINA RESULT:      -3.9      2.907      4.295
REMARK  2 active torsions:
REMARK  status: ('A' for Active; 'I' for Inactive)
REMARK    1  A    between atoms: C_6  and  C_1 
REMARK    2  A    between atoms: C_7  and  C_5 
ROOT
ATOM      1  C   UNL d   1     -41.667-123.230 -49.996  0.00  0.00     0.169 A 
ATOM      2  C   UNL d   1     -41.995-122.588 -50.406  0.00  0.00     0.048 A 
ATOM      3  N   UNL d   1     -41.126-123.729 -51.205  0.00  0.00    -0.148 NA
ATOM      4  N   UNL d   1     -41.231-123.804 -50.394  0.00  0.00    -0.142 NA
ATOM      5  C   UNL d   1     -41.451-123.091 -51.616  0.00  0.00     0.105 A 
ENDROOT
BRANCH   5   6
ATOM      6  C   UNL d   1     -41.459-122.845 -52.403  0.00  0.00     0.019 A 
ATOM      7  C   UNL d   1     -41.446-123.408 -53.005  0.00  0.00     0.002 A 
ATOM      8  C   UNL d   1     -41.453-123.163 -53.791  0.00  0.00     0.000 A 
ATOM      9  C   UNL d   1     -41.439-123.745 -54.422  0.00  0.00     0.000 C 
ATOM     10  C   UNL d   1     -41.475-122.354 -53.974  0.00  0.00     0.000 A 
ATOM     11  C   UNL d   1     -41.488-121.799 -53.366  0.00  0.00     0.000 A 
ATOM     12  C   UNL d   1     -41.482-122.111 -54.763  0.00  0.00     0.000 C 
ATOM     13  C   UNL d   1     -41.480-122.040 -52.583  0.00  0.00     0.002 A 
ENDBRANCH   5   6
BRANCH   1  14
ATOM     14  C   UNL d   1     -41.781-123.293 -49.179  0.00  0.00     0.231 C 
ATOM     15  O   UNL d   1     -41.130-123.346 -48.679  0.00  0.00    -0.643 OA
ATOM     16  O   UNL d   1     -42.539-123.303 -48.869  0.00  0.00    -0.643 OA
ENDBRANCH   1  14
TORSDOF 2
ENDMDL
MODEL 6
REMARK VINA RESULT:      -3.7      0.918      1.356
REMARK  2 active torsions:
REMARK  status: ('A' for Active; 'I' for Inactive)
REMARK    1  A    between atoms: C_6  and  C_1 
REMARK    2  A    between atoms: C_7  and  C_5 
ROOT
ATOM      1  C   UNL d   1     -42.096-122.024 -54.963  0.00  0.00     0.169 A 
ATOM      2  C   UNL d   1     -41.414-122.305 -54.582  0.00  0.00     0.048 A 
ATOM      3  N   UNL d   1     -42.708-121.797 -53.708  0.00  0.00    -0.148 NA
ATOM      4  N   UNL d   1     -42.745-121.769 -54.527  0.00  0.00    -0.142 NA
ATOM      5  C   UNL d   1     -42.032-122.076 -53.325  0.00  0.00     0.105 A 
ENDROOT
BRANCH   5   6
ATOM      6  C   UNL d   1     -41.805-122.180 -52.540  0.00  0.00     0.019 A 
ATOM      7  C   UNL d   1     -41.582-122.930 -52.277  0.00  0.00     0.002 A 
ATOM      8  C   UNL d   1     -41.356-123.035 -51.493  0.00  0.00     0.000 A 
ATOM      9  C   UNL d   1     -41.123-123.813 -51.214  0.00  0.00     0.000 C 
ATOM     10  C   UNL d   1     -41.352-122.390 -50.971  0.00  0.00     0.000 A 
ATOM     11  C   UNL d   1     -41.575-121.645 -51.242  0.00  0.00     0.000 A 
ATOM     12  C   UNL d   1     -41.124-122.498 -50.185  0.00  0.00     0.000 C 
ATOM     13  C   UNL d   1     -41.801-121.538 -52.022  0.00  0.00     0.002 A 
ENDBRANCH   5   6
BRANCH   1  14
ATOM     14  C   UNL d   1     -42.120-122.001 -55.790  0.00  0.00     0.231 C 
ATOM     15  O   UNL d   1     -41.782-122.610 -56.226  0.00  0.00    -0.643 OA
ATOM     16  O   UNL d   1     -42.479-121.372 -56.173  0.00  0.00    -0.643 OA
ENDBRANCH   1  14
TORSDOF 2
ENDMDL
