MODEL 1
REMARK VINA RESULT:      88.5      0.000      0.000
REMARK  5 active torsions:
REMARK  status: ('A' for Active; 'I' for Inactive)
REMARK       I    between atoms: C_3  and  N_1 
REMARK    1  A    between atoms: C_8  and  C_3 
REMARK    2  A    between atoms: S_4  and  N_9 
REMARK    3  A    between atoms: C_16  and  C_5 
REMARK    4  A    between atoms: C_10  and  C_6 
REMARK    5  A    between atoms: N_9  and  C_21 
ROOT
ATOM      1  N   UNL d   1     -56.222 -99.930 -43.892  0.00  0.00    -0.193 N 
ATOM      2  N   UNL d   1     -56.253-100.337 -43.172  0.00  0.00    -0.163 NA
ATOM      3  C   UNL d   1     -56.823 -99.461 -44.206  0.00  0.00     0.303 C 
ATOM      4  C   UNL d   1     -55.481-100.083 -44.234  0.00  0.00     0.088 A 
ATOM      5  C   UNL d   1     -55.539-100.737 -43.069  0.00  0.00     0.103 A 
ATOM      6  C   UNL d   1     -55.067-100.578 -43.727  0.00  0.00     0.040 A 
ATOM      7  O   UNL d   1     -56.706 -99.090 -44.937  0.00  0.00    -0.263 OA
ENDROOT
BRANCH   5   8
ATOM      8  C   UNL d   1     -55.336-101.208 -42.428  0.00  0.00     0.019 A 
ATOM      9  C   UNL d   1     -55.539-102.014 -42.426  0.00  0.00     0.003 A 
ATOM     10  C   UNL d   1     -55.336-102.482 -41.787  0.00  0.00     0.020 A 
ATOM     11  C   UNL d   1     -54.931-102.160 -41.143  0.00  0.00     0.093 A 
ATOM     12  C   UNL d   1     -54.730-101.356 -41.148  0.00  0.00     0.020 A 
ATOM     13  C   UNL d   1     -54.935-100.881 -41.794  0.00  0.00     0.003 A 
BRANCH  11  14
ATOM     14  N   UNL d   1     -54.724-102.625 -40.496  0.00  0.00    -0.162 NA
BRANCH  14  15
ATOM     15  S   UNL d   1     -55.238-102.729 -39.869  0.00  0.00     0.266 S 
ATOM     16  O   UNL d   1     -55.969-102.843 -39.500  0.00  0.00    -0.203 OA
ATOM     17  O   UNL d   1     -55.789-102.759 -40.486  0.00  0.00    -0.203 OA
ATOM     18  C   UNL d   1     -54.711-102.703 -39.239  0.00  0.00     0.165 C 
ENDBRANCH  14  15
ENDBRANCH  11  14
ENDBRANCH   5   8
BRANCH   4  19
ATOM     19  C   UNL d   1     -55.219 -99.790 -44.951  0.00  0.00     0.018 A 
ATOM     20  C   UNL d   1     -54.960 -98.984 -45.000  0.00  0.00     0.002 A 
ATOM     21  C   UNL d   1     -54.712 -98.755 -45.742  0.00  0.00     0.000 A 
ATOM     22  C   UNL d   1     -54.712 -99.263 -46.395  0.00  0.00     0.000 A 
ATOM     23  C   UNL d   1     -54.954-100.012 -46.346  0.00  0.00     0.000 A 
ATOM     24  C   UNL d   1     -55.218-100.300 -45.614  0.00  0.00     0.002 A 
ENDBRANCH   4  19
BRANCH   3  25
ATOM     25  C   UNL d   1     -57.520 -99.365 -43.801  0.00  0.00     0.158 A 
ATOM     26  O   UNL d   1     -58.261 -99.708 -44.006  0.00  0.00    -0.300 OA
ATOM     27  C   UNL d   1     -58.811 -99.462 -43.441  0.00  0.00     0.123 A 
ATOM     28  C   UNL d   1     -58.426 -98.980 -42.900  0.00  0.00     0.029 A 
ATOM     29  C   UNL d   1     -57.633 -98.930 -43.134  0.00  0.00     0.032 A 
ENDBRANCH   3  25
TORSDOF 5
ENDMDL
