MODEL 1
REMARK VINA RESULT:      -5.4      0.000      0.000
REMARK  5 active torsions:
REMARK  status: ('A' for Active; 'I' for Inactive)
REMARK    1  A    between atoms: C_2  and  C_3 
REMARK    2  A    between atoms: S_14  and  C_6 
REMARK    3  A    between atoms: C_7  and  N_12 
REMARK       I    between atoms: N_12  and  C_13 
REMARK    4  A    between atoms: C_13  and  C_20 
REMARK    5  A    between atoms: C_20  and  S_14 
ROOT
ATOM      1  N   UNL d   1     -41.845-122.395 -52.945  0.00  0.00    -0.208 NA
ATOM      2  C   UNL d   1     -41.557-122.748 -52.256  0.00  0.00     0.286 C 
ATOM      3  O   UNL d   1     -41.123-123.452 -52.316  0.00  0.00    -0.265 OA
ENDROOT
BRANCH   2   4
ATOM      4  C   UNL d   1     -41.699-122.406 -51.531  0.00  0.00     0.099 C 
BRANCH   4   5
ATOM      5  S   UNL d   1     -41.580-122.832 -50.840  0.00  0.00    -0.061 SA
BRANCH   5   6
ATOM      6  C   UNL d   1     -42.121-122.780 -50.218  0.00  0.00     0.133 A 
ATOM      7  C   UNL d   1     -41.930-123.098 -49.479  0.00  0.00     0.143 A 
ATOM      8  C   UNL d   1     -42.471-123.046 -48.857  0.00  0.00     0.185 A 
ATOM      9  N   UNL d   1     -41.257-123.491 -49.203  0.00  0.00    -0.219 NA
ATOM     10  N   UNL d   1     -42.128-123.407 -48.204  0.00  0.00    -0.203 NA
ATOM     11  N   UNL d   1     -43.198-122.679 -48.971  0.00  0.00    -0.203 NA
ATOM     12  C   UNL d   1     -41.383-123.679 -48.418  0.00  0.00     0.201 A 
ATOM     13  C   UNL d   1     -43.389-122.363 -49.703  0.00  0.00     0.201 A 
ATOM     14  N   UNL d   1     -42.856-122.410 -50.332  0.00  0.00    -0.216 NA
ENDBRANCH   5   6
ENDBRANCH   4   5
ENDBRANCH   2   4
BRANCH   1  15
ATOM     15  C   UNL d   1     -41.704-122.738 -53.687  0.00  0.00     0.088 A 
ATOM     16  C   UNL d   1     -41.936-122.347 -54.371  0.00  0.00     0.089 A 
ATOM     17  C   UNL d   1     -41.794-122.692 -55.103  0.00  0.00     0.005 A 
ATOM     18  C   UNL d   1     -41.420-123.425 -55.154  0.00  0.00     0.000 A 
ATOM     19  C   UNL d   1     -41.187-123.818 -54.466  0.00  0.00     0.002 A 
ATOM     20  C   UNL d   1     -41.330-123.470 -53.727  0.00  0.00     0.019 A 
BRANCH  16  21
ATOM     21  C   UNL d   1     -42.311-121.612 -54.324  0.00  0.00     0.420 C 
ATOM     22  F   UNL d   1     -42.648-120.938 -54.284  0.00  0.00    -0.166 F 
ATOM     23  F   UNL d   1     -43.126-121.426 -54.131  0.00  0.00    -0.166 F 
ATOM     24  F   UNL d   1     -41.980-120.833 -54.460  0.00  0.00    -0.166 F 
ENDBRANCH  16  21
ENDBRANCH   1  15
TORSDOF 5
ENDMDL
MODEL 2
REMARK VINA RESULT:      -4.7      2.041      4.761
REMARK  5 active torsions:
REMARK  status: ('A' for Active; 'I' for Inactive)
REMARK    1  A    between atoms: C_2  and  C_3 
REMARK    2  A    between atoms: S_14  and  C_6 
REMARK    3  A    between atoms: C_7  and  N_12 
REMARK       I    between atoms: N_12  and  C_13 
REMARK    4  A    between atoms: C_13  and  C_20 
REMARK    5  A    between atoms: C_20  and  S_14 
ROOT
ATOM      1  N   UNL d   1     -42.156-122.602 -50.641  0.00  0.00    -0.208 NA
ATOM      2  C   UNL d   1     -41.707-122.777 -51.313  0.00  0.00     0.286 C 
ATOM      3  O   UNL d   1     -41.125-123.366 -51.265  0.00  0.00    -0.265 OA
ENDROOT
BRANCH   2   4
ATOM      4  C   UNL d   1     -41.838-122.375 -52.008  0.00  0.00     0.099 C 
BRANCH   4   5
ATOM      5  S   UNL d   1     -41.456-122.603 -52.698  0.00  0.00    -0.061 SA
BRANCH   5   6
ATOM      6  C   UNL d   1     -41.750-122.372 -53.435  0.00  0.00     0.133 A 
ATOM      7  C   UNL d   1     -41.571-122.818 -54.108  0.00  0.00     0.143 A 
ATOM      8  C   UNL d   1     -41.864-122.587 -54.844  0.00  0.00     0.185 A 
ATOM      9  N   UNL d   1     -41.123-123.505 -54.212  0.00  0.00    -0.219 NA
ATOM     10  N   UNL d   1     -41.595-123.132 -55.396  0.00  0.00    -0.203 NA
ATOM     11  N   UNL d   1     -42.333-121.915 -54.909  0.00  0.00    -0.203 NA
ATOM     12  C   UNL d   1     -41.140-123.696 -55.007  0.00  0.00     0.201 A 
ATOM     13  C   UNL d   1     -42.512-121.471 -54.244  0.00  0.00     0.201 A 
ATOM     14  N   UNL d   1     -42.224-121.693 -53.502  0.00  0.00    -0.216 NA
ENDBRANCH   5   6
ENDBRANCH   4   5
ENDBRANCH   2   4
BRANCH   1  15
ATOM     15  C   UNL d   1     -42.028-123.008 -49.929  0.00  0.00     0.088 A 
ATOM     16  C   UNL d   1     -42.653-123.134 -49.412  0.00  0.00     0.089 A 
ATOM     17  C   UNL d   1     -42.521-123.537 -48.707  0.00  0.00     0.005 A 
ATOM     18  C   UNL d   1     -41.766-123.813 -48.519  0.00  0.00     0.000 A 
ATOM     19  C   UNL d   1     -41.139-123.685 -49.041  0.00  0.00     0.002 A 
ATOM     20  C   UNL d   1     -41.272-123.279 -49.751  0.00  0.00     0.019 A 
BRANCH  16  21
ATOM     21  C   UNL d   1     -43.411-122.859 -49.596  0.00  0.00     0.420 C 
ATOM     22  F   UNL d   1     -44.100-122.603 -49.761  0.00  0.00    -0.166 F 
ATOM     23  F   UNL d   1     -44.053-123.259 -50.000  0.00  0.00    -0.166 F 
ATOM     24  F   UNL d   1     -43.757-122.093 -49.429  0.00  0.00    -0.166 F 
ENDBRANCH  16  21
ENDBRANCH   1  15
TORSDOF 5
ENDMDL
