MODEL 1
REMARK VINA RESULT:      -4.3      0.000      0.000
REMARK  5 active torsions:
REMARK  status: ('A' for Active; 'I' for Inactive)
REMARK    1  A    between atoms: C_3  and  C_1 
REMARK    2  A    between atoms: C_5  and  C_3 
REMARK    3  A    between atoms: N_8  and  C_5 
REMARK    4  A    between atoms: C_19  and  N_11 
REMARK    5  A    between atoms: C_18  and  C_19 
ROOT
ATOM      1  C   UNL d   1      57.742   0.462  31.631  0.00  0.00     0.110 C 
ATOM      2  C   UNL d   1      58.480   0.574  31.979  0.00  0.00     0.105 C 
ATOM      3  N   UNL d   1      59.208   0.682  32.334  0.00  0.00    -0.191 NA
ENDROOT
BRANCH   1   4
ATOM      4  C   UNL d   1      57.116   0.160  32.076  0.00  0.00     0.122 A 
ATOM      5  N   UNL d   1      56.935  -0.638  32.182  0.00  0.00    -0.238 NA
ATOM      6  C   UNL d   1      56.266  -0.691  32.667  0.00  0.00     0.088 A 
ATOM      7  C   UNL d   1      55.842  -1.336  32.954  0.00  0.00     0.020 A 
ATOM      8  C   UNL d   1      56.033   0.077  32.861  0.00  0.00     0.049 A 
ATOM      9  C   UNL d   1      55.183  -1.205  33.438  0.00  0.00     0.002 A 
ATOM     10  C   UNL d   1      54.951  -0.438  33.632  0.00  0.00     0.001 A 
ATOM     11  C   UNL d   1      55.375   0.206  33.345  0.00  0.00     0.008 A 
ATOM     12  S   UNL d   1      56.558   0.605  32.497  0.00  0.00    -0.066 SA
ENDBRANCH   1   4
BRANCH   1  13
ATOM     13  C   UNL d   1      57.630   0.652  30.838  0.00  0.00     0.093 C 
BRANCH  13  14
ATOM     14  N   UNL d   1      58.069   0.268  30.255  0.00  0.00    -0.299 N 
ATOM     15  C   UNL d   1      57.802  -0.445  29.946  0.00  0.00     0.100 A 
ATOM     16  C   UNL d   1      58.243  -0.831  29.360  0.00  0.00     0.100 A 
ATOM     17  N   UNL d   1      58.953  -0.495  29.088  0.00  0.00    -0.300 N 
ATOM     18  C   UNL d   1      59.214   0.222  29.403  0.00  0.00     0.100 A 
ATOM     19  C   UNL d   1      58.777   0.604  29.984  0.00  0.00     0.100 A 
BRANCH  17  20
ATOM     20  C   UNL d   1      59.395  -0.876  28.505  0.00  0.00     0.080 C 
BRANCH  20  21
ATOM     21  C   UNL d   1      59.863  -1.522  28.700  0.00  0.00     0.020 A 
ATOM     22  C   UNL d   1      59.533  -2.268  28.732  0.00  0.00     0.028 A 
ATOM     23  C   UNL d   1      59.999  -2.917  28.927  0.00  0.00     0.119 A 
ATOM     24  O   UNL d   1      59.815  -3.722  29.001  0.00  0.00    -0.300 OA
ATOM     25  C   UNL d   1      60.799  -2.814  29.090  0.00  0.00     0.119 A 
ATOM     26  C   UNL d   1      60.513  -4.118  29.211  0.00  0.00     0.304 A 
ATOM     27  O   UNL d   1      61.118  -3.558  29.266  0.00  0.00    -0.300 OA
ATOM     28  C   UNL d   1      61.133  -2.060  29.057  0.00  0.00     0.026 A 
ATOM     29  C   UNL d   1      60.663  -1.408  28.861  0.00  0.00     0.004 A 
ENDBRANCH  20  21
ENDBRANCH  17  20
ENDBRANCH  13  14
ENDBRANCH   1  13
TORSDOF 5
ENDMDL
MODEL 2
REMARK VINA RESULT:      -4.3      0.969      1.501
REMARK  5 active torsions:
REMARK  status: ('A' for Active; 'I' for Inactive)
REMARK    1  A    between atoms: C_3  and  C_1 
REMARK    2  A    between atoms: C_5  and  C_3 
REMARK    3  A    between atoms: N_8  and  C_5 
REMARK    4  A    between atoms: C_19  and  N_11 
REMARK    5  A    between atoms: C_18  and  C_19 
ROOT
ATOM      1  C   UNL d   1      56.788   0.055  31.898  0.00  0.00     0.110 C 
ATOM      2  C   UNL d   1      56.922  -0.720  31.653  0.00  0.00     0.105 C 
ATOM      3  N   UNL d   1      57.050  -1.492  31.418  0.00  0.00    -0.191 NA
ENDROOT
BRANCH   1   4
ATOM      4  C   UNL d   1      56.389   0.201  32.606  0.00  0.00     0.122 A 
ATOM      5  N   UNL d   1      55.574   0.286  32.697  0.00  0.00    -0.238 NA
ATOM      6  C   UNL d   1      55.415   0.426  33.497  0.00  0.00     0.088 A 
ATOM      7  C   UNL d   1      54.711   0.552  33.905  0.00  0.00     0.020 A 
ATOM      8  C   UNL d   1      56.134   0.429  33.902  0.00  0.00     0.049 A 
ATOM      9  C   UNL d   1      54.734   0.680  34.723  0.00  0.00     0.002 A 
ATOM     10  C   UNL d   1      55.453   0.682  35.128  0.00  0.00     0.001 A 
ATOM     11  C   UNL d   1      56.156   0.556  34.718  0.00  0.00     0.008 A 
ATOM     12  S   UNL d   1      56.739   0.290  33.352  0.00  0.00    -0.066 SA
ENDBRANCH   1   4
BRANCH   1  13
ATOM     13  C   UNL d   1      57.052   0.682  31.435  0.00  0.00     0.093 C 
BRANCH  13  14
ATOM     14  N   UNL d   1      57.664   0.568  30.894  0.00  0.00    -0.299 N 
ATOM     15  C   UNL d   1      58.440   0.518  31.160  0.00  0.00     0.100 A 
ATOM     16  C   UNL d   1      59.055   0.404  30.615  0.00  0.00     0.100 A 
ATOM     17  N   UNL d   1      58.882   0.339  29.805  0.00  0.00    -0.300 N 
ATOM     18  C   UNL d   1      58.100   0.390  29.546  0.00  0.00     0.100 A 
ATOM     19  C   UNL d   1      57.492   0.504  30.085  0.00  0.00     0.100 A 
BRANCH  17  20
ATOM     20  C   UNL d   1      59.492   0.225  29.261  0.00  0.00     0.080 C 
BRANCH  20  21
ATOM     21  C   UNL d   1      59.891  -0.492  29.235  0.00  0.00     0.020 A 
ATOM     22  C   UNL d   1      59.513  -1.157  28.948  0.00  0.00     0.028 A 
ATOM     23  C   UNL d   1      59.910  -1.877  28.920  0.00  0.00     0.119 A 
ATOM     24  O   UNL d   1      59.668  -2.627  28.662  0.00  0.00    -0.300 OA
ATOM     25  C   UNL d   1      60.689  -1.927  29.182  0.00  0.00     0.119 A 
ATOM     26  C   UNL d   1      60.309  -3.143  28.767  0.00  0.00     0.304 A 
ATOM     27  O   UNL d   1      60.936  -2.712  29.087  0.00  0.00    -0.300 OA
ATOM     28  C   UNL d   1      61.071  -1.255  29.472  0.00  0.00     0.026 A 
ATOM     29  C   UNL d   1      60.670  -0.532  29.499  0.00  0.00     0.004 A 
ENDBRANCH  20  21
ENDBRANCH  17  20
ENDBRANCH  13  14
ENDBRANCH   1  13
TORSDOF 5
ENDMDL
