MODEL 1
REMARK VINA RESULT:      -9.3      0.000      0.000
REMARK  3 active torsions:
REMARK  status: ('A' for Active; 'I' for Inactive)
REMARK    1  A    between atoms: C_5  and  N_1 
REMARK    2  A    between atoms: C_13  and  C_3 
REMARK    3  A    between atoms: C_4  and  C_5 
ROOT
ATOM      1  N   UNL d   1      52.942  32.457  53.549  0.00  0.00    -0.286 N 
ATOM      2  N   UNL d   1      52.081  32.230  52.532  0.00  0.00    -0.224 NA
ATOM      3  C   UNL d   1      52.687  31.892  53.001  0.00  0.00     0.191 A 
ATOM      4  C   UNL d   1      52.498  33.153  53.428  0.00  0.00     0.083 A 
ATOM      5  C   UNL d   1      51.970  33.012  52.803  0.00  0.00     0.099 A 
ATOM      6  C   UNL d   1      52.500  33.900  53.800  0.00  0.00     0.019 A 
ATOM      7  C   UNL d   1      51.446  33.607  52.548  0.00  0.00     0.021 A 
ATOM      8  C   UNL d   1      51.982  34.491  53.549  0.00  0.00     0.002 A 
ATOM      9  C   UNL d   1      51.456  34.345  52.924  0.00  0.00     0.002 A 
ENDROOT
BRANCH   1  10
ATOM     10  C   UNL d   1      53.543  32.197  54.050  0.00  0.00     0.082 C 
BRANCH  10  11
ATOM     11  C   UNL d   1      54.177  32.691  54.221  0.00  0.00     0.018 A 
ATOM     12  C   UNL d   1      54.242  33.034  54.972  0.00  0.00     0.001 A 
ATOM     13  C   UNL d   1      54.875  33.528  55.143  0.00  0.00     0.000 A 
ATOM     14  C   UNL d   1      53.673  32.880  55.544  0.00  0.00     0.000 C 
ATOM     15  C   UNL d   1      54.940  33.870  55.892  0.00  0.00     0.000 C 
ATOM     16  C   UNL d   1      55.445  33.683  54.571  0.00  0.00     0.000 A 
ATOM     17  C   UNL d   1      55.377  33.338  53.821  0.00  0.00     0.000 A 
ATOM     18  C   UNL d   1      54.743  32.844  53.651  0.00  0.00     0.001 A 
ATOM     19  C   UNL d   1      55.939  33.483  53.239  0.00  0.00     0.000 C 
ATOM     20  C   UNL d   1      54.671  32.499  52.909  0.00  0.00     0.000 C 
ENDBRANCH  10  11
ENDBRANCH   1  10
BRANCH   3  21
ATOM     21  C   UNL d   1      52.978  31.126  52.926  0.00  0.00     0.271 C 
ATOM     22  O   UNL d   1      52.532  30.548  52.548  0.00  0.00    -0.280 OA
ENDBRANCH   3  21
TORSDOF 3
ENDMDL
MODEL 2
REMARK VINA RESULT:      -8.4      1.064      2.134
REMARK  3 active torsions:
REMARK  status: ('A' for Active; 'I' for Inactive)
REMARK    1  A    between atoms: C_5  and  N_1 
REMARK    2  A    between atoms: C_13  and  C_3 
REMARK    3  A    between atoms: C_4  and  C_5 
ROOT
ATOM      1  N   UNL d   1      53.103  32.623  53.049  0.00  0.00    -0.286 N 
ATOM      2  N   UNL d   1      51.973  31.979  52.679  0.00  0.00    -0.224 NA
ATOM      3  C   UNL d   1      52.357  32.723  52.704  0.00  0.00     0.191 A 
ATOM      4  C   UNL d   1      53.191  31.817  53.243  0.00  0.00     0.083 A 
ATOM      5  C   UNL d   1      52.497  31.423  53.015  0.00  0.00     0.099 A 
ATOM      6  C   UNL d   1      53.809  31.382  53.597  0.00  0.00     0.019 A 
ATOM      7  C   UNL d   1      52.414  30.603  53.137  0.00  0.00     0.021 A 
ATOM      8  C   UNL d   1      53.731  30.571  53.719  0.00  0.00     0.002 A 
ATOM      9  C   UNL d   1      53.034  30.181  53.490  0.00  0.00     0.002 A 
ENDROOT
BRANCH   1  10
ATOM     10  C   UNL d   1      53.545  33.317  53.109  0.00  0.00     0.082 C 
BRANCH  10  11
ATOM     11  C   UNL d   1      53.862  33.539  53.833  0.00  0.00     0.018 A 
ATOM     12  C   UNL d   1      53.371  33.857  54.418  0.00  0.00     0.001 A 
ATOM     13  C   UNL d   1      53.687  34.080  55.142  0.00  0.00     0.000 A 
ATOM     14  C   UNL d   1      52.567  33.950  54.273  0.00  0.00     0.000 C 
ATOM     15  C   UNL d   1      53.196  34.397  55.726  0.00  0.00     0.000 C 
ATOM     16  C   UNL d   1      54.491  33.987  55.288  0.00  0.00     0.000 A 
ATOM     17  C   UNL d   1      54.980  33.669  54.701  0.00  0.00     0.000 A 
ATOM     18  C   UNL d   1      54.662  33.447  53.976  0.00  0.00     0.001 A 
ATOM     19  C   UNL d   1      55.785  33.570  54.831  0.00  0.00     0.000 C 
ATOM     20  C   UNL d   1      55.142  33.130  53.390  0.00  0.00     0.000 C 
ENDBRANCH  10  11
ENDBRANCH   1  10
BRANCH   3  21
ATOM     21  C   UNL d   1      52.043  33.433  52.429  0.00  0.00     0.271 C 
ATOM     22  O   UNL d   1      51.459  33.432  51.851  0.00  0.00    -0.280 OA
ENDBRANCH   3  21
TORSDOF 3
ENDMDL
MODEL 3
REMARK VINA RESULT:      -8.3      1.478      3.312
REMARK  3 active torsions:
REMARK  status: ('A' for Active; 'I' for Inactive)
REMARK    1  A    between atoms: C_5  and  N_1 
REMARK    2  A    between atoms: C_13  and  C_3 
REMARK    3  A    between atoms: C_4  and  C_5 
ROOT
ATOM      1  N   UNL d   1      53.009  32.602  54.071  0.00  0.00    -0.286 N 
ATOM      2  N   UNL d   1      54.124  31.891  54.351  0.00  0.00    -0.224 NA
ATOM      3  C   UNL d   1      53.711  32.603  54.507  0.00  0.00     0.191 A 
ATOM      4  C   UNL d   1      52.975  31.890  53.638  0.00  0.00     0.083 A 
ATOM      5  C   UNL d   1      53.660  31.455  53.812  0.00  0.00     0.099 A 
ATOM      6  C   UNL d   1      52.414  31.573  53.108  0.00  0.00     0.019 A 
ATOM      7  C   UNL d   1      53.790  30.710  53.462  0.00  0.00     0.021 A 
ATOM      8  C   UNL d   1      52.540  30.836  52.760  0.00  0.00     0.002 A 
ATOM      9  C   UNL d   1      53.227  30.405  52.936  0.00  0.00     0.002 A 
ENDROOT
BRANCH   1  10
ATOM     10  C   UNL d   1      52.544  33.276  54.172  0.00  0.00     0.082 C 
BRANCH  10  11
ATOM     11  C   UNL d   1      52.228  33.658  53.518  0.00  0.00     0.018 A 
ATOM     12  C   UNL d   1      51.418  33.596  53.355  0.00  0.00     0.001 A 
ATOM     13  C   UNL d   1      51.100  33.977  52.702  0.00  0.00     0.000 A 
ATOM     14  C   UNL d   1      50.933  33.153  53.850  0.00  0.00     0.000 C 
ATOM     15  C   UNL d   1      50.293  33.916  52.540  0.00  0.00     0.000 C 
ATOM     16  C   UNL d   1      51.585  34.421  52.207  0.00  0.00     0.000 A 
ATOM     17  C   UNL d   1      52.394  34.481  52.371  0.00  0.00     0.000 A 
ATOM     18  C   UNL d   1      52.711  34.098  53.026  0.00  0.00     0.001 A 
ATOM     19  C   UNL d   1      52.891  34.920  51.886  0.00  0.00     0.000 C 
ATOM     20  C   UNL d   1      53.512  34.155  53.194  0.00  0.00     0.000 C 
ENDBRANCH  10  11
ENDBRANCH   1  10
BRANCH   3  21
ATOM     21  C   UNL d   1      53.966  33.202  55.011  0.00  0.00     0.271 C 
ATOM     22  O   UNL d   1      54.515  33.042  55.602  0.00  0.00    -0.280 OA
ENDBRANCH   3  21
TORSDOF 3
ENDMDL
MODEL 4
REMARK VINA RESULT:      -7.9      1.777      2.422
REMARK  3 active torsions:
REMARK  status: ('A' for Active; 'I' for Inactive)
REMARK    1  A    between atoms: C_5  and  N_1 
REMARK    2  A    between atoms: C_13  and  C_3 
REMARK    3  A    between atoms: C_4  and  C_5 
ROOT
ATOM      1  N   UNL d   1      52.777  34.276  53.521  0.00  0.00    -0.286 N 
ATOM      2  N   UNL d   1      51.971  35.328  53.790  0.00  0.00    -0.224 NA
ATOM      3  C   UNL d   1      52.764  35.058  53.791  0.00  0.00     0.191 A 
ATOM      4  C   UNL d   1      51.993  34.050  53.349  0.00  0.00     0.083 A 
ATOM      5  C   UNL d   1      51.500  34.697  53.515  0.00  0.00     0.099 A 
ATOM      6  C   UNL d   1      51.656  33.342  53.064  0.00  0.00     0.019 A 
ATOM      7  C   UNL d   1      50.676  34.643  53.398  0.00  0.00     0.021 A 
ATOM      8  C   UNL d   1      50.841  33.286  52.947  0.00  0.00     0.002 A 
ATOM      9  C   UNL d   1      50.352  33.936  53.114  0.00  0.00     0.002 A 
ENDROOT
BRANCH   1  10
ATOM     10  C   UNL d   1      53.529  33.938  53.494  0.00  0.00     0.082 C 
BRANCH  10  11
ATOM     11  C   UNL d   1      53.666  33.214  53.856  0.00  0.00     0.018 A 
ATOM     12  C   UNL d   1      53.789  33.178  54.674  0.00  0.00     0.001 A 
ATOM     13  C   UNL d   1      53.926  32.455  55.036  0.00  0.00     0.000 A 
ATOM     14  C   UNL d   1      53.773  33.867  55.121  0.00  0.00     0.000 C 
ATOM     15  C   UNL d   1      54.048  32.419  55.853  0.00  0.00     0.000 C 
ATOM     16  C   UNL d   1      53.942  31.765  54.589  0.00  0.00     0.000 A 
ATOM     17  C   UNL d   1      53.819  31.804  53.771  0.00  0.00     0.000 A 
ATOM     18  C   UNL d   1      53.682  32.529  53.409  0.00  0.00     0.001 A 
ATOM     19  C   UNL d   1      53.831  31.124  53.310  0.00  0.00     0.000 C 
ATOM     20  C   UNL d   1      53.559  32.574  52.599  0.00  0.00     0.000 C 
ENDBRANCH  10  11
ENDBRANCH   1  10
BRANCH   3  21
ATOM     21  C   UNL d   1      53.419  35.501  54.022  0.00  0.00     0.271 C 
ATOM     22  O   UNL d   1      53.332  36.290  54.236  0.00  0.00    -0.280 OA
ENDBRANCH   3  21
TORSDOF 3
ENDMDL
MODEL 5
REMARK VINA RESULT:      -7.6      1.360      3.096
REMARK  3 active torsions:
REMARK  status: ('A' for Active; 'I' for Inactive)
REMARK    1  A    between atoms: C_5  and  N_1 
REMARK    2  A    between atoms: C_13  and  C_3 
REMARK    3  A    between atoms: C_4  and  C_5 
ROOT
ATOM      1  N   UNL d   1      53.091  33.062  53.388  0.00  0.00    -0.286 N 
ATOM      2  N   UNL d   1      52.680  34.270  53.833  0.00  0.00    -0.224 NA
ATOM      3  C   UNL d   1      52.602  33.707  53.218  0.00  0.00     0.191 A 
ATOM      4  C   UNL d   1      53.479  33.215  54.111  0.00  0.00     0.083 A 
ATOM      5  C   UNL d   1      53.225  33.958  54.382  0.00  0.00     0.099 A 
ATOM      6  C   UNL d   1      54.030  32.782  54.563  0.00  0.00     0.019 A 
ATOM      7  C   UNL d   1      53.515  34.270  55.098  0.00  0.00     0.021 A 
ATOM      8  C   UNL d   1      54.319  33.088  55.272  0.00  0.00     0.002 A 
ATOM      9  C   UNL d   1      54.062  33.831  55.539  0.00  0.00     0.002 A 
ENDROOT
BRANCH   1  10
ATOM     10  C   UNL d   1      53.069  32.460  52.824  0.00  0.00     0.082 C 
BRANCH  10  11
ATOM     11  C   UNL d   1      52.964  31.681  53.060  0.00  0.00     0.018 A 
ATOM     12  C   UNL d   1      52.206  31.406  53.250  0.00  0.00     0.001 A 
ATOM     13  C   UNL d   1      52.099  30.628  53.486  0.00  0.00     0.000 A 
ATOM     14  C   UNL d   1      51.562  31.914  53.201  0.00  0.00     0.000 C 
ATOM     15  C   UNL d   1      51.342  30.354  53.675  0.00  0.00     0.000 C 
ATOM     16  C   UNL d   1      52.743  30.119  53.534  0.00  0.00     0.000 A 
ATOM     17  C   UNL d   1      53.500  30.396  53.344  0.00  0.00     0.000 A 
ATOM     18  C   UNL d   1      53.605  31.176  53.108  0.00  0.00     0.001 A 
ATOM     19  C   UNL d   1      54.153  29.900  53.388  0.00  0.00     0.000 C 
ATOM     20  C   UNL d   1      54.353  31.456  52.919  0.00  0.00     0.000 C 
ENDBRANCH  10  11
ENDBRANCH   1  10
BRANCH   3  21
ATOM     21  C   UNL d   1      52.119  33.786  52.556  0.00  0.00     0.271 C 
ATOM     22  O   UNL d   1      51.866  34.529  52.313  0.00  0.00    -0.280 OA
ENDBRANCH   3  21
TORSDOF 3
ENDMDL
MODEL 6
REMARK VINA RESULT:      -7.2      1.128      3.116
REMARK  3 active torsions:
REMARK  status: ('A' for Active; 'I' for Inactive)
REMARK    1  A    between atoms: C_5  and  N_1 
REMARK    2  A    between atoms: C_13  and  C_3 
REMARK    3  A    between atoms: C_4  and  C_5 
ROOT
ATOM      1  N   UNL d   1      53.322  32.443  53.565  0.00  0.00    -0.286 N 
ATOM      2  N   UNL d   1      53.931  31.622  54.450  0.00  0.00    -0.224 NA
ATOM      3  C   UNL d   1      53.494  31.652  53.736  0.00  0.00     0.191 A 
ATOM      4  C   UNL d   1      53.649  32.915  54.169  0.00  0.00     0.083 A 
ATOM      5  C   UNL d   1      54.023  32.409  54.712  0.00  0.00     0.099 A 
ATOM      6  C   UNL d   1      53.661  33.738  54.304  0.00  0.00     0.019 A 
ATOM      7  C   UNL d   1      54.406  32.718  55.385  0.00  0.00     0.021 A 
ATOM      8  C   UNL d   1      54.039  34.046  54.969  0.00  0.00     0.002 A 
ATOM      9  C   UNL d   1      54.411  33.537  55.508  0.00  0.00     0.002 A 
ENDROOT
BRANCH   1  10
ATOM     10  C   UNL d   1      52.890  32.554  52.871  0.00  0.00     0.082 C 
BRANCH  10  11
ATOM     11  C   UNL d   1      52.251  33.070  52.864  0.00  0.00     0.018 A 
ATOM     12  C   UNL d   1      51.526  32.833  53.188  0.00  0.00     0.001 A 
ATOM     13  C   UNL d   1      50.887  33.348  53.182  0.00  0.00     0.000 A 
ATOM     14  C   UNL d   1      51.449  32.083  53.515  0.00  0.00     0.000 C 
ATOM     15  C   UNL d   1      50.164  33.112  53.505  0.00  0.00     0.000 C 
ATOM     16  C   UNL d   1      50.964  34.099  52.855  0.00  0.00     0.000 A 
ATOM     17  C   UNL d   1      51.690  34.333  52.532  0.00  0.00     0.000 A 
ATOM     18  C   UNL d   1      52.329  33.816  52.539  0.00  0.00     0.001 A 
ATOM     19  C   UNL d   1      51.783  35.079  52.202  0.00  0.00     0.000 C 
ATOM     20  C   UNL d   1      53.051  34.042  52.220  0.00  0.00     0.000 C 
ENDBRANCH  10  11
ENDBRANCH   1  10
BRANCH   3  21
ATOM     21  C   UNL d   1      53.274  31.000  53.283  0.00  0.00     0.271 C 
ATOM     22  O   UNL d   1      53.670  30.285  53.366  0.00  0.00    -0.280 OA
ENDBRANCH   3  21
TORSDOF 3
ENDMDL
