MODEL 1
REMARK VINA RESULT:      -3.7      0.000      0.000
REMARK  5 active torsions:
REMARK  status: ('A' for Active; 'I' for Inactive)
REMARK    1  A    between atoms: C_7  and  S_1 
REMARK    2  A    between atoms: N_8  and  S_1 
REMARK    3  A    between atoms: S_2  and  N_4 
REMARK    4  A    between atoms: C_12  and  S_2 
REMARK    5  A    between atoms: N_4  and  C_3 
ROOT
ATOM      1  C   UNL d   1      33.085  19.683 -22.593  0.00  0.00     0.206 A 
ATOM      2  N   UNL d   1      33.191  20.384 -23.022  0.00  0.00    -0.220 NA
ATOM      3  S   UNL d   1      32.995  19.888 -21.796  0.00  0.00    -0.046 SA
ATOM      4  C   UNL d   1      33.070  22.040 -21.198  0.00  0.00     0.105 A 
ATOM      5  C   UNL d   1      33.046  20.714 -21.738  0.00  0.00     0.051 A 
ATOM      6  C   UNL d   1      33.167  21.018 -22.494  0.00  0.00     0.090 A 
ATOM      7  C   UNL d   1      32.998  21.226 -21.087  0.00  0.00     0.021 A 
ATOM      8  C   UNL d   1      33.192  22.340 -21.965  0.00  0.00     0.015 A 
ATOM      9  C   UNL d   1      33.240  21.833 -22.606  0.00  0.00     0.020 A 
ENDROOT
BRANCH   1  10
ATOM     10  N   UNL d   1      33.071  18.919 -22.903  0.00  0.00    -0.132 NA
BRANCH  10  11
ATOM     11  S   UNL d   1      32.831  18.388 -23.485  0.00  0.00     0.287 S 
ATOM     12  O   UNL d   1      33.139  18.884 -24.065  0.00  0.00    -0.198 OA
ATOM     13  O   UNL d   1      32.596  18.047 -22.769  0.00  0.00    -0.198 OA
BRANCH  11  14
ATOM     14  C   UNL d   1      32.469  17.680 -23.698  0.00  0.00     0.105 A 
ATOM     15  C   UNL d   1      31.680  17.687 -23.960  0.00  0.00     0.015 A 
ATOM     16  C   UNL d   1      31.306  16.984 -24.176  0.00  0.00     0.030 A 
ATOM     17  C   UNL d   1      31.712  16.270 -24.134  0.00  0.00     0.140 A 
ATOM     18  C   UNL d   1      32.498  16.255 -23.875  0.00  0.00     0.030 A 
ATOM     19  F   UNL d   1      31.339  15.567 -24.350  0.00  0.00    -0.204 F 
ATOM     20  C   UNL d   1      32.871  16.968 -23.658  0.00  0.00     0.015 A 
ENDBRANCH  11  14
ENDBRANCH  10  11
ENDBRANCH   1  10
BRANCH   4  21
ATOM     21  S   UNL d   1      33.023  22.549 -20.561  0.00  0.00     0.271 S 
ATOM     22  O   UNL d   1      33.238  23.415 -20.991  0.00  0.00    -0.200 OA
ATOM     23  O   UNL d   1      32.795  21.707 -20.043  0.00  0.00    -0.200 OA
BRANCH  21  24
ATOM     24  N   UNL d   1      32.925  22.884 -19.800  0.00  0.00    -0.229 N 
ATOM     25  C   UNL d   1      32.553  23.600 -19.623  0.00  0.00     0.092 A 
ATOM     26  C   UNL d   1      32.589  23.702 -18.805  0.00  0.00     0.021 A 
ATOM     27  C   UNL d   1      32.980  23.056 -18.474  0.00  0.00     0.021 A 
ATOM     28  C   UNL d   1      33.191  22.546 -19.090  0.00  0.00     0.092 A 
ENDBRANCH  21  24
ENDBRANCH   4  21
TORSDOF 5
ENDMDL
MODEL 2
REMARK VINA RESULT:      -2.9      2.174      5.961
REMARK  5 active torsions:
REMARK  status: ('A' for Active; 'I' for Inactive)
REMARK    1  A    between atoms: C_7  and  S_1 
REMARK    2  A    between atoms: N_8  and  S_1 
REMARK    3  A    between atoms: S_2  and  N_4 
REMARK    4  A    between atoms: C_12  and  S_2 
REMARK    5  A    between atoms: N_4  and  C_3 
ROOT
ATOM      1  C   UNL d   1      32.870  21.388 -22.129  0.00  0.00     0.206 A 
ATOM      2  N   UNL d   1      33.105  21.318 -22.920  0.00  0.00    -0.220 NA
ATOM      3  S   UNL d   1      32.690  20.628 -21.852  0.00  0.00    -0.046 SA
ATOM      4  C   UNL d   1      32.896  18.879 -23.229  0.00  0.00     0.105 A 
ATOM      5  C   UNL d   1      32.815  20.094 -22.475  0.00  0.00     0.051 A 
ATOM      6  C   UNL d   1      33.072  20.520 -23.132  0.00  0.00     0.090 A 
ATOM      7  C   UNL d   1      32.727  19.271 -22.523  0.00  0.00     0.021 A 
ATOM      8  C   UNL d   1      33.155  19.317 -23.889  0.00  0.00     0.015 A 
ATOM      9  C   UNL d   1      33.241  20.129 -23.839  0.00  0.00     0.020 A 
ENDROOT
BRANCH   1  10
ATOM     10  N   UNL d   1      32.823  22.087 -21.693  0.00  0.00    -0.132 NA
BRANCH  10  11
ATOM     11  S   UNL d   1      32.520  22.513 -21.057  0.00  0.00     0.287 S 
ATOM     12  O   UNL d   1      31.859  22.713 -21.505  0.00  0.00    -0.198 OA
ATOM     13  O   UNL d   1      33.241  22.206 -20.791  0.00  0.00    -0.198 OA
BRANCH  11  14
ATOM     14  C   UNL d   1      32.589  22.781 -20.281  0.00  0.00     0.105 A 
ATOM     15  C   UNL d   1      32.070  23.368 -20.005  0.00  0.00     0.015 A 
ATOM     16  C   UNL d   1      32.130  23.645 -19.230  0.00  0.00     0.030 A 
ATOM     17  C   UNL d   1      32.704  23.342 -18.725  0.00  0.00     0.140 A 
ATOM     18  C   UNL d   1      33.225  22.757 -18.994  0.00  0.00     0.030 A 
ATOM     19  F   UNL d   1      32.765  23.618 -17.951  0.00  0.00    -0.204 F 
ATOM     20  C   UNL d   1      33.161  22.481 -19.777  0.00  0.00     0.015 A 
ENDBRANCH  11  14
ENDBRANCH  10  11
ENDBRANCH   1  10
BRANCH   4  21
ATOM     21  S   UNL d   1      32.812  18.068 -23.282  0.00  0.00     0.271 S 
ATOM     22  O   UNL d   1      33.241  17.774 -22.439  0.00  0.00    -0.200 OA
ATOM     23  O   UNL d   1      32.356  18.283 -24.163  0.00  0.00    -0.200 OA
BRANCH  21  24
ATOM     24  N   UNL d   1      32.626  17.290 -23.528  0.00  0.00    -0.229 N 
ATOM     25  C   UNL d   1      33.124  16.631 -23.490  0.00  0.00     0.092 A 
ATOM     26  C   UNL d   1      32.706  15.988 -23.793  0.00  0.00     0.021 A 
ATOM     27  C   UNL d   1      31.955  16.242 -24.018  0.00  0.00     0.021 A 
ATOM     28  C   UNL d   1      31.902  17.050 -23.855  0.00  0.00     0.092 A 
ENDBRANCH  21  24
ENDBRANCH   4  21
TORSDOF 5
ENDMDL
MODEL 3
REMARK VINA RESULT:      -2.6      0.858      1.077
REMARK  5 active torsions:
REMARK  status: ('A' for Active; 'I' for Inactive)
REMARK    1  A    between atoms: C_7  and  S_1 
REMARK    2  A    between atoms: N_8  and  S_1 
REMARK    3  A    between atoms: S_2  and  N_4 
REMARK    4  A    between atoms: C_12  and  S_2 
REMARK    5  A    between atoms: N_4  and  C_3 
ROOT
ATOM      1  C   UNL d   1      32.787  19.117 -23.249  0.00  0.00     0.206 A 
ATOM      2  N   UNL d   1      33.058  19.774 -23.675  0.00  0.00    -0.220 NA
ATOM      3  S   UNL d   1      32.593  19.376 -22.486  0.00  0.00    -0.046 SA
ATOM      4  C   UNL d   1      32.861  21.529 -21.953  0.00  0.00     0.105 A 
ATOM      5  C   UNL d   1      32.747  20.190 -22.446  0.00  0.00     0.051 A 
ATOM      6  C   UNL d   1      33.033  20.434 -23.180  0.00  0.00     0.090 A 
ATOM      7  C   UNL d   1      32.660  20.739 -21.831  0.00  0.00     0.021 A 
ATOM      8  C   UNL d   1      33.149  21.769 -22.697  0.00  0.00     0.015 A 
ATOM      9  C   UNL d   1      33.234  21.225 -23.303  0.00  0.00     0.020 A 
ENDROOT
BRANCH   1  10
ATOM     10  N   UNL d   1      32.720  18.345 -23.532  0.00  0.00    -0.132 NA
BRANCH  10  11
ATOM     11  S   UNL d   1      32.395  17.803 -24.059  0.00  0.00     0.287 S 
ATOM     12  O   UNL d   1      32.962  18.007 -24.620  0.00  0.00    -0.198 OA
ATOM     13  O   UNL d   1      31.930  17.749 -23.376  0.00  0.00    -0.198 OA
BRANCH  11  14
ATOM     14  C   UNL d   1      31.828  17.232 -24.234  0.00  0.00     0.105 A 
ATOM     15  C   UNL d   1      31.041  17.465 -24.368  0.00  0.00     0.015 A 
ATOM     16  C   UNL d   1      30.464  16.902 -24.544  0.00  0.00     0.030 A 
ATOM     17  C   UNL d   1      30.663  16.105 -24.589  0.00  0.00     0.140 A 
ATOM     18  C   UNL d   1      31.445  15.866 -24.457  0.00  0.00     0.030 A 
ATOM     19  F   UNL d   1      30.088  15.542 -24.765  0.00  0.00    -0.204 F 
ATOM     20  C   UNL d   1      32.024  16.438 -24.279  0.00  0.00     0.015 A 
ENDBRANCH  11  14
ENDBRANCH  10  11
ENDBRANCH   1  10
BRANCH   4  21
ATOM     21  S   UNL d   1      32.777  22.074 -21.350  0.00  0.00     0.271 S 
ATOM     22  O   UNL d   1      32.380  22.840 -21.837  0.00  0.00    -0.200 OA
ATOM     23  O   UNL d   1      33.181  21.340 -20.777  0.00  0.00    -0.200 OA
BRANCH  21  24
ATOM     24  N   UNL d   1      32.781  22.469 -20.612  0.00  0.00    -0.229 N 
ATOM     25  C   UNL d   1      33.240  22.275 -19.953  0.00  0.00     0.092 A 
ATOM     26  C   UNL d   1      33.059  22.815 -19.357  0.00  0.00     0.021 A 
ATOM     27  C   UNL d   1      32.491  23.341 -19.640  0.00  0.00     0.021 A 
ATOM     28  C   UNL d   1      32.316  23.130 -20.419  0.00  0.00     0.092 A 
ENDBRANCH  21  24
ENDBRANCH   4  21
TORSDOF 5
ENDMDL
