MODEL 1
REMARK VINA RESULT:      30.5      0.000      0.000
REMARK  1 active torsions:
REMARK  status: ('A' for Active; 'I' for Inactive)
REMARK    1  A    between atoms: C_10  and  C_4 
ROOT
ATOM      1  C   UNL d   1      58.817  49.663  50.547  0.00  0.00     0.186 A 
ATOM      2  N   UNL d   1      58.489  49.675  49.778  0.00  0.00    -0.193 N 
ATOM      3  N   UNL d   1      58.319  49.638  51.205  0.00  0.00    -0.214 NA
ATOM      4  C   UNL d   1      59.643  49.682  50.459  0.00  0.00     0.140 A 
ATOM      5  N   UNL d   1      59.112  49.700  49.229  0.00  0.00    -0.058 NA
ATOM      6  N   UNL d   1      59.820  49.704  49.659  0.00  0.00    -0.127 NA
ATOM      7  C   UNL d   1      57.499  49.624  51.110  0.00  0.00     0.142 A 
ATOM      8  C   UNL d   1      57.179  49.635  50.346  0.00  0.00     0.046 A 
ATOM      9  C   UNL d   1      57.672  49.661  49.686  0.00  0.00     0.088 A 
ATOM     10 CL   UNL d   1      57.003  49.598  51.768  0.00  0.00    -0.061 Cl
ATOM     11  C   UNL d   1      56.361  49.621  50.253  0.00  0.00     0.004 A 
ATOM     12  C   UNL d   1      57.341  49.672  48.929  0.00  0.00     0.019 A 
ATOM     13  C   UNL d   1      56.034  49.633  49.499  0.00  0.00     0.000 A 
ATOM     14  C   UNL d   1      56.523  49.658  48.837  0.00  0.00     0.002 A 
ENDROOT
BRANCH   4  15
ATOM     15  C   UNL d   1      60.181  49.678  51.075  0.00  0.00     0.022 A 
ATOM     16  C   UNL d   1      60.990  49.648  50.912  0.00  0.00     0.002 A 
ATOM     17  C   UNL d   1      61.536  49.644  51.533  0.00  0.00     0.000 A 
ATOM     18  C   UNL d   1      61.270  49.670  52.314  0.00  0.00     0.000 A 
ATOM     19  C   UNL d   1      60.458  49.700  52.475  0.00  0.00     0.000 A 
ATOM     20  C   UNL d   1      61.812  49.666  52.933  0.00  0.00     0.000 C 
ATOM     21  C   UNL d   1      59.915  49.704  51.856  0.00  0.00     0.002 A 
ENDBRANCH   4  15
TORSDOF 1
ENDMDL
