MODEL 1
REMARK VINA RESULT:      -6.3      0.000      0.000
REMARK  5 active torsions:
REMARK  status: ('A' for Active; 'I' for Inactive)
REMARK    1  A    between atoms: N_9  and  S_1 
REMARK    2  A    between atoms: C_11  and  S_1 
REMARK    3  A    between atoms: C_5  and  C_10 
REMARK    4  A    between atoms: C_12  and  N_9 
REMARK    5  A    between atoms: C_10  and  C_12 
ROOT
ATOM      1  C   UNL d   1      53.983  32.675  53.692  0.00  0.00     0.041 C 
ENDROOT
BRANCH   1   2
ATOM      2  C   UNL d   1      53.759  33.380  54.059  0.00  0.00     0.090 A 
ATOM      3  N   UNL d   1      53.363  34.007  53.690  0.00  0.00    -0.238 NA
ATOM      4  C   UNL d   1      53.250  34.596  54.259  0.00  0.00     0.111 A 
ATOM      5  C   UNL d   1      52.875  35.330  54.138  0.00  0.00     0.028 C 
ATOM      6  S   UNL d   1      53.571  34.338  54.973  0.00  0.00    -0.066 SA
ATOM      7  C   UNL d   1      53.888  33.581  54.848  0.00  0.00     0.056 A 
ENDBRANCH   1   2
BRANCH   1   8
ATOM      8  C   UNL d   1      53.460  32.047  53.639  0.00  0.00     0.114 C 
BRANCH   8   9
ATOM      9  N   UNL d   1      53.699  31.337  53.261  0.00  0.00    -0.157 NA
BRANCH   9  10
ATOM     10  S   UNL d   1      53.176  30.700  53.231  0.00  0.00     0.286 S 
ATOM     11  O   UNL d   1      52.823  31.027  52.553  0.00  0.00    -0.198 OA
ATOM     12  O   UNL d   1      53.525  30.370  53.907  0.00  0.00    -0.198 OA
BRANCH  10  13
ATOM     13  C   UNL d   1      52.650  30.067  53.195  0.00  0.00     0.117 C 
ATOM     14  C   UNL d   1      52.858  29.348  53.521  0.00  0.00     0.014 C 
ENDBRANCH  10  13
ENDBRANCH   9  10
ENDBRANCH   8   9
ENDBRANCH   1   8
TORSDOF 5
ENDMDL
MODEL 2
REMARK VINA RESULT:      -6.2      1.513      3.919
REMARK  5 active torsions:
REMARK  status: ('A' for Active; 'I' for Inactive)
REMARK    1  A    between atoms: N_9  and  S_1 
REMARK    2  A    between atoms: C_11  and  S_1 
REMARK    3  A    between atoms: C_5  and  C_10 
REMARK    4  A    between atoms: C_12  and  N_9 
REMARK    5  A    between atoms: C_10  and  C_12 
ROOT
ATOM      1  C   UNL d   1      53.733  32.115  53.362  0.00  0.00     0.041 C 
ENDROOT
BRANCH   1   2
ATOM      2  C   UNL d   1      53.430  31.347  53.379  0.00  0.00     0.090 A 
ATOM      3  N   UNL d   1      53.684  30.745  53.888  0.00  0.00    -0.238 NA
ATOM      4  C   UNL d   1      53.234  30.072  53.717  0.00  0.00     0.111 A 
ATOM      5  C   UNL d   1      53.298  29.331  54.091  0.00  0.00     0.028 C 
ATOM      6  S   UNL d   1      52.708  30.255  53.109  0.00  0.00    -0.066 SA
ATOM      7  C   UNL d   1      52.830  31.049  52.900  0.00  0.00     0.056 A 
ENDBRANCH   1   2
BRANCH   1   8
ATOM      8  C   UNL d   1      53.376  32.715  53.792  0.00  0.00     0.114 C 
BRANCH   8   9
ATOM      9  N   UNL d   1      53.714  33.483  53.793  0.00  0.00    -0.157 NA
BRANCH   9  10
ATOM     10  S   UNL d   1      53.322  34.095  54.184  0.00  0.00     0.286 S 
ATOM     11  O   UNL d   1      53.663  33.847  54.901  0.00  0.00    -0.198 OA
ATOM     12  O   UNL d   1      52.980  34.345  53.472  0.00  0.00    -0.198 OA
BRANCH  10  13
ATOM     13  C   UNL d   1      52.935  34.702  54.582  0.00  0.00     0.117 C 
ATOM     14  C   UNL d   1      53.017  35.473  54.323  0.00  0.00     0.014 C 
ENDBRANCH  10  13
ENDBRANCH   9  10
ENDBRANCH   8   9
ENDBRANCH   1   8
TORSDOF 5
ENDMDL
MODEL 3
REMARK VINA RESULT:      -6.1      2.325      3.089
REMARK  5 active torsions:
REMARK  status: ('A' for Active; 'I' for Inactive)
REMARK    1  A    between atoms: N_9  and  S_1 
REMARK    2  A    between atoms: C_11  and  S_1 
REMARK    3  A    between atoms: C_5  and  C_10 
REMARK    4  A    between atoms: C_12  and  N_9 
REMARK    5  A    between atoms: C_10  and  C_12 
ROOT
ATOM      1  C   UNL d   1      53.041  33.021  53.394  0.00  0.00     0.041 C 
ENDROOT
BRANCH   1   2
ATOM      2  C   UNL d   1      53.580  33.029  54.021  0.00  0.00     0.090 A 
ATOM      3  N   UNL d   1      54.147  33.616  54.155  0.00  0.00    -0.238 NA
ATOM      4  C   UNL d   1      54.564  33.405  54.838  0.00  0.00     0.111 A 
ATOM      5  C   UNL d   1      55.188  33.834  55.183  0.00  0.00     0.028 C 
ATOM      6  S   UNL d   1      54.258  32.695  55.124  0.00  0.00    -0.066 SA
ATOM      7  C   UNL d   1      53.645  32.462  54.614  0.00  0.00     0.056 A 
ENDBRANCH   1   2
BRANCH   1   8
ATOM      8  C   UNL d   1      52.332  33.427  53.447  0.00  0.00     0.114 C 
BRANCH   8   9
ATOM      9  N   UNL d   1      51.780  33.386  52.816  0.00  0.00    -0.157 NA
BRANCH   9  10
ATOM     10  S   UNL d   1      51.107  33.862  52.837  0.00  0.00     0.286 S 
ATOM     11  O   UNL d   1      51.477  34.398  52.321  0.00  0.00    -0.198 OA
ATOM     12  O   UNL d   1      50.735  33.330  53.352  0.00  0.00    -0.198 OA
BRANCH  10  13
ATOM     13  C   UNL d   1      50.440  34.343  52.852  0.00  0.00     0.117 C 
ATOM     14  C   UNL d   1      49.953  34.382  52.197  0.00  0.00     0.014 C 
ENDBRANCH  10  13
ENDBRANCH   9  10
ENDBRANCH   8   9
ENDBRANCH   1   8
TORSDOF 5
ENDMDL
MODEL 4
REMARK VINA RESULT:      -5.8      2.387      3.159
REMARK  5 active torsions:
REMARK  status: ('A' for Active; 'I' for Inactive)
REMARK    1  A    between atoms: N_9  and  S_1 
REMARK    2  A    between atoms: C_11  and  S_1 
REMARK    3  A    between atoms: C_5  and  C_10 
REMARK    4  A    between atoms: C_12  and  N_9 
REMARK    5  A    between atoms: C_10  and  C_12 
ROOT
ATOM      1  C   UNL d   1      52.258  32.994  53.446  0.00  0.00     0.041 C 
ENDROOT
BRANCH   1   2
ATOM      2  C   UNL d   1      51.712  33.469  53.048  0.00  0.00     0.090 A 
ATOM      3  N   UNL d   1      50.958  33.666  53.326  0.00  0.00    -0.238 NA
ATOM      4  C   UNL d   1      50.603  34.148  52.756  0.00  0.00     0.111 A 
ATOM      5  C   UNL d   1      49.840  34.479  52.799  0.00  0.00     0.028 C 
ATOM      6  S   UNL d   1      51.131  34.250  52.131  0.00  0.00    -0.066 SA
ATOM      7  C   UNL d   1      51.822  33.827  52.314  0.00  0.00     0.056 A 
ENDBRANCH   1   2
BRANCH   1   8
ATOM      8  C   UNL d   1      52.941  33.317  53.762  0.00  0.00     0.114 C 
BRANCH   8   9
ATOM      9  N   UNL d   1      53.416  32.860  54.282  0.00  0.00    -0.157 NA
BRANCH   9  10
ATOM     10  S   UNL d   1      54.150  33.152  54.520  0.00  0.00     0.286 S 
ATOM     11  O   UNL d   1      54.519  32.671  53.952  0.00  0.00    -0.198 OA
ATOM     12  O   UNL d   1      53.784  33.633  55.088  0.00  0.00    -0.198 OA
BRANCH  10  13
ATOM     13  C   UNL d   1      54.885  33.439  54.752  0.00  0.00     0.117 C 
ATOM     14  C   UNL d   1      55.026  33.608  55.539  0.00  0.00     0.014 C 
ENDBRANCH  10  13
ENDBRANCH   9  10
ENDBRANCH   8   9
ENDBRANCH   1   8
TORSDOF 5
ENDMDL
MODEL 5
REMARK VINA RESULT:      -5.7      2.231      3.798
REMARK  5 active torsions:
REMARK  status: ('A' for Active; 'I' for Inactive)
REMARK    1  A    between atoms: N_9  and  S_1 
REMARK    2  A    between atoms: C_11  and  S_1 
REMARK    3  A    between atoms: C_5  and  C_10 
REMARK    4  A    between atoms: C_12  and  N_9 
REMARK    5  A    between atoms: C_10  and  C_12 
ROOT
ATOM      1  C   UNL d   1      52.829  32.784  52.977  0.00  0.00     0.041 C 
ENDROOT
BRANCH   1   2
ATOM      2  C   UNL d   1      53.049  32.011  53.170  0.00  0.00     0.090 A 
ATOM      3  N   UNL d   1      52.746  31.326  52.817  0.00  0.00    -0.238 NA
ATOM      4  C   UNL d   1      53.117  30.679  53.175  0.00  0.00     0.111 A 
ATOM      5  C   UNL d   1      52.984  29.877  52.996  0.00  0.00     0.028 C 
ATOM      6  S   UNL d   1      53.644  30.960  53.743  0.00  0.00    -0.066 SA
ATOM      7  C   UNL d   1      53.601  31.789  53.739  0.00  0.00     0.056 A 
ENDBRANCH   1   2
BRANCH   1   8
ATOM      8  C   UNL d   1      52.040  32.998  52.943  0.00  0.00     0.114 C 
BRANCH   8   9
ATOM      9  N   UNL d   1      51.829  33.810  52.917  0.00  0.00    -0.157 NA
BRANCH   9  10
ATOM     10  S   UNL d   1      51.062  34.021  52.699  0.00  0.00     0.286 S 
ATOM     11  O   UNL d   1      51.344  34.248  51.951  0.00  0.00    -0.198 OA
ATOM     12  O   UNL d   1      50.778  33.796  53.445  0.00  0.00    -0.198 OA
BRANCH  10  13
ATOM     13  C   UNL d   1      50.300  34.234  52.473  0.00  0.00     0.117 C 
ATOM     14  C   UNL d   1      49.891  34.793  52.906  0.00  0.00     0.014 C 
ENDBRANCH  10  13
ENDBRANCH   9  10
ENDBRANCH   8   9
ENDBRANCH   1   8
TORSDOF 5
ENDMDL
MODEL 6
REMARK VINA RESULT:      -4.9      1.721      3.915
REMARK  5 active torsions:
REMARK  status: ('A' for Active; 'I' for Inactive)
REMARK    1  A    between atoms: N_9  and  S_1 
REMARK    2  A    between atoms: C_11  and  S_1 
REMARK    3  A    between atoms: C_5  and  C_10 
REMARK    4  A    between atoms: C_12  and  N_9 
REMARK    5  A    between atoms: C_10  and  C_12 
ROOT
ATOM      1  C   UNL d   1      53.141  31.815  52.895  0.00  0.00     0.041 C 
ENDROOT
BRANCH   1   2
ATOM      2  C   UNL d   1      53.083  31.017  53.099  0.00  0.00     0.090 A 
ATOM      3  N   UNL d   1      53.612  30.608  53.586  0.00  0.00    -0.238 NA
ATOM      4  C   UNL d   1      53.345  29.827  53.640  0.00  0.00     0.111 A 
ATOM      5  C   UNL d   1      53.705  29.214  54.074  0.00  0.00     0.028 C 
ATOM      6  S   UNL d   1      52.657  29.753  53.192  0.00  0.00    -0.066 SA
ATOM      7  C   UNL d   1      52.494  30.494  52.855  0.00  0.00     0.056 A 
ENDBRANCH   1   2
BRANCH   1   8
ATOM      8  C   UNL d   1      52.712  32.383  53.301  0.00  0.00     0.114 C 
BRANCH   8   9
ATOM      9  N   UNL d   1      52.522  33.108  52.926  0.00  0.00    -0.157 NA
BRANCH   9  10
ATOM     10  S   UNL d   1      52.520  33.804  53.370  0.00  0.00     0.286 S 
ATOM     11  O   UNL d   1      51.710  33.698  53.522  0.00  0.00    -0.198 OA
ATOM     12  O   UNL d   1      53.328  33.912  53.220  0.00  0.00    -0.198 OA
BRANCH  10  13
ATOM     13  C   UNL d   1      52.510  34.496  53.814  0.00  0.00     0.117 C 
ATOM     14  C   UNL d   1      52.136  35.161  53.520  0.00  0.00     0.014 C 
ENDBRANCH  10  13
ENDBRANCH   9  10
ENDBRANCH   8   9
ENDBRANCH   1   8
TORSDOF 5
ENDMDL
MODEL 7
REMARK VINA RESULT:      -4.2      9.960     10.286
REMARK  5 active torsions:
REMARK  status: ('A' for Active; 'I' for Inactive)
REMARK    1  A    between atoms: N_9  and  S_1 
REMARK    2  A    between atoms: C_11  and  S_1 
REMARK    3  A    between atoms: C_5  and  C_10 
REMARK    4  A    between atoms: C_12  and  N_9 
REMARK    5  A    between atoms: C_10  and  C_12 
ROOT
ATOM      1  C   UNL d   1      45.417  29.925  58.808  0.00  0.00     0.041 C 
ENDROOT
BRANCH   1   2
ATOM      2  C   UNL d   1      45.063  30.338  59.429  0.00  0.00     0.090 A 
ATOM      3  N   UNL d   1      45.196  30.198  60.234  0.00  0.00    -0.238 NA
ATOM      4  C   UNL d   1      44.731  30.734  60.658  0.00  0.00     0.111 A 
ATOM      5  C   UNL d   1      44.687  30.797  61.487  0.00  0.00     0.028 C 
ATOM      6  S   UNL d   1      44.315  31.202  60.123  0.00  0.00    -0.066 SA
ATOM      7  C   UNL d   1      44.521  30.955  59.358  0.00  0.00     0.056 A 
ENDBRANCH   1   2
BRANCH   1   8
ATOM      8  C   UNL d   1      45.118  29.203  58.562  0.00  0.00     0.114 C 
BRANCH   8   9
ATOM      9  N   UNL d   1      45.551  28.738  58.013  0.00  0.00    -0.157 NA
BRANCH   9  10
ATOM     10  S   UNL d   1      45.213  28.047  57.715  0.00  0.00     0.286 S 
ATOM     11  O   UNL d   1      44.924  28.474  57.064  0.00  0.00    -0.198 OA
ATOM     12  O   UNL d   1      45.500  27.617  58.364  0.00  0.00    -0.198 OA
BRANCH  10  13
ATOM     13  C   UNL d   1      44.874  27.362  57.412  0.00  0.00     0.117 C 
ATOM     14  C   UNL d   1      45.264  26.937  56.833  0.00  0.00     0.014 C 
ENDBRANCH  10  13
ENDBRANCH   9  10
ENDBRANCH   8   9
ENDBRANCH   1   8
TORSDOF 5
ENDMDL
MODEL 8
REMARK VINA RESULT:      -4.0      9.803     10.920
REMARK  5 active torsions:
REMARK  status: ('A' for Active; 'I' for Inactive)
REMARK    1  A    between atoms: N_9  and  S_1 
REMARK    2  A    between atoms: C_11  and  S_1 
REMARK    3  A    between atoms: C_5  and  C_10 
REMARK    4  A    between atoms: C_12  and  N_9 
REMARK    5  A    between atoms: C_10  and  C_12 
ROOT
ATOM      1  C   UNL d   1      45.564  27.382  57.699  0.00  0.00     0.041 C 
ENDROOT
BRANCH   1   2
ATOM      2  C   UNL d   1      45.193  26.724  57.363  0.00  0.00     0.090 A 
ATOM      3  N   UNL d   1      45.249  26.498  56.569  0.00  0.00    -0.238 NA
ATOM      4  C   UNL d   1      44.794  25.813  56.476  0.00  0.00     0.111 A 
ATOM      5  C   UNL d   1      44.687  25.388  55.768  0.00  0.00     0.028 C 
ATOM      6  S   UNL d   1      44.460  25.618  57.203  0.00  0.00    -0.066 SA
ATOM      7  C   UNL d   1      44.709  26.186  57.756  0.00  0.00     0.056 A 
ENDBRANCH   1   2
BRANCH   1   8
ATOM      8  C   UNL d   1      45.139  28.062  57.864  0.00  0.00     0.114 C 
BRANCH   8   9
ATOM      9  N   UNL d   1      45.539  28.745  58.143  0.00  0.00    -0.157 NA
BRANCH   9  10
ATOM     10  S   UNL d   1      45.100  29.412  58.352  0.00  0.00     0.286 S 
ATOM     11  O   UNL d   1      45.096  29.652  57.556  0.00  0.00    -0.198 OA
ATOM     12  O   UNL d   1      45.103  29.176  59.147  0.00  0.00    -0.198 OA
BRANCH  10  13
ATOM     13  C   UNL d   1      44.663  30.080  58.552  0.00  0.00     0.117 C 
ATOM     14  C   UNL d   1      45.045  30.789  58.688  0.00  0.00     0.014 C 
ENDBRANCH  10  13
ENDBRANCH   9  10
ENDBRANCH   8   9
ENDBRANCH   1   8
TORSDOF 5
ENDMDL
MODEL 9
REMARK VINA RESULT:      -3.9      9.909     10.565
REMARK  5 active torsions:
REMARK  status: ('A' for Active; 'I' for Inactive)
REMARK    1  A    between atoms: N_9  and  S_1 
REMARK    2  A    between atoms: C_11  and  S_1 
REMARK    3  A    between atoms: C_5  and  C_10 
REMARK    4  A    between atoms: C_12  and  N_9 
REMARK    5  A    between atoms: C_10  and  C_12 
ROOT
ATOM      1  C   UNL d   1      45.443  28.237  58.065  0.00  0.00     0.041 C 
ENDROOT
BRANCH   1   2
ATOM      2  C   UNL d   1      45.130  28.948  57.784  0.00  0.00     0.090 A 
ATOM      3  N   UNL d   1      44.998  29.131  56.988  0.00  0.00    -0.238 NA
ATOM      4  C   UNL d   1      44.682  29.894  56.959  0.00  0.00     0.111 A 
ATOM      5  C   UNL d   1      44.462  30.309  56.271  0.00  0.00     0.028 C 
ATOM      6  S   UNL d   1      44.618  30.182  57.729  0.00  0.00    -0.066 SA
ATOM      7  C   UNL d   1      44.897  29.592  58.243  0.00  0.00     0.056 A 
ENDBRANCH   1   2
BRANCH   1   8
ATOM      8  C   UNL d   1      44.961  27.583  58.176  0.00  0.00     0.114 C 
BRANCH   8   9
ATOM      9  N   UNL d   1      45.302  26.848  58.396  0.00  0.00    -0.157 NA
BRANCH   9  10
ATOM     10  S   UNL d   1      44.808  26.209  58.561  0.00  0.00     0.286 S 
ATOM     11  O   UNL d   1      44.764  26.039  57.748  0.00  0.00    -0.198 OA
ATOM     12  O   UNL d   1      44.849  26.375  59.372  0.00  0.00    -0.198 OA
BRANCH  10  13
ATOM     13  C   UNL d   1      44.315  25.569  58.717  0.00  0.00     0.117 C 
ATOM     14  C   UNL d   1      44.612  24.809  58.679  0.00  0.00     0.014 C 
ENDBRANCH  10  13
ENDBRANCH   9  10
ENDBRANCH   8   9
ENDBRANCH   1   8
TORSDOF 5
ENDMDL
