MODEL 1
REMARK VINA RESULT:      91.0      0.000      0.000
REMARK  10 active torsions:
REMARK  status: ('A' for Active; 'I' for Inactive)
REMARK    1  A    between atoms: N_11  and  C_1 
REMARK    2  A    between atoms: C_12  and  C_2 
REMARK    3  A    between atoms: C_4  and  S_15 
REMARK    4  A    between atoms: C_18  and  C_6 
REMARK       I    between atoms: C_16  and  N_11 
REMARK    5  A    between atoms: O_28  and  C_12 
REMARK       I    between atoms: C_13  and  N_17 
REMARK    6  A    between atoms: C_14  and  C_13 
REMARK    7  A    between atoms: S_15  and  C_26 
REMARK    8  A    between atoms: C_26  and  C_16 
REMARK    9  A    between atoms: N_17  and  C_18 
REMARK   10  A    between atoms: C_32  and  O_28 
ROOT
ATOM      1  C   UNL d   1     -56.299-100.517 -42.170  0.00  0.00     0.101 C 
ENDROOT
BRANCH   1   2
ATOM      2  S   UNL d   1     -56.426-101.142 -41.727  0.00  0.00    -0.043 SA
BRANCH   2   3
ATOM      3  C   UNL d   1     -55.810-101.356 -41.204  0.00  0.00     0.202 A 
ATOM      4  N   UNL d   1     -55.831-102.085 -40.812  0.00  0.00    -0.265 N 
ATOM      5  C   UNL d   1     -55.156-102.138 -40.340  0.00  0.00     0.190 A 
ATOM      6  C   UNL d   1     -56.438-102.676 -40.880  0.00  0.00     0.103 C 
ATOM      7  N   UNL d   1     -54.712-101.440 -40.438  0.00  0.00    -0.126 NA
ATOM      8  N   UNL d   1     -55.115-100.958 -40.971  0.00  0.00    -0.121 NA
BRANCH   5   9
ATOM      9  C   UNL d   1     -54.951-102.771 -39.853  0.00  0.00     0.141 C 
BRANCH   9  10
ATOM     10  N   UNL d   1     -54.753-102.642 -39.065  0.00  0.00    -0.202 NA
ATOM     11  C   UNL d   1     -55.329-102.409 -38.522  0.00  0.00     0.302 C 
ATOM     12  O   UNL d   1     -56.111-102.305 -38.777  0.00  0.00    -0.263 OA
BRANCH  11  13
ATOM     13  C   UNL d   1     -55.127-102.278 -37.718  0.00  0.00     0.158 A 
ATOM     14  O   UNL d   1     -54.947-101.525 -37.359  0.00  0.00    -0.300 OA
ATOM     15  C   UNL d   1     -54.776-101.660 -36.540  0.00  0.00     0.123 A 
ATOM     16  C   UNL d   1     -54.848-102.495 -36.386  0.00  0.00     0.029 A 
ATOM     17  C   UNL d   1     -55.064-102.875 -37.112  0.00  0.00     0.032 A 
ENDBRANCH  11  13
ENDBRANCH   9  10
ENDBRANCH   5   9
ENDBRANCH   2   3
ENDBRANCH   1   2
BRANCH   1  18
ATOM     18  C   UNL d   1     -55.862 -99.781 -41.990  0.00  0.00     0.286 C 
ATOM     19  N   UNL d   1     -56.011 -98.962 -42.556  0.00  0.00    -0.201 NA
ATOM     20  O   UNL d   1     -55.351 -99.759 -41.384  0.00  0.00    -0.265 OA
BRANCH  19  21
ATOM     21  C   UNL d   1     -56.554 -98.986 -43.199  0.00  0.00     0.119 A 
ATOM     22  C   UNL d   1     -56.310 -99.125 -43.893  0.00  0.00     0.088 A 
ATOM     23  C   UNL d   1     -57.516 -99.031 -44.354  0.00  0.00     0.013 A 
ATOM     24  C   UNL d   1     -57.982 -99.056 -44.930  0.00  0.00     0.001 A 
ATOM     25  C   UNL d   1     -57.761 -98.892 -43.656  0.00  0.00     0.031 A 
ATOM     26  C   UNL d   1     -58.720 -98.938 -44.818  0.00  0.00     0.001 A 
ATOM     27  C   UNL d   1     -58.967 -98.798 -44.116  0.00  0.00     0.006 A 
ATOM     28  S   UNL d   1     -57.290 -98.868 -43.082  0.00  0.00    -0.068 SA
BRANCH  22  29
ATOM     29  C   UNL d   1     -55.593 -99.271 -44.209  0.00  0.00     0.302 C 
ATOM     30  O   UNL d   1     -55.034 -98.856 -44.014  0.00  0.00    -0.259 OA
BRANCH  29  31
ATOM     31  O   UNL d   1     -55.514 -99.900 -44.755  0.00  0.00    -0.271 OA
BRANCH  31  32
ATOM     32  C   UNL d   1     -54.899-100.394 -45.029  0.00  0.00     0.126 C 
ATOM     33  C   UNL d   1     -54.769-101.202 -45.068  0.00  0.00     0.029 C 
ENDBRANCH  31  32
ENDBRANCH  29  31
ENDBRANCH  22  29
ENDBRANCH  19  21
ENDBRANCH   1  18
TORSDOF 10
ENDMDL
