MODEL 1
REMARK VINA RESULT:      -5.6      0.000      0.000
REMARK  4 active torsions:
REMARK  status: ('A' for Active; 'I' for Inactive)
REMARK    1  A    between atoms: C_2  and  C_1 
REMARK    2  A    between atoms: C_4  and  C_1 
REMARK    3  A    between atoms: C_5  and  C_2 
REMARK    4  A    between atoms: N_6  and  C_5 
ROOT
ATOM      1  C   UNL d   1     -48.529  14.042  22.485  0.00  0.00     0.197 C 
ATOM      2  O   UNL d   1     -48.742  14.036  21.681  0.00  0.00    -0.286 OA
ENDROOT
BRANCH   1   3
ATOM      3  C   UNL d   1     -48.995  14.419  23.031  0.00  0.00     0.061 C 
BRANCH   3   4
ATOM      4  C   UNL d   1     -49.641  14.854  22.792  0.00  0.00     0.084 C 
BRANCH   4   5
ATOM      5  N   UNL d   1     -50.138  15.197  23.354  0.00  0.00    -0.300 N 
ATOM      6  C   UNL d   1     -50.830  14.814  23.579  0.00  0.00     0.100 C 
ATOM      7  C   UNL d   1     -49.940  15.922  23.690  0.00  0.00     0.100 C 
ENDBRANCH   4   5
ENDBRANCH   3   4
ENDBRANCH   1   3
BRANCH   1   8
ATOM      8  C   UNL d   1     -47.823  13.653  22.740  0.00  0.00     0.039 A 
ATOM      9  C   UNL d   1     -47.100  14.054  22.723  0.00  0.00     0.003 A 
ATOM     10  C   UNL d   1     -46.419  13.686  22.967  0.00  0.00     0.000 A 
ATOM     11  C   UNL d   1     -46.452  12.905  23.232  0.00  0.00     0.000 A 
ATOM     12  C   UNL d   1     -47.166  12.488  23.256  0.00  0.00     0.000 A 
ATOM     13  C   UNL d   1     -47.863  12.886  23.000  0.00  0.00     0.003 A 
ENDBRANCH   1   8
TORSDOF 4
ENDMDL
MODEL 2
REMARK VINA RESULT:      -5.5      1.870      3.338
REMARK  4 active torsions:
REMARK  status: ('A' for Active; 'I' for Inactive)
REMARK    1  A    between atoms: C_2  and  C_1 
REMARK    2  A    between atoms: C_4  and  C_1 
REMARK    3  A    between atoms: C_5  and  C_2 
REMARK    4  A    between atoms: N_6  and  C_5 
ROOT
ATOM      1  C   UNL d   1     -48.613  12.925  21.767  0.00  0.00     0.197 C 
ATOM      2  O   UNL d   1     -48.317  12.617  21.053  0.00  0.00    -0.286 OA
ENDROOT
BRANCH   1   3
ATOM      3  C   UNL d   1     -48.106  13.150  22.359  0.00  0.00     0.061 C 
BRANCH   3   4
ATOM      4  C   UNL d   1     -47.300  13.093  22.256  0.00  0.00     0.084 C 
BRANCH   4   5
ATOM      5  N   UNL d   1     -46.790  13.302  22.871  0.00  0.00    -0.300 N 
ATOM      6  C   UNL d   1     -46.590  14.091  22.988  0.00  0.00     0.100 C 
ATOM      7  C   UNL d   1     -46.483  12.720  23.365  0.00  0.00     0.100 C 
ENDBRANCH   4   5
ENDBRANCH   3   4
ENDBRANCH   1   3
BRANCH   1   8
ATOM      8  C   UNL d   1     -49.446  13.005  21.881  0.00  0.00     0.039 A 
ATOM      9  C   UNL d   1     -49.841  13.674  21.596  0.00  0.00     0.003 A 
ATOM     10  C   UNL d   1     -50.641  13.756  21.703  0.00  0.00     0.000 A 
ATOM     11  C   UNL d   1     -51.062  13.167  22.099  0.00  0.00     0.000 A 
ATOM     12  C   UNL d   1     -50.684  12.491  22.391  0.00  0.00     0.000 A 
ATOM     13  C   UNL d   1     -49.853  12.422  22.272  0.00  0.00     0.003 A 
ENDBRANCH   1   8
TORSDOF 4
ENDMDL
MODEL 3
REMARK VINA RESULT:      -5.2      2.337      3.576
REMARK  4 active torsions:
REMARK  status: ('A' for Active; 'I' for Inactive)
REMARK    1  A    between atoms: C_2  and  C_1 
REMARK    2  A    between atoms: C_4  and  C_1 
REMARK    3  A    between atoms: C_5  and  C_2 
REMARK    4  A    between atoms: N_6  and  C_5 
ROOT
ATOM      1  C   UNL d   1     -48.219  11.867  23.044  0.00  0.00     0.197 C 
ATOM      2  O   UNL d   1     -47.897  11.110  23.169  0.00  0.00    -0.286 OA
ENDROOT
BRANCH   1   3
ATOM      3  C   UNL d   1     -47.734  12.510  22.951  0.00  0.00     0.061 C 
BRANCH   3   4
ATOM      4  C   UNL d   1     -46.937  12.453  23.111  0.00  0.00     0.084 C 
BRANCH   4   5
ATOM      5  N   UNL d   1     -46.437  13.086  22.940  0.00  0.00    -0.300 N 
ATOM      6  C   UNL d   1     -45.833  12.996  22.389  0.00  0.00     0.100 C 
ATOM      7  C   UNL d   1     -46.542  13.808  23.321  0.00  0.00     0.100 C 
ENDBRANCH   4   5
ENDBRANCH   3   4
ENDBRANCH   1   3
BRANCH   1   8
ATOM      8  C   UNL d   1     -49.057  11.971  23.015  0.00  0.00     0.039 A 
ATOM      9  C   UNL d   1     -49.513  11.870  23.698  0.00  0.00     0.003 A 
ATOM     10  C   UNL d   1     -50.318  11.968  23.675  0.00  0.00     0.000 A 
ATOM     11  C   UNL d   1     -50.682  12.171  22.963  0.00  0.00     0.000 A 
ATOM     12  C   UNL d   1     -50.244  12.277  22.270  0.00  0.00     0.000 A 
ATOM     13  C   UNL d   1     -49.409  12.171  22.312  0.00  0.00     0.003 A 
ENDBRANCH   1   8
TORSDOF 4
ENDMDL
MODEL 4
REMARK VINA RESULT:      -4.6      8.722     10.010
REMARK  4 active torsions:
REMARK  status: ('A' for Active; 'I' for Inactive)
REMARK    1  A    between atoms: C_2  and  C_1 
REMARK    2  A    between atoms: C_4  and  C_1 
REMARK    3  A    between atoms: C_5  and  C_2 
REMARK    4  A    between atoms: N_6  and  C_5 
ROOT
ATOM      1  C   UNL d   1     -40.175  14.102  18.222  0.00  0.00     0.197 C 
ATOM      2  O   UNL d   1     -40.948  13.826  18.085  0.00  0.00    -0.286 OA
ENDROOT
BRANCH   1   3
ATOM      3  C   UNL d   1     -39.999  14.515  18.897  0.00  0.00     0.061 C 
BRANCH   3   4
ATOM      4  C   UNL d   1     -40.576  14.659  19.455  0.00  0.00     0.084 C 
BRANCH   4   5
ATOM      5  N   UNL d   1     -40.392  15.086  20.137  0.00  0.00    -0.300 N 
ATOM      6  C   UNL d   1     -40.468  15.904  20.141  0.00  0.00     0.100 C 
ATOM      7  C   UNL d   1     -40.133  14.692  20.811  0.00  0.00     0.100 C 
ENDBRANCH   4   5
ENDBRANCH   3   4
ENDBRANCH   1   3
BRANCH   1   8
ATOM      8  C   UNL d   1     -39.566  13.954  17.655  0.00  0.00     0.039 A 
ATOM      9  C   UNL d   1     -39.088  13.283  17.725  0.00  0.00     0.003 A 
ATOM     10  C   UNL d   1     -38.502  13.136  17.184  0.00  0.00     0.000 A 
ATOM     11  C   UNL d   1     -38.383  13.663  16.560  0.00  0.00     0.000 A 
ATOM     12  C   UNL d   1     -38.850  14.340  16.474  0.00  0.00     0.000 A 
ATOM     13  C   UNL d   1     -39.455  14.477  17.044  0.00  0.00     0.003 A 
ENDBRANCH   1   8
TORSDOF 4
ENDMDL
