MODEL 1
REMARK VINA RESULT:      -2.7      0.000      0.000
REMARK  1 active torsions:
REMARK  status: ('A' for Active; 'I' for Inactive)
REMARK    1  A    between atoms: N_13  and  C_2 
ROOT
ATOM      1  C   UNL d   1      59.312  -9.816  30.949  0.00  0.00     0.024 A 
ATOM      2  C   UNL d   1      59.824  -9.816  31.597  0.00  0.00     0.138 A 
ATOM      3  C   UNL d   1      59.518  -9.816  32.365  0.00  0.00     0.282 A 
ATOM      4  C   UNL d   1      58.498  -9.815  31.068  0.00  0.00     0.021 A 
ATOM      5  N   UNL d   1      58.702  -9.816  32.475  0.00  0.00    -0.271 N 
ATOM      6  C   UNL d   1      58.187  -9.816  31.830  0.00  0.00     0.067 A 
ATOM      7  C   UNL d   1      59.617  -9.815  30.186  0.00  0.00     0.005 A 
ATOM      8  C   UNL d   1      57.988  -9.815  30.409  0.00  0.00     0.040 A 
ATOM      9  C   UNL d   1      58.297  -9.815  29.643  0.00  0.00     0.196 A 
ATOM     10  C   UNL d   1      59.113  -9.815  29.534  0.00  0.00     0.039 A 
ATOM     11  O   UNL d   1      60.022  -9.817  33.017  0.00  0.00    -0.265 OA
ATOM     12  O   UNL d   1      57.792  -9.815  28.990  0.00  0.00    -0.287 OA
ATOM     13  C   UNL d   1      58.399  -9.816  33.247  0.00  0.00     0.102 C 
ATOM     14  C   UNL d   1      57.379  -9.815  31.950  0.00  0.00     0.018 A 
ATOM     15  C   UNL d   1      57.171  -9.815  30.530  0.00  0.00     0.003 A 
ATOM     16  C   UNL d   1      60.437  -9.816  30.074  0.00  0.00     0.000 A 
ATOM     17  C   UNL d   1      59.427  -9.815  28.768  0.00  0.00     0.003 A 
ATOM     18  C   UNL d   1      56.856  -9.815  31.295  0.00  0.00     0.002 A 
ATOM     19  C   UNL d   1      60.748  -9.816  29.311  0.00  0.00     0.000 A 
ATOM     20  C   UNL d   1      60.244  -9.815  28.659  0.00  0.00     0.000 A 
ENDROOT
BRANCH   2  21
ATOM     21  N   UNL d   1      60.637  -9.816  31.483  0.00  0.00    -0.238 NA
ATOM     22  C   UNL d   1      61.114  -9.292  31.906  0.00  0.00     0.120 C 
ENDBRANCH   2  21
TORSDOF 1
ENDMDL
MODEL 2
REMARK VINA RESULT:      -2.4      1.156      2.380
REMARK  1 active torsions:
REMARK  status: ('A' for Active; 'I' for Inactive)
REMARK    1  A    between atoms: N_13  and  C_2 
ROOT
ATOM      1  C   UNL d   1      58.894  -9.814  31.023  0.00  0.00     0.024 A 
ATOM      2  C   UNL d   1      58.151  -9.813  31.384  0.00  0.00     0.138 A 
ATOM      3  C   UNL d   1      58.092  -9.812  32.208  0.00  0.00     0.282 A 
ATOM      4  C   UNL d   1      59.575  -9.814  31.485  0.00  0.00     0.021 A 
ATOM      5  N   UNL d   1      58.778  -9.812  32.663  0.00  0.00    -0.271 N 
ATOM      6  C   UNL d   1      59.522  -9.813  32.307  0.00  0.00     0.067 A 
ATOM      7  C   UNL d   1      58.951  -9.814  30.204  0.00  0.00     0.005 A 
ATOM      8  C   UNL d   1      60.321  -9.814  31.114  0.00  0.00     0.040 A 
ATOM      9  C   UNL d   1      60.377  -9.815  30.290  0.00  0.00     0.196 A 
ATOM     10  C   UNL d   1      59.690  -9.815  29.836  0.00  0.00     0.039 A 
ATOM     11  O   UNL d   1      57.353  -9.811  32.575  0.00  0.00    -0.265 OA
ATOM     12  O   UNL d   1      61.116  -9.816  29.923  0.00  0.00    -0.287 OA
ATOM     13  C   UNL d   1      58.715  -9.811  33.490  0.00  0.00     0.102 C 
ATOM     14  C   UNL d   1      60.198  -9.813  32.767  0.00  0.00     0.018 A 
ATOM     15  C   UNL d   1      61.003  -9.814  31.579  0.00  0.00     0.003 A 
ATOM     16  C   UNL d   1      58.263  -9.814  29.745  0.00  0.00     0.000 A 
ATOM     17  C   UNL d   1      59.741  -9.816  29.011  0.00  0.00     0.003 A 
ATOM     18  C   UNL d   1      60.954  -9.814  32.405  0.00  0.00     0.002 A 
ATOM     19  C   UNL d   1      58.315  -9.815  28.923  0.00  0.00     0.000 A 
ATOM     20  C   UNL d   1      59.053  -9.816  28.556  0.00  0.00     0.000 A 
ENDROOT
BRANCH   2  21
ATOM     21  N   UNL d   1      57.468  -9.813  30.927  0.00  0.00    -0.238 NA
ATOM     22  C   UNL d   1      56.728  -9.814  31.291  0.00  0.00     0.120 C 
ENDBRANCH   2  21
TORSDOF 1
ENDMDL
MODEL 3
REMARK VINA RESULT:      -1.3     10.426     10.956
REMARK  1 active torsions:
REMARK  status: ('A' for Active; 'I' for Inactive)
REMARK    1  A    between atoms: N_13  and  C_2 
ROOT
ATOM      1  C   UNL d   1      58.796   0.584  30.593  0.00  0.00     0.024 A 
ATOM      2  C   UNL d   1      58.692   0.551  29.774  0.00  0.00     0.138 A 
ATOM      3  C   UNL d   1      59.350   0.547  29.274  0.00  0.00     0.282 A 
ATOM      4  C   UNL d   1      59.554   0.612  30.910  0.00  0.00     0.021 A 
ATOM      5  N   UNL d   1      60.106   0.576  29.600  0.00  0.00    -0.271 N 
ATOM      6  C   UNL d   1      60.214   0.608  30.417  0.00  0.00     0.067 A 
ATOM      7  C   UNL d   1      58.141   0.588  31.088  0.00  0.00     0.005 A 
ATOM      8  C   UNL d   1      59.651   0.645  31.737  0.00  0.00     0.040 A 
ATOM      9  C   UNL d   1      58.991   0.649  32.234  0.00  0.00     0.196 A 
ATOM     10  C   UNL d   1      58.236   0.621  31.907  0.00  0.00     0.039 A 
ATOM     11  O   UNL d   1      59.255   0.515  28.455  0.00  0.00    -0.265 OA
ATOM     12  O   UNL d   1      59.086   0.682  33.053  0.00  0.00    -0.287 OA
ATOM     13  C   UNL d   1      60.764   0.571  29.095  0.00  0.00     0.102 C 
ATOM     14  C   UNL d   1      60.968   0.636  30.731  0.00  0.00     0.018 A 
ATOM     15  C   UNL d   1      60.412   0.673  32.054  0.00  0.00     0.003 A 
ATOM     16  C   UNL d   1      57.381   0.560  30.763  0.00  0.00     0.000 A 
ATOM     17  C   UNL d   1      57.572   0.625  32.400  0.00  0.00     0.003 A 
ATOM     18  C   UNL d   1      61.077   0.669  31.561  0.00  0.00     0.002 A 
ATOM     19  C   UNL d   1      56.721   0.564  31.255  0.00  0.00     0.000 A 
ATOM     20  C   UNL d   1      56.816   0.596  32.073  0.00  0.00     0.000 A 
ENDROOT
BRANCH   2  21
ATOM     21  N   UNL d   1      57.937   0.523  29.452  0.00  0.00    -0.238 NA
ATOM     22  C   UNL d   1      57.824   0.676  28.649  0.00  0.00     0.120 C 
ENDBRANCH   2  21
TORSDOF 1
ENDMDL
MODEL 4
REMARK VINA RESULT:      -1.2      0.551      2.599
REMARK  1 active torsions:
REMARK  status: ('A' for Active; 'I' for Inactive)
REMARK    1  A    between atoms: N_13  and  C_2 
ROOT
ATOM      1  C   UNL d   1      58.659  -9.801  30.888  0.00  0.00     0.024 A 
ATOM      2  C   UNL d   1      59.060  -9.801  31.609  0.00  0.00     0.138 A 
ATOM      3  C   UNL d   1      59.887  -9.795  31.622  0.00  0.00     0.282 A 
ATOM      4  C   UNL d   1      59.082  -9.795  30.182  0.00  0.00     0.021 A 
ATOM      5  N   UNL d   1      60.303  -9.789  30.911  0.00  0.00    -0.271 N 
ATOM      6  C   UNL d   1      59.905  -9.789  30.188  0.00  0.00     0.067 A 
ATOM      7  C   UNL d   1      57.838  -9.806  30.876  0.00  0.00     0.005 A 
ATOM      8  C   UNL d   1      58.670  -9.795  29.458  0.00  0.00     0.040 A 
ATOM      9  C   UNL d   1      57.844  -9.800  29.448  0.00  0.00     0.196 A 
ATOM     10  C   UNL d   1      57.429  -9.806  30.160  0.00  0.00     0.039 A 
ATOM     11  O   UNL d   1      60.295  -9.795  32.339  0.00  0.00    -0.265 OA
ATOM     12  O   UNL d   1      57.435  -9.800  28.731  0.00  0.00    -0.287 OA
ATOM     13  C   UNL d   1      61.132  -9.784  30.928  0.00  0.00     0.102 C 
ATOM     14  C   UNL d   1      60.326  -9.783  29.488  0.00  0.00     0.018 A 
ATOM     15  C   UNL d   1      59.095  -9.789  28.751  0.00  0.00     0.003 A 
ATOM     16  C   UNL d   1      57.418  -9.812  31.589  0.00  0.00     0.000 A 
ATOM     17  C   UNL d   1      56.602  -9.812  30.156  0.00  0.00     0.003 A 
ATOM     18  C   UNL d   1      59.922  -9.783  28.754  0.00  0.00     0.002 A 
ATOM     19  C   UNL d   1      56.595  -9.817  31.584  0.00  0.00     0.000 A 
ATOM     20  C   UNL d   1      56.187  -9.817  30.867  0.00  0.00     0.000 A 
ENDROOT
BRANCH   2  21
ATOM     21  N   UNL d   1      58.643  -9.807  32.317  0.00  0.00    -0.238 NA
ATOM     22  C   UNL d   1      58.960  -9.444  32.987  0.00  0.00     0.120 C 
ENDBRANCH   2  21
TORSDOF 1
ENDMDL
MODEL 5
REMARK VINA RESULT:      -0.9     10.506     10.819
REMARK  1 active torsions:
REMARK  status: ('A' for Active; 'I' for Inactive)
REMARK    1  A    between atoms: N_13  and  C_2 
ROOT
ATOM      1  C   UNL d   1      58.725   0.675  31.342  0.00  0.00     0.024 A 
ATOM      2  C   UNL d   1      59.534   0.673  31.508  0.00  0.00     0.138 A 
ATOM      3  C   UNL d   1      60.083   0.671  30.890  0.00  0.00     0.282 A 
ATOM      4  C   UNL d   1      58.466   0.674  30.560  0.00  0.00     0.021 A 
ATOM      5  N   UNL d   1      59.816   0.671  30.111  0.00  0.00    -0.271 N 
ATOM      6  C   UNL d   1      59.008   0.672  29.941  0.00  0.00     0.067 A 
ATOM      7  C   UNL d   1      58.180   0.676  31.956  0.00  0.00     0.005 A 
ATOM      8  C   UNL d   1      57.649   0.675  30.400  0.00  0.00     0.040 A 
ATOM      9  C   UNL d   1      57.102   0.677  31.020  0.00  0.00     0.196 A 
ATOM     10  C   UNL d   1      57.371   0.678  31.798  0.00  0.00     0.039 A 
ATOM     11  O   UNL d   1      60.893   0.670  31.049  0.00  0.00    -0.265 OA
ATOM     12  O   UNL d   1      56.293   0.678  30.861  0.00  0.00    -0.287 OA
ATOM     13  C   UNL d   1      60.370   0.669  29.494  0.00  0.00     0.102 C 
ATOM     14  C   UNL d   1      58.753   0.671  29.164  0.00  0.00     0.018 A 
ATOM     15  C   UNL d   1      57.391   0.674  29.616  0.00  0.00     0.003 A 
ATOM     16  C   UNL d   1      58.447   0.677  32.739  0.00  0.00     0.000 A 
ATOM     17  C   UNL d   1      56.828   0.679  32.422  0.00  0.00     0.003 A 
ATOM     18  C   UNL d   1      57.933   0.672  28.991  0.00  0.00     0.002 A 
ATOM     19  C   UNL d   1      57.905   0.679  33.360  0.00  0.00     0.000 A 
ATOM     20  C   UNL d   1      57.096   0.680  33.201  0.00  0.00     0.000 A 
ENDROOT
BRANCH   2  21
ATOM     21  N   UNL d   1      59.797   0.674  32.286  0.00  0.00    -0.238 NA
ATOM     22  C   UNL d   1      60.606   0.676  32.449  0.00  0.00     0.120 C 
ENDBRANCH   2  21
TORSDOF 1
ENDMDL
MODEL 6
REMARK VINA RESULT:      -0.9      9.122      9.526
REMARK  1 active torsions:
REMARK  status: ('A' for Active; 'I' for Inactive)
REMARK    1  A    between atoms: N_13  and  C_2 
ROOT
ATOM      1  C   UNL d   1      59.216  -0.497  30.023  0.00  0.00     0.024 A 
ATOM      2  C   UNL d   1      59.860   0.021  30.014  0.00  0.00     0.138 A 
ATOM      3  C   UNL d   1      60.487  -0.108  29.491  0.00  0.00     0.282 A 
ATOM      4  C   UNL d   1      59.201  -1.142  29.512  0.00  0.00     0.021 A 
ATOM      5  N   UNL d   1      60.463  -0.756  28.983  0.00  0.00    -0.271 N 
ATOM      6  C   UNL d   1      59.823  -1.276  28.990  0.00  0.00     0.067 A 
ATOM      7  C   UNL d   1      58.594  -0.368  30.543  0.00  0.00     0.005 A 
ATOM      8  C   UNL d   1      58.549  -1.660  29.527  0.00  0.00     0.040 A 
ATOM      9  C   UNL d   1      57.924  -1.529  30.051  0.00  0.00     0.196 A 
ATOM     10  C   UNL d   1      57.948  -0.881  30.558  0.00  0.00     0.039 A 
ATOM     11  O   UNL d   1      61.133   0.405  29.476  0.00  0.00    -0.265 OA
ATOM     12  O   UNL d   1      57.278  -2.042  30.066  0.00  0.00    -0.287 OA
ATOM     13  C   UNL d   1      61.095  -0.882  28.461  0.00  0.00     0.102 C 
ATOM     14  C   UNL d   1      59.809  -1.916  28.481  0.00  0.00     0.018 A 
ATOM     15  C   UNL d   1      58.535  -2.307  29.014  0.00  0.00     0.003 A 
ATOM     16  C   UNL d   1      58.616   0.282  31.054  0.00  0.00     0.000 A 
ATOM     17  C   UNL d   1      57.324  -0.744  31.084  0.00  0.00     0.003 A 
ATOM     18  C   UNL d   1      59.158  -2.444  28.488  0.00  0.00     0.002 A 
ATOM     19  C   UNL d   1      57.994   0.417  31.577  0.00  0.00     0.000 A 
ATOM     20  C   UNL d   1      57.349  -0.096  31.592  0.00  0.00     0.000 A 
ENDROOT
BRANCH   2  21
ATOM     21  N   UNL d   1      59.880   0.666  30.522  0.00  0.00    -0.238 NA
ATOM     22  C   UNL d   1      60.417   0.682  31.149  0.00  0.00     0.120 C 
ENDBRANCH   2  21
TORSDOF 1
ENDMDL
MODEL 7
REMARK VINA RESULT:      -0.8     10.469     10.471
REMARK  1 active torsions:
REMARK  status: ('A' for Active; 'I' for Inactive)
REMARK    1  A    between atoms: N_13  and  C_2 
ROOT
ATOM      1  C   UNL d   1      59.058   0.679  30.857  0.00  0.00     0.024 A 
ATOM      2  C   UNL d   1      59.614   0.679  31.468  0.00  0.00     0.138 A 
ATOM      3  C   UNL d   1      59.363   0.679  32.255  0.00  0.00     0.282 A 
ATOM      4  C   UNL d   1      58.254   0.680  31.034  0.00  0.00     0.021 A 
ATOM      5  N   UNL d   1      58.557   0.680  32.423  0.00  0.00    -0.271 N 
ATOM      6  C   UNL d   1      57.998   0.680  31.816  0.00  0.00     0.067 A 
ATOM      7  C   UNL d   1      59.309   0.678  30.075  0.00  0.00     0.005 A 
ATOM      8  C   UNL d   1      57.699   0.680  30.412  0.00  0.00     0.040 A 
ATOM      9  C   UNL d   1      57.953   0.679  29.626  0.00  0.00     0.196 A 
ATOM     10  C   UNL d   1      58.759   0.678  29.460  0.00  0.00     0.039 A 
ATOM     11  O   UNL d   1      59.913   0.679  32.871  0.00  0.00    -0.265 OA
ATOM     12  O   UNL d   1      57.403   0.679  29.011  0.00  0.00    -0.287 OA
ATOM     13  C   UNL d   1      58.309   0.681  33.215  0.00  0.00     0.102 C 
ATOM     14  C   UNL d   1      57.200   0.681  31.993  0.00  0.00     0.018 A 
ATOM     15  C   UNL d   1      56.893   0.680  30.591  0.00  0.00     0.003 A 
ATOM     16  C   UNL d   1      60.118   0.678  29.905  0.00  0.00     0.000 A 
ATOM     17  C   UNL d   1      59.019   0.678  28.674  0.00  0.00     0.003 A 
ATOM     18  C   UNL d   1      56.633   0.681  31.376  0.00  0.00     0.002 A 
ATOM     19  C   UNL d   1      60.375   0.677  29.122  0.00  0.00     0.000 A 
ATOM     20  C   UNL d   1      59.825   0.677  28.507  0.00  0.00     0.000 A 
ENDROOT
BRANCH   2  21
ATOM     21  N   UNL d   1      60.418   0.678  31.297  0.00  0.00    -0.238 NA
ATOM     22  C   UNL d   1      60.969   0.571  31.902  0.00  0.00     0.120 C 
ENDBRANCH   2  21
TORSDOF 1
ENDMDL
MODEL 8
REMARK VINA RESULT:      -0.5      8.343      8.751
REMARK  1 active torsions:
REMARK  status: ('A' for Active; 'I' for Inactive)
REMARK    1  A    between atoms: N_13  and  C_2 
ROOT
ATOM      1  C   UNL d   1      59.073  -1.639  29.477  0.00  0.00     0.024 A 
ATOM      2  C   UNL d   1      58.384  -1.335  29.817  0.00  0.00     0.138 A 
ATOM      3  C   UNL d   1      58.379  -0.568  30.124  0.00  0.00     0.282 A 
ATOM      4  C   UNL d   1      59.754  -1.178  29.446  0.00  0.00     0.021 A 
ATOM      5  N   UNL d   1      59.065  -0.113  30.089  0.00  0.00    -0.271 N 
ATOM      6  C   UNL d   1      59.755  -0.413  29.750  0.00  0.00     0.067 A 
ATOM      7  C   UNL d   1      59.077  -2.401  29.172  0.00  0.00     0.005 A 
ATOM      8  C   UNL d   1      60.445  -1.491  29.102  0.00  0.00     0.040 A 
ATOM      9  C   UNL d   1      60.447  -2.258  28.795  0.00  0.00     0.196 A 
ATOM     10  C   UNL d   1      59.761  -2.712  28.832  0.00  0.00     0.039 A 
ATOM     11  O   UNL d   1      57.695  -0.257  30.465  0.00  0.00    -0.265 OA
ATOM     12  O   UNL d   1      61.131  -2.569  28.455  0.00  0.00    -0.287 OA
ATOM     13  C   UNL d   1      59.056   0.656  30.398  0.00  0.00     0.102 C 
ATOM     14  C   UNL d   1      60.430   0.046  29.720  0.00  0.00     0.018 A 
ATOM     15  C   UNL d   1      61.127  -1.027  29.071  0.00  0.00     0.003 A 
ATOM     16  C   UNL d   1      58.390  -2.860  29.207  0.00  0.00     0.000 A 
ATOM     17  C   UNL d   1      59.758  -3.481  28.526  0.00  0.00     0.003 A 
ATOM     18  C   UNL d   1      61.131  -0.259  29.376  0.00  0.00     0.002 A 
ATOM     19  C   UNL d   1      58.388  -3.625  28.903  0.00  0.00     0.000 A 
ATOM     20  C   UNL d   1      59.072  -3.936  28.562  0.00  0.00     0.000 A 
ENDROOT
BRANCH   2  21
ATOM     21  N   UNL d   1      57.702  -1.791  29.851  0.00  0.00    -0.238 NA
ATOM     22  C   UNL d   1      57.312  -1.899  30.570  0.00  0.00     0.120 C 
ENDBRANCH   2  21
TORSDOF 1
ENDMDL
MODEL 9
REMARK VINA RESULT:      -0.3     10.799     11.186
REMARK  1 active torsions:
REMARK  status: ('A' for Active; 'I' for Inactive)
REMARK    1  A    between atoms: N_13  and  C_2 
ROOT
ATOM      1  C   UNL d   1      56.653   0.651  33.980  0.00  0.00     0.024 A 
ATOM      2  C   UNL d   1      57.097   0.664  34.676  0.00  0.00     0.138 A 
ATOM      3  C   UNL d   1      56.716   0.667  35.409  0.00  0.00     0.282 A 
ATOM      4  C   UNL d   1      55.831   0.640  34.017  0.00  0.00     0.021 A 
ATOM      5  N   UNL d   1      55.893   0.656  35.438  0.00  0.00    -0.271 N 
ATOM      6  C   UNL d   1      55.446   0.643  34.745  0.00  0.00     0.067 A 
ATOM      7  C   UNL d   1      57.033   0.648  33.252  0.00  0.00     0.005 A 
ATOM      8  C   UNL d   1      55.389   0.626  33.311  0.00  0.00     0.040 A 
ATOM      9  C   UNL d   1      55.773   0.623  32.579  0.00  0.00     0.196 A 
ATOM     10  C   UNL d   1      56.595   0.634  32.552  0.00  0.00     0.039 A 
ATOM     11  O   UNL d   1      57.153   0.681  36.109  0.00  0.00    -0.265 OA
ATOM     12  O   UNL d   1      55.336   0.610  31.880  0.00  0.00    -0.287 OA
ATOM     13  C   UNL d   1      55.514   0.659  36.176  0.00  0.00     0.102 C 
ATOM     14  C   UNL d   1      54.629   0.632  34.783  0.00  0.00     0.018 A 
ATOM     15  C   UNL d   1      54.565   0.615  33.350  0.00  0.00     0.003 A 
ATOM     16  C   UNL d   1      57.859   0.659  33.221  0.00  0.00     0.000 A 
ATOM     17  C   UNL d   1      56.985   0.631  31.822  0.00  0.00     0.003 A 
ATOM     18  C   UNL d   1      54.175   0.618  34.079  0.00  0.00     0.002 A 
ATOM     19  C   UNL d   1      58.245   0.656  32.494  0.00  0.00     0.000 A 
ATOM     20  C   UNL d   1      57.808   0.642  31.794  0.00  0.00     0.000 A 
ENDROOT
BRANCH   2  21
ATOM     21  N   UNL d   1      57.918   0.675  34.644  0.00  0.00    -0.238 NA
ATOM     22  C   UNL d   1      58.359   0.681  35.341  0.00  0.00     0.120 C 
ENDBRANCH   2  21
TORSDOF 1
ENDMDL
