MODEL 1
REMARK VINA RESULT:      -8.3      0.000      0.000
REMARK  4 active torsions:
REMARK  status: ('A' for Active; 'I' for Inactive)
REMARK    1  A    between atoms: S_3  and  N_1 
REMARK    2  A    between atoms: C_7  and  C_4 
REMARK    3  A    between atoms: C_10  and  C_5 
REMARK    4  A    between atoms: C_21  and  C_20 
ROOT
ATOM      1  N   UNL d   1     -46.273  12.779  23.001  0.00  0.00    -0.155 N 
ATOM      2  N   UNL d   1     -45.511  12.453  23.099  0.00  0.00    -0.153 NA
ATOM      3  C   UNL d   1     -45.604  11.651  23.245  0.00  0.00     0.126 A 
ATOM      4  C   UNL d   1     -46.812  12.179  23.087  0.00  0.00     0.096 A 
ATOM      5  C   UNL d   1     -46.421  11.493  23.235  0.00  0.00     0.043 A 
ENDROOT
BRANCH   4   6
ATOM      6  C   UNL d   1     -47.631  12.263  23.031  0.00  0.00     0.018 A 
ATOM      7  C   UNL d   1     -48.097  12.464  23.698  0.00  0.00     0.002 A 
ATOM      8  C   UNL d   1     -48.916  12.548  23.642  0.00  0.00     0.000 A 
ATOM      9  C   UNL d   1     -49.269  12.432  22.918  0.00  0.00     0.000 A 
ATOM     10  C   UNL d   1     -48.853  12.239  22.257  0.00  0.00     0.000 A 
ATOM     11  C   UNL d   1     -48.034  12.154  22.313  0.00  0.00     0.002 A 
BRANCH   9  12
ATOM     12  C   UNL d   1     -50.087  12.516  22.862  0.00  0.00     0.000 C 
ATOM     13  C   UNL d   1     -50.585  11.959  23.214  0.00  0.00     0.000 C 
ENDBRANCH   9  12
ENDBRANCH   4   6
BRANCH   1  14
ATOM     14  S   UNL d   1     -46.402  13.580  22.844  0.00  0.00     0.266 S 
ATOM     15  O   UNL d   1     -46.409  13.737  23.658  0.00  0.00    -0.203 OA
ATOM     16  O   UNL d   1     -46.399  13.450  22.036  0.00  0.00    -0.203 OA
ATOM     17  C   UNL d   1     -46.531  14.382  22.717  0.00  0.00     0.165 C 
ENDBRANCH   1  14
BRANCH   3  18
ATOM     18  C   UNL d   1     -45.002  11.098  23.379  0.00  0.00     0.119 A 
ATOM     19  O   UNL d   1     -44.210  11.253  23.250  0.00  0.00    -0.304 OA
ATOM     20  C   UNL d   1     -43.798  10.544  23.456  0.00  0.00     0.123 A 
ATOM     21  C   UNL d   1     -44.358   9.996  23.698  0.00  0.00     0.029 A 
ATOM     22  C   UNL d   1     -45.092  10.326  23.653  0.00  0.00     0.028 A 
ENDBRANCH   3  18
TORSDOF 4
ENDMDL
MODEL 2
REMARK VINA RESULT:      -7.6      2.226      4.560
REMARK  4 active torsions:
REMARK  status: ('A' for Active; 'I' for Inactive)
REMARK    1  A    between atoms: S_3  and  N_1 
REMARK    2  A    between atoms: C_7  and  C_4 
REMARK    3  A    between atoms: C_10  and  C_5 
REMARK    4  A    between atoms: C_21  and  C_20 
ROOT
ATOM      1  N   UNL d   1     -48.856  13.297  22.123  0.00  0.00    -0.155 N 
ATOM      2  N   UNL d   1     -49.453  13.880  22.154  0.00  0.00    -0.153 NA
ATOM      3  C   UNL d   1     -49.466  14.179  22.918  0.00  0.00     0.126 A 
ATOM      4  C   UNL d   1     -48.518  13.251  22.859  0.00  0.00     0.096 A 
ATOM      5  C   UNL d   1     -48.876  13.778  23.348  0.00  0.00     0.043 A 
ENDROOT
BRANCH   4   6
ATOM      6  C   UNL d   1     -47.903  12.742  23.069  0.00  0.00     0.018 A 
ATOM      7  C   UNL d   1     -48.034  11.922  23.188  0.00  0.00     0.002 A 
ATOM      8  C   UNL d   1     -47.420  11.413  23.397  0.00  0.00     0.000 A 
ATOM      9  C   UNL d   1     -46.673  11.724  23.489  0.00  0.00     0.000 A 
ATOM     10  C   UNL d   1     -46.511  12.505  23.383  0.00  0.00     0.000 A 
ATOM     11  C   UNL d   1     -47.126  13.014  23.173  0.00  0.00     0.002 A 
BRANCH   9  12
ATOM     12  C   UNL d   1     -46.059  11.215  23.698  0.00  0.00     0.000 C 
ATOM     13  C   UNL d   1     -45.370  11.192  23.245  0.00  0.00     0.000 C 
ENDBRANCH   9  12
ENDBRANCH   4   6
BRANCH   1  14
ATOM     14  S   UNL d   1     -48.680  12.870  21.439  0.00  0.00     0.266 S 
ATOM     15  O   UNL d   1     -49.302  12.348  21.605  0.00  0.00    -0.203 OA
ATOM     16  O   UNL d   1     -48.061  13.371  21.253  0.00  0.00    -0.203 OA
ATOM     17  C   UNL d   1     -48.527  12.427  20.763  0.00  0.00     0.165 C 
ENDBRANCH   1  14
BRANCH   3  18
ATOM     18  C   UNL d   1     -49.967  14.770  23.211  0.00  0.00     0.119 A 
ATOM     19  O   UNL d   1     -50.758  14.649  23.376  0.00  0.00    -0.304 OA
ATOM     20  C   UNL d   1     -51.052  15.389  23.660  0.00  0.00     0.123 A 
ATOM     21  C   UNL d   1     -50.427  15.921  23.653  0.00  0.00     0.029 A 
ATOM     22  C   UNL d   1     -49.764  15.550  23.381  0.00  0.00     0.028 A 
ENDBRANCH   3  18
TORSDOF 4
ENDMDL
MODEL 3
REMARK VINA RESULT:      -7.4      2.162      2.767
REMARK  4 active torsions:
REMARK  status: ('A' for Active; 'I' for Inactive)
REMARK    1  A    between atoms: S_3  and  N_1 
REMARK    2  A    between atoms: C_7  and  C_4 
REMARK    3  A    between atoms: C_10  and  C_5 
REMARK    4  A    between atoms: C_21  and  C_20 
ROOT
ATOM      1  N   UNL d   1     -48.637  12.599  22.368  0.00  0.00    -0.155 N 
ATOM      2  N   UNL d   1     -48.021  12.038  22.406  0.00  0.00    -0.153 NA
ATOM      3  C   UNL d   1     -47.449  12.336  22.914  0.00  0.00     0.126 A 
ATOM      4  C   UNL d   1     -48.435  13.222  22.848  0.00  0.00     0.096 A 
ATOM      5  C   UNL d   1     -47.720  13.076  23.183  0.00  0.00     0.043 A 
ENDROOT
BRANCH   4   6
ATOM      6  C   UNL d   1     -48.894  13.897  22.969  0.00  0.00     0.018 A 
ATOM      7  C   UNL d   1     -48.796  14.584  22.498  0.00  0.00     0.002 A 
ATOM      8  C   UNL d   1     -49.255  15.259  22.620  0.00  0.00     0.000 A 
ATOM      9  C   UNL d   1     -49.812  15.248  23.212  0.00  0.00     0.000 A 
ATOM     10  C   UNL d   1     -49.933  14.607  23.683  0.00  0.00     0.000 A 
ATOM     11  C   UNL d   1     -49.474  13.932  23.562  0.00  0.00     0.002 A 
BRANCH   9  12
ATOM     12  C   UNL d   1     -50.270  15.922  23.333  0.00  0.00     0.000 C 
ATOM     13  C   UNL d   1     -51.032  15.853  23.644  0.00  0.00     0.000 C 
ENDBRANCH   9  12
ENDBRANCH   4   6
BRANCH   1  14
ATOM     14  S   UNL d   1     -49.315  12.492  21.908  0.00  0.00     0.266 S 
ATOM     15  O   UNL d   1     -48.949  12.888  21.278  0.00  0.00    -0.203 OA
ATOM     16  O   UNL d   1     -49.698  12.098  22.514  0.00  0.00    -0.203 OA
ATOM     17  C   UNL d   1     -49.976  12.399  21.427  0.00  0.00     0.165 C 
ENDBRANCH   1  14
BRANCH   3  18
ATOM     18  C   UNL d   1     -46.734  11.973  23.124  0.00  0.00     0.119 A 
ATOM     19  O   UNL d   1     -46.012  12.182  22.805  0.00  0.00    -0.304 OA
ATOM     20  C   UNL d   1     -45.441  11.676  23.171  0.00  0.00     0.123 A 
ATOM     21  C   UNL d   1     -45.845  11.187  23.692  0.00  0.00     0.029 A 
ATOM     22  C   UNL d   1     -46.632  11.363  23.668  0.00  0.00     0.028 A 
ENDBRANCH   3  18
TORSDOF 4
ENDMDL
MODEL 4
REMARK VINA RESULT:      -6.7      2.209      4.149
REMARK  4 active torsions:
REMARK  status: ('A' for Active; 'I' for Inactive)
REMARK    1  A    between atoms: S_3  and  N_1 
REMARK    2  A    between atoms: C_7  and  C_4 
REMARK    3  A    between atoms: C_10  and  C_5 
REMARK    4  A    between atoms: C_21  and  C_20 
ROOT
ATOM      1  N   UNL d   1     -48.476  13.962  22.655  0.00  0.00    -0.155 N 
ATOM      2  N   UNL d   1     -49.249  13.727  22.864  0.00  0.00    -0.153 NA
ATOM      3  C   UNL d   1     -49.217  12.933  23.073  0.00  0.00     0.126 A 
ATOM      4  C   UNL d   1     -47.990  13.317  22.739  0.00  0.00     0.096 A 
ATOM      5  C   UNL d   1     -48.425  12.690  22.990  0.00  0.00     0.043 A 
ENDROOT
BRANCH   4   6
ATOM      6  C   UNL d   1     -47.179  13.311  22.588  0.00  0.00     0.018 A 
ATOM      7  C   UNL d   1     -46.874  13.094  21.838  0.00  0.00     0.002 A 
ATOM      8  C   UNL d   1     -46.063  13.087  21.688  0.00  0.00     0.000 A 
ATOM      9  C   UNL d   1     -45.555  13.297  22.288  0.00  0.00     0.000 A 
ATOM     10  C   UNL d   1     -45.813  13.510  23.020  0.00  0.00     0.000 A 
ATOM     11  C   UNL d   1     -46.624  13.517  23.170  0.00  0.00     0.002 A 
BRANCH   9  12
ATOM     12  C   UNL d   1     -44.745  13.290  22.138  0.00  0.00     0.000 C 
ATOM     13  C   UNL d   1     -44.378  12.596  21.882  0.00  0.00     0.000 C 
ENDBRANCH   9  12
ENDBRANCH   4   6
BRANCH   1  14
ATOM     14  S   UNL d   1     -48.290  14.729  22.412  0.00  0.00     0.266 S 
ATOM     15  O   UNL d   1     -48.519  14.539  21.638  0.00  0.00    -0.203 OA
ATOM     16  O   UNL d   1     -48.058  14.941  23.167  0.00  0.00    -0.203 OA
ATOM     17  C   UNL d   1     -48.113  15.486  22.142  0.00  0.00     0.165 C 
ENDBRANCH   1  14
BRANCH   3  18
ATOM     18  C   UNL d   1     -49.849  12.459  23.320  0.00  0.00     0.119 A 
ATOM     19  O   UNL d   1     -50.601  12.747  23.459  0.00  0.00    -0.304 OA
ATOM     20  C   UNL d   1     -51.064  12.081  23.698  0.00  0.00     0.123 A 
ATOM     21  C   UNL d   1     -50.572  11.424  23.691  0.00  0.00     0.029 A 
ATOM     22  C   UNL d   1     -49.832  11.648  23.462  0.00  0.00     0.028 A 
ENDBRANCH   3  18
TORSDOF 4
ENDMDL
MODEL 5
REMARK VINA RESULT:      -5.9      8.560      9.159
REMARK  4 active torsions:
REMARK  status: ('A' for Active; 'I' for Inactive)
REMARK    1  A    between atoms: S_3  and  N_1 
REMARK    2  A    between atoms: C_7  and  C_4 
REMARK    3  A    between atoms: C_10  and  C_5 
REMARK    4  A    between atoms: C_21  and  C_20 
ROOT
ATOM      1  N   UNL d   1     -38.815  13.843  18.708  0.00  0.00    -0.155 N 
ATOM      2  N   UNL d   1     -38.530  13.603  19.455  0.00  0.00    -0.153 NA
ATOM      3  C   UNL d   1     -38.947  14.023  20.024  0.00  0.00     0.126 A 
ATOM      4  C   UNL d   1     -39.394  14.398  18.831  0.00  0.00     0.096 A 
ATOM      5  C   UNL d   1     -39.484  14.516  19.620  0.00  0.00     0.043 A 
ENDROOT
BRANCH   4   6
ATOM      6  C   UNL d   1     -39.822  14.779  18.237  0.00  0.00     0.018 A 
ATOM      7  C   UNL d   1     -40.516  14.440  17.910  0.00  0.00     0.002 A 
ATOM      8  C   UNL d   1     -40.943  14.821  17.316  0.00  0.00     0.000 A 
ATOM      9  C   UNL d   1     -40.677  15.542  17.048  0.00  0.00     0.000 A 
ATOM     10  C   UNL d   1     -40.015  15.896  17.338  0.00  0.00     0.000 A 
ATOM     11  C   UNL d   1     -39.588  15.515  17.932  0.00  0.00     0.002 A 
BRANCH   9  12
ATOM     12  C   UNL d   1     -41.103  15.922  16.454  0.00  0.00     0.000 C 
ATOM     13  C   UNL d   1     -41.928  15.880  16.447  0.00  0.00     0.000 C 
ENDBRANCH   9  12
ENDBRANCH   4   6
BRANCH   1  14
ATOM     14  S   UNL d   1     -38.525  13.538  17.997  0.00  0.00     0.266 S 
ATOM     15  O   UNL d   1     -39.081  12.924  18.035  0.00  0.00    -0.203 OA
ATOM     16  O   UNL d   1     -37.968  14.134  17.937  0.00  0.00    -0.203 OA
ATOM     17  C   UNL d   1     -38.257  13.213  17.291  0.00  0.00     0.165 C 
ENDBRANCH   1  14
BRANCH   3  18
ATOM     18  C   UNL d   1     -38.856  13.971  20.845  0.00  0.00     0.119 A 
ATOM     19  O   UNL d   1     -38.249  13.560  21.206  0.00  0.00    -0.304 OA
ATOM     20  C   UNL d   1     -38.368  13.652  22.038  0.00  0.00     0.123 A 
ATOM     21  C   UNL d   1     -39.040  14.113  22.140  0.00  0.00     0.029 A 
ATOM     22  C   UNL d   1     -39.341  14.310  21.418  0.00  0.00     0.028 A 
ENDBRANCH   3  18
TORSDOF 4
ENDMDL
MODEL 6
REMARK VINA RESULT:      -5.7      7.065      8.294
REMARK  4 active torsions:
REMARK  status: ('A' for Active; 'I' for Inactive)
REMARK    1  A    between atoms: S_3  and  N_1 
REMARK    2  A    between atoms: C_7  and  C_4 
REMARK    3  A    between atoms: C_10  and  C_5 
REMARK    4  A    between atoms: C_21  and  C_20 
ROOT
ATOM      1  N   UNL d   1     -40.289  14.770  20.809  0.00  0.00    -0.155 N 
ATOM      2  N   UNL d   1     -39.978  14.524  21.543  0.00  0.00    -0.153 NA
ATOM      3  C   UNL d   1     -39.299  14.089  21.388  0.00  0.00     0.126 A 
ATOM      4  C   UNL d   1     -39.803  14.485  20.225  0.00  0.00     0.096 A 
ATOM      5  C   UNL d   1     -39.202  14.072  20.561  0.00  0.00     0.043 A 
ENDROOT
BRANCH   4   6
ATOM      6  C   UNL d   1     -39.912  14.603  19.416  0.00  0.00     0.018 A 
ATOM      7  C   UNL d   1     -39.582  15.265  19.021  0.00  0.00     0.002 A 
ATOM      8  C   UNL d   1     -39.691  15.382  18.211  0.00  0.00     0.000 A 
ATOM      9  C   UNL d   1     -40.130  14.838  17.796  0.00  0.00     0.000 A 
ATOM     10  C   UNL d   1     -40.462  14.191  18.142  0.00  0.00     0.000 A 
ATOM     11  C   UNL d   1     -40.353  14.074  18.952  0.00  0.00     0.002 A 
BRANCH   9  12
ATOM     12  C   UNL d   1     -40.239  14.955  16.988  0.00  0.00     0.000 C 
ATOM     13  C   UNL d   1     -40.535  15.675  16.711  0.00  0.00     0.000 C 
ENDBRANCH   9  12
ENDBRANCH   4   6
BRANCH   1  14
ATOM     14  S   UNL d   1     -40.977  15.224  20.742  0.00  0.00     0.266 S 
ATOM     15  O   UNL d   1     -41.432  14.531  20.734  0.00  0.00    -0.203 OA
ATOM     16  O   UNL d   1     -40.550  15.922  20.748  0.00  0.00    -0.203 OA
ATOM     17  C   UNL d   1     -41.677  15.650  20.675  0.00  0.00     0.165 C 
ENDBRANCH   1  14
BRANCH   3  18
ATOM     18  C   UNL d   1     -38.801  13.732  21.945  0.00  0.00     0.119 A 
ATOM     19  O   UNL d   1     -38.715  14.001  22.711  0.00  0.00    -0.304 OA
ATOM     20  C   UNL d   1     -38.161  13.479  23.080  0.00  0.00     0.123 A 
ATOM     21  C   UNL d   1     -37.940  12.921  22.521  0.00  0.00     0.029 A 
ATOM     22  C   UNL d   1     -38.326  13.069  21.829  0.00  0.00     0.028 A 
ENDBRANCH   3  18
TORSDOF 4
ENDMDL
MODEL 7
REMARK VINA RESULT:      -5.5      8.264      9.364
REMARK  4 active torsions:
REMARK  status: ('A' for Active; 'I' for Inactive)
REMARK    1  A    between atoms: S_3  and  N_1 
REMARK    2  A    between atoms: C_7  and  C_4 
REMARK    3  A    between atoms: C_10  and  C_5 
REMARK    4  A    between atoms: C_21  and  C_20 
ROOT
ATOM      1  N   UNL d   1     -39.252  14.596  18.789  0.00  0.00    -0.155 N 
ATOM      2  N   UNL d   1     -39.552  14.645  18.012  0.00  0.00    -0.153 NA
ATOM      3  C   UNL d   1     -40.190  15.162  18.027  0.00  0.00     0.126 A 
ATOM      4  C   UNL d   1     -39.705  15.077  19.260  0.00  0.00     0.096 A 
ATOM      5  C   UNL d   1     -40.274  15.424  18.813  0.00  0.00     0.043 A 
ENDROOT
BRANCH   4   6
ATOM      6  C   UNL d   1     -39.595  15.189  20.070  0.00  0.00     0.018 A 
ATOM      7  C   UNL d   1     -39.954  14.683  20.635  0.00  0.00     0.002 A 
ATOM      8  C   UNL d   1     -39.844  14.795  21.445  0.00  0.00     0.000 A 
ATOM      9  C   UNL d   1     -39.375  15.413  21.691  0.00  0.00     0.000 A 
ATOM     10  C   UNL d   1     -39.016  15.917  21.177  0.00  0.00     0.000 A 
ATOM     11  C   UNL d   1     -39.125  15.805  20.367  0.00  0.00     0.002 A 
BRANCH   9  12
ATOM     12  C   UNL d   1     -39.266  15.525  22.500  0.00  0.00     0.000 C 
ATOM     13  C   UNL d   1     -38.629  15.166  22.884  0.00  0.00     0.000 C 
ENDBRANCH   9  12
ENDBRANCH   4   6
BRANCH   1  14
ATOM     14  S   UNL d   1     -38.605  14.124  18.991  0.00  0.00     0.266 S 
ATOM     15  O   UNL d   1     -38.096  14.764  18.850  0.00  0.00    -0.203 OA
ATOM     16  O   UNL d   1     -39.085  13.479  19.137  0.00  0.00    -0.203 OA
ATOM     17  C   UNL d   1     -37.942  13.678  19.188  0.00  0.00     0.165 C 
ENDBRANCH   1  14
BRANCH   3  18
ATOM     18  C   UNL d   1     -40.663  15.384  17.385  0.00  0.00     0.119 A 
ATOM     19  O   UNL d   1     -41.444  15.160  17.301  0.00  0.00    -0.304 OA
ATOM     20  C   UNL d   1     -41.709  15.506  16.576  0.00  0.00     0.123 A 
ATOM     21  C   UNL d   1     -41.078  15.922  16.257  0.00  0.00     0.029 A 
ATOM     22  C   UNL d   1     -40.438  15.852  16.745  0.00  0.00     0.028 A 
ENDBRANCH   3  18
TORSDOF 4
ENDMDL
MODEL 8
REMARK VINA RESULT:      -5.4      7.086      8.769
REMARK  4 active torsions:
REMARK  status: ('A' for Active; 'I' for Inactive)
REMARK    1  A    between atoms: S_3  and  N_1 
REMARK    2  A    between atoms: C_7  and  C_4 
REMARK    3  A    between atoms: C_10  and  C_5 
REMARK    4  A    between atoms: C_21  and  C_20 
ROOT
ATOM      1  N   UNL d   1     -40.271  14.863  20.084  0.00  0.00    -0.155 N 
ATOM      2  N   UNL d   1     -40.312  14.854  19.251  0.00  0.00    -0.153 NA
ATOM      3  C   UNL d   1     -39.621  14.508  18.975  0.00  0.00     0.126 A 
ATOM      4  C   UNL d   1     -39.565  14.528  20.302  0.00  0.00     0.096 A 
ATOM      5  C   UNL d   1     -39.163  14.309  19.641  0.00  0.00     0.043 A 
ENDROOT
BRANCH   4   6
ATOM      6  C   UNL d   1     -39.305  14.428  21.078  0.00  0.00     0.018 A 
ATOM      7  C   UNL d   1     -38.838  15.010  21.461  0.00  0.00     0.002 A 
ATOM      8  C   UNL d   1     -38.577  14.911  22.238  0.00  0.00     0.000 A 
ATOM      9  C   UNL d   1     -38.783  14.230  22.632  0.00  0.00     0.000 A 
ATOM     10  C   UNL d   1     -39.229  13.651  22.295  0.00  0.00     0.000 A 
ATOM     11  C   UNL d   1     -39.490  13.750  21.519  0.00  0.00     0.002 A 
BRANCH   9  12
ATOM     12  C   UNL d   1     -38.523  14.131  23.407  0.00  0.00     0.000 C 
ATOM     13  C   UNL d   1     -38.361  13.374  23.695  0.00  0.00     0.000 C 
ENDBRANCH   9  12
ENDBRANCH   4   6
BRANCH   1  14
ATOM     14  S   UNL d   1     -40.872  15.172  20.560  0.00  0.00     0.266 S 
ATOM     15  O   UNL d   1     -40.521  15.922  20.514  0.00  0.00    -0.203 OA
ATOM     16  O   UNL d   1     -41.237  14.443  20.621  0.00  0.00    -0.203 OA
ATOM     17  C   UNL d   1     -41.457  15.506  21.032  0.00  0.00     0.165 C 
ENDBRANCH   1  14
BRANCH   3  18
ATOM     18  C   UNL d   1     -39.413  14.378  18.184  0.00  0.00     0.119 A 
ATOM     19  O   UNL d   1     -39.220  14.978  17.664  0.00  0.00    -0.304 OA
ATOM     20  C   UNL d   1     -39.047  14.602  16.927  0.00  0.00     0.123 A 
ATOM     21  C   UNL d   1     -39.143  13.794  17.036  0.00  0.00     0.029 A 
ATOM     22  C   UNL d   1     -39.366  13.652  17.798  0.00  0.00     0.028 A 
ENDBRANCH   3  18
TORSDOF 4
ENDMDL
