MODEL 1
REMARK VINA RESULT:      19.0      0.000      0.000
REMARK  4 active torsions:
REMARK  status: ('A' for Active; 'I' for Inactive)
REMARK    1  A    between atoms: C_6  and  C_1 
REMARK    2  A    between atoms: C_8  and  C_5 
REMARK    3  A    between atoms: C_9  and  C_8 
REMARK    4  A    between atoms: C_13  and  C_9 
ROOT
ATOM      1  C   UNL d   1     -57.849 -98.776 -44.395  0.00  0.00     0.210 A 
ATOM      2  N   UNL d   1     -57.819 -98.806 -45.221  0.00  0.00    -0.120 NA
ATOM      3  O   UNL d   1     -57.106 -98.756 -44.105  0.00  0.00    -0.268 OA
ATOM      4  N   UNL d   1     -57.016 -98.803 -45.420  0.00  0.00    -0.121 NA
ATOM      5  C   UNL d   1     -56.551 -98.773 -44.769  0.00  0.00     0.205 A 
ENDROOT
BRANCH   5   6
ATOM      6  C   UNL d   1     -55.730 -98.762 -44.779  0.00  0.00     0.046 C 
BRANCH   6   7
ATOM      7  C   UNL d   1     -55.312 -99.166 -44.206  0.00  0.00     0.004 C 
BRANCH   7   8
ATOM      8  C   UNL d   1     -55.162 -99.975 -44.288  0.00  0.00     0.000 A 
ATOM      9  C   UNL d   1     -55.312-100.503 -43.648  0.00  0.00     0.002 A 
ATOM     10  C   UNL d   1     -55.161-101.315 -43.732  0.00  0.00     0.030 A 
ATOM     11  C   UNL d   1     -54.864-101.598 -44.445  0.00  0.00     0.140 A 
ATOM     12  C   UNL d   1     -54.713-101.074 -45.087  0.00  0.00     0.030 A 
ATOM     13  F   UNL d   1     -54.713-102.412 -44.530  0.00  0.00    -0.204 F 
ATOM     14  C   UNL d   1     -54.866-100.276 -44.990  0.00  0.00     0.002 A 
ENDBRANCH   7   8
ENDBRANCH   6   7
ENDBRANCH   5   6
BRANCH   1  15
ATOM     15  C   UNL d   1     -58.539 -98.769 -43.934  0.00  0.00     0.072 A 
ATOM     16  S   UNL d   1     -58.586 -98.765 -43.108  0.00  0.00    -0.083 SA
ATOM     17  C   UNL d   1     -59.384 -98.758 -42.895  0.00  0.00     0.035 A 
ATOM     18  C   UNL d   1     -59.832 -98.757 -43.586  0.00  0.00     0.008 A 
ATOM     19  C   UNL d   1     -59.305 -98.764 -44.232  0.00  0.00     0.011 A 
ENDBRANCH   1  15
TORSDOF 4
ENDMDL
