MODEL 1
REMARK VINA RESULT:      -1.4      0.000      0.000
REMARK  5 active torsions:
REMARK  status: ('A' for Active; 'I' for Inactive)
REMARK    1  A    between atoms: C_11  and  C_4 
REMARK    2  A    between atoms: N_10  and  C_6 
REMARK    3  A    between atoms: C_13  and  C_9 
REMARK    4  A    between atoms: C_14  and  N_10 
REMARK    5  A    between atoms: C_15  and  C_14 
ROOT
ATOM      1  C   UNL d   1      58.833   0.273  30.562  0.00  0.00     0.167 A 
ATOM      2  N   UNL d   1      58.144   0.379  30.994  0.00  0.00    -0.195 N 
ATOM      3  N   UNL d   1      57.381   0.107  29.844  0.00  0.00    -0.163 NA
ATOM      4  C   UNL d   1      58.791   0.088  29.786  0.00  0.00     0.055 A 
ATOM      5  N   UNL d   1      59.550   0.357  30.929  0.00  0.00    -0.227 NA
ATOM      6  C   UNL d   1      58.196   0.566  31.778  0.00  0.00     0.167 A 
ATOM      7  C   UNL d   1      58.070   0.001  29.412  0.00  0.00     0.104 A 
ATOM      8  C   UNL d   1      58.940   0.651  32.148  0.00  0.00     0.058 A 
ATOM      9  C   UNL d   1      59.594   0.543  31.708  0.00  0.00     0.086 A 
ATOM     10  C   UNL d   1      58.031  -0.183  28.639  0.00  0.00     0.023 C 
ENDROOT
BRANCH   6  11
ATOM     11  N   UNL d   1      57.491   0.676  32.226  0.00  0.00    -0.224 NA
BRANCH  11  12
ATOM     12  C   UNL d   1      57.198   0.648  33.014  0.00  0.00     0.120 C 
BRANCH  12  13
ATOM     13  C   UNL d   1      56.517   0.197  33.199  0.00  0.00     0.101 A 
ATOM     14  N   UNL d   1      56.547  -0.644  33.169  0.00  0.00    -0.242 NA
ATOM     15  C   UNL d   1      55.866  -1.095  33.354  0.00  0.00     0.099 A 
ATOM     16  C   UNL d   1      55.151  -0.703  33.569  0.00  0.00     0.021 A 
ATOM     17  C   UNL d   1      55.117   0.140  33.599  0.00  0.00     0.003 A 
ATOM     18  C   UNL d   1      55.805   0.586  33.413  0.00  0.00     0.021 A 
ENDBRANCH  12  13
ENDBRANCH  11  12
ENDBRANCH   6  11
BRANCH   9  19
ATOM     19  C   UNL d   1      60.351   0.631  32.090  0.00  0.00     0.018 C 
ATOM     20  C   UNL d   1      61.058   0.669  31.610  0.00  0.00     0.002 C 
ATOM     21  C   UNL d   1      60.400   0.680  32.935  0.00  0.00     0.002 C 
ENDBRANCH   9  19
BRANCH   4  22
ATOM     22  C   UNL d   1      59.488  -0.020  29.349  0.00  0.00     0.004 A 
ATOM     23  C   UNL d   1      59.790   0.592  28.918  0.00  0.00     0.000 A 
ATOM     24  C   UNL d   1      60.477   0.487  28.488  0.00  0.00     0.000 A 
ATOM     25  C   UNL d   1      60.845  -0.229  28.497  0.00  0.00     0.000 A 
ATOM     26  C   UNL d   1      60.536  -0.845  28.934  0.00  0.00     0.000 A 
ATOM     27  C   UNL d   1      59.860  -0.733  29.355  0.00  0.00     0.000 A 
ENDBRANCH   4  22
TORSDOF 5
ENDMDL
MODEL 2
REMARK VINA RESULT:      -0.1      1.496      2.018
REMARK  5 active torsions:
REMARK  status: ('A' for Active; 'I' for Inactive)
REMARK    1  A    between atoms: C_11  and  C_4 
REMARK    2  A    between atoms: N_10  and  C_6 
REMARK    3  A    between atoms: C_13  and  C_9 
REMARK    4  A    between atoms: C_14  and  N_10 
REMARK    5  A    between atoms: C_15  and  C_14 
ROOT
ATOM      1  C   UNL d   1      59.159  -1.202  29.899  0.00  0.00     0.167 A 
ATOM      2  N   UNL d   1      58.486  -0.845  30.202  0.00  0.00    -0.195 N 
ATOM      3  N   UNL d   1      57.752  -2.019  29.953  0.00  0.00    -0.163 NA
ATOM      4  C   UNL d   1      59.124  -1.954  29.629  0.00  0.00     0.055 A 
ATOM      5  N   UNL d   1      59.854  -0.787  29.877  0.00  0.00    -0.227 NA
ATOM      6  C   UNL d   1      58.530  -0.086  30.472  0.00  0.00     0.167 A 
ATOM      7  C   UNL d   1      58.426  -2.375  29.650  0.00  0.00     0.104 A 
ATOM      8  C   UNL d   1      59.252   0.335  30.445  0.00  0.00     0.058 A 
ATOM      9  C   UNL d   1      59.891  -0.032  30.147  0.00  0.00     0.086 A 
ATOM     10  C   UNL d   1      58.393  -3.124  29.381  0.00  0.00     0.023 C 
ENDROOT
BRANCH   6  11
ATOM     11  N   UNL d   1      57.841   0.285  30.784  0.00  0.00    -0.224 NA
BRANCH  11  12
ATOM     12  C   UNL d   1      57.557   0.681  31.471  0.00  0.00     0.120 C 
BRANCH  12  13
ATOM     13  C   UNL d   1      57.068   0.281  32.020  0.00  0.00     0.101 A 
ATOM     14  N   UNL d   1      57.338   0.148  32.806  0.00  0.00    -0.242 NA
ATOM     15  C   UNL d   1      56.849  -0.252  33.357  0.00  0.00     0.099 A 
ATOM     16  C   UNL d   1      56.086  -0.521  33.118  0.00  0.00     0.021 A 
ATOM     17  C   UNL d   1      55.812  -0.390  32.330  0.00  0.00     0.003 A 
ATOM     18  C   UNL d   1      56.309   0.013  31.784  0.00  0.00     0.021 A 
ENDBRANCH  12  13
ENDBRANCH  11  12
ENDBRANCH   6  11
BRANCH   9  19
ATOM     19  C   UNL d   1      60.625   0.401  30.121  0.00  0.00     0.018 C 
ATOM     20  C   UNL d   1      60.919   0.680  29.368  0.00  0.00     0.002 C 
ATOM     21  C   UNL d   1      61.057   0.552  30.836  0.00  0.00     0.002 C 
ENDBRANCH   9  19
BRANCH   4  22
ATOM     22  C   UNL d   1      59.805  -2.314  29.323  0.00  0.00     0.004 A 
ATOM     23  C   UNL d   1      60.243  -1.934  28.761  0.00  0.00     0.000 A 
ATOM     24  C   UNL d   1      60.914  -2.290  28.459  0.00  0.00     0.000 A 
ATOM     25  C   UNL d   1      61.132  -3.017  28.726  0.00  0.00     0.000 A 
ATOM     26  C   UNL d   1      60.687  -3.398  29.294  0.00  0.00     0.000 A 
ATOM     27  C   UNL d   1      60.028  -3.041  29.586  0.00  0.00     0.000 A 
ENDBRANCH   4  22
TORSDOF 5
ENDMDL
MODEL 3
REMARK VINA RESULT:       1.1      9.054     10.818
REMARK  5 active torsions:
REMARK  status: ('A' for Active; 'I' for Inactive)
REMARK    1  A    between atoms: C_11  and  C_4 
REMARK    2  A    between atoms: N_10  and  C_6 
REMARK    3  A    between atoms: C_13  and  C_9 
REMARK    4  A    between atoms: C_14  and  N_10 
REMARK    5  A    between atoms: C_15  and  C_14 
ROOT
ATOM      1  C   UNL d   1      59.513  -9.437  33.239  0.00  0.00     0.167 A 
ATOM      2  N   UNL d   1      59.938  -9.531  32.544  0.00  0.00    -0.195 N 
ATOM      3  N   UNL d   1      61.133  -9.284  33.241  0.00  0.00    -0.163 NA
ATOM      4  C   UNL d   1      59.896  -9.269  33.920  0.00  0.00     0.055 A 
ATOM      5  N   UNL d   1      58.707  -9.515  33.227  0.00  0.00    -0.227 NA
ATOM      6  C   UNL d   1      59.542  -9.701  31.860  0.00  0.00     0.167 A 
ATOM      7  C   UNL d   1      60.709  -9.189  33.936  0.00  0.00     0.104 A 
ATOM      8  C   UNL d   1      58.710  -9.780  31.857  0.00  0.00     0.058 A 
ATOM      9  C   UNL d   1      58.321  -9.684  32.544  0.00  0.00     0.086 A 
ATOM     10  C   UNL d   1      61.088  -9.022  34.615  0.00  0.00     0.023 C 
ENDROOT
BRANCH   6  11
ATOM     11  N   UNL d   1      59.974  -9.799  31.144  0.00  0.00    -0.224 NA
BRANCH  11  12
ATOM     12  C   UNL d   1      60.739  -9.684  30.813  0.00  0.00     0.120 C 
BRANCH  12  13
ATOM     13  C   UNL d   1      60.827  -9.335  30.057  0.00  0.00     0.101 A 
ATOM     14  N   UNL d   1      60.762  -9.808  29.364  0.00  0.00    -0.242 NA
ATOM     15  C   UNL d   1      60.849  -9.459  28.607  0.00  0.00     0.099 A 
ATOM     16  C   UNL d   1      61.002  -8.632  28.544  0.00  0.00     0.021 A 
ATOM     17  C   UNL d   1      61.068  -8.154  29.238  0.00  0.00     0.003 A 
ATOM     18  C   UNL d   1      60.979  -8.512  29.993  0.00  0.00     0.021 A 
ENDBRANCH  12  13
ENDBRANCH  11  12
ENDBRANCH   6  11
BRANCH   9  19
ATOM     19  C   UNL d   1      57.472  -9.765  32.536  0.00  0.00     0.018 C 
ATOM     20  C   UNL d   1      57.063  -9.808  31.786  0.00  0.00     0.002 C 
ATOM     21  C   UNL d   1      57.040  -9.802  33.266  0.00  0.00     0.002 C 
ENDBRANCH   9  19
BRANCH   4  22
ATOM     22  C   UNL d   1      59.467  -9.173  34.622  0.00  0.00     0.004 A 
ATOM     23  C   UNL d   1      59.349  -9.805  35.110  0.00  0.00     0.000 A 
ATOM     24  C   UNL d   1      58.925  -9.711  35.803  0.00  0.00     0.000 A 
ATOM     25  C   UNL d   1      58.630  -8.987  35.992  0.00  0.00     0.000 A 
ATOM     26  C   UNL d   1      58.751  -8.350  35.496  0.00  0.00     0.000 A 
ATOM     27  C   UNL d   1      59.169  -8.451  34.816  0.00  0.00     0.000 A 
ENDBRANCH   4  22
TORSDOF 5
ENDMDL
MODEL 4
REMARK VINA RESULT:       1.3      1.975      4.827
REMARK  5 active torsions:
REMARK  status: ('A' for Active; 'I' for Inactive)
REMARK    1  A    between atoms: C_11  and  C_4 
REMARK    2  A    between atoms: N_10  and  C_6 
REMARK    3  A    between atoms: C_13  and  C_9 
REMARK    4  A    between atoms: C_14  and  N_10 
REMARK    5  A    between atoms: C_15  and  C_14 
ROOT
ATOM      1  C   UNL d   1      57.126  -1.026  31.607  0.00  0.00     0.167 A 
ATOM      2  N   UNL d   1      57.190  -1.618  31.043  0.00  0.00    -0.195 N 
ATOM      3  N   UNL d   1      56.138  -2.319  31.660  0.00  0.00    -0.163 NA
ATOM      4  C   UNL d   1      56.576  -1.084  32.184  0.00  0.00     0.055 A 
ATOM      5  N   UNL d   1      57.622  -0.388  31.571  0.00  0.00    -0.227 NA
ATOM      6  C   UNL d   1      57.748  -1.552  30.463  0.00  0.00     0.167 A 
ATOM      7  C   UNL d   1      56.074  -1.726  32.223  0.00  0.00     0.104 A 
ATOM      8  C   UNL d   1      58.257  -0.889  30.435  0.00  0.00     0.058 A 
ATOM      9  C   UNL d   1      58.175  -0.328  30.992  0.00  0.00     0.086 A 
ATOM     10  C   UNL d   1      55.527  -1.782  32.799  0.00  0.00     0.023 C 
ENDROOT
BRANCH   6  11
ATOM     11  N   UNL d   1      57.818  -2.157  29.883  0.00  0.00    -0.224 NA
BRANCH  11  12
ATOM     12  C   UNL d   1      58.092  -2.293  29.098  0.00  0.00     0.120 C 
BRANCH  12  13
ATOM     13  C   UNL d   1      58.539  -2.977  28.916  0.00  0.00     0.101 A 
ATOM     14  N   UNL d   1      58.148  -3.705  28.755  0.00  0.00    -0.242 NA
ATOM     15  C   UNL d   1      58.596  -4.390  28.573  0.00  0.00     0.099 A 
ATOM     16  C   UNL d   1      59.438  -4.345  28.553  0.00  0.00     0.021 A 
ATOM     17  C   UNL d   1      59.832  -3.616  28.715  0.00  0.00     0.003 A 
ATOM     18  C   UNL d   1      59.376  -2.934  28.896  0.00  0.00     0.021 A 
ENDBRANCH  12  13
ENDBRANCH  11  12
ENDBRANCH   6  11
BRANCH   9  19
ATOM     19  C   UNL d   1      58.696   0.347  30.959  0.00  0.00     0.018 C 
ATOM     20  C   UNL d   1      58.993   0.681  31.688  0.00  0.00     0.002 C 
ATOM     21  C   UNL d   1      58.915   0.681  30.211  0.00  0.00     0.002 C 
ENDBRANCH   9  19
BRANCH   4  22
ATOM     22  C   UNL d   1      56.512  -0.485  32.754  0.00  0.00     0.004 A 
ATOM     23  C   UNL d   1      57.039  -0.453  33.365  0.00  0.00     0.000 A 
ATOM     24  C   UNL d   1      56.975   0.137  33.926  0.00  0.00     0.000 A 
ATOM     25  C   UNL d   1      56.385   0.682  33.864  0.00  0.00     0.000 A 
ATOM     26  C   UNL d   1      55.854   0.646  33.245  0.00  0.00     0.000 A 
ATOM     27  C   UNL d   1      55.924   0.062  32.697  0.00  0.00     0.000 A 
ENDBRANCH   4  22
TORSDOF 5
ENDMDL
