MODEL 1
REMARK VINA RESULT:      -7.7      0.000      0.000
REMARK  4 active torsions:
REMARK  status: ('A' for Active; 'I' for Inactive)
REMARK    1  A    between atoms: C_9  and  N_2 
REMARK    2  A    between atoms: C_7  and  O_10 
REMARK    3  A    between atoms: C_11  and  C_9 
REMARK    4  A    between atoms: O_10  and  C_11 
ROOT
ATOM      1  C   UNL d   1     -49.790  13.787  21.710  0.00  0.00     0.296 A 
ATOM      2  N   UNL d   1     -49.259  14.201  22.182  0.00  0.00    -0.266 N 
ATOM      3  S   UNL d   1     -50.563  14.030  21.924  0.00  0.00    -0.025 SA
ATOM      4  C   UNL d   1     -49.693  14.698  22.684  0.00  0.00     0.074 A 
ATOM      5  C   UNL d   1     -50.492  14.594  22.526  0.00  0.00     0.050 A 
ATOM      6  O   UNL d   1     -49.604  13.233  21.133  0.00  0.00    -0.259 OA
ATOM      7  C   UNL d   1     -49.448  15.232  23.267  0.00  0.00     0.018 A 
ATOM      8  C   UNL d   1     -51.064  15.021  22.947  0.00  0.00     0.008 A 
ATOM      9  C   UNL d   1     -50.017  15.660  23.688  0.00  0.00     0.002 A 
ATOM     10  C   UNL d   1     -50.816  15.556  23.530  0.00  0.00     0.001 A 
ENDROOT
BRANCH   2  11
ATOM     11  C   UNL d   1     -48.437  14.135  22.159  0.00  0.00     0.110 C 
BRANCH  11  12
ATOM     12  C   UNL d   1     -48.063  13.491  22.509  0.00  0.00     0.142 C 
BRANCH  12  13
ATOM     13  O   UNL d   1     -47.255  13.515  22.691  0.00  0.00    -0.304 OA
BRANCH  13  14
ATOM     14  C   UNL d   1     -46.874  12.844  22.982  0.00  0.00     0.100 A 
ATOM     15  C   UNL d   1     -46.067  12.736  22.844  0.00  0.00     0.023 A 
ATOM     16  C   UNL d   1     -45.642  13.301  22.414  0.00  0.00     0.002 C 
ATOM     17  C   UNL d   1     -45.689  12.069  23.133  0.00  0.00     0.002 A 
ATOM     18  C   UNL d   1     -46.117  11.508  23.562  0.00  0.00     0.000 A 
ATOM     19  C   UNL d   1     -46.926  11.620  23.698  0.00  0.00     0.002 A 
ATOM     20  C   UNL d   1     -47.298  12.291  23.404  0.00  0.00     0.025 A 
ENDBRANCH  13  14
ENDBRANCH  12  13
ENDBRANCH  11  12
ENDBRANCH   2  11
TORSDOF 4
ENDMDL
MODEL 2
REMARK VINA RESULT:      -7.3      1.458      4.394
REMARK  4 active torsions:
REMARK  status: ('A' for Active; 'I' for Inactive)
REMARK    1  A    between atoms: C_9  and  N_2 
REMARK    2  A    between atoms: C_7  and  O_10 
REMARK    3  A    between atoms: C_11  and  C_9 
REMARK    4  A    between atoms: O_10  and  C_11 
ROOT
ATOM      1  C   UNL d   1     -46.528  13.833  22.773  0.00  0.00     0.296 A 
ATOM      2  N   UNL d   1     -47.112  13.403  23.162  0.00  0.00    -0.266 N 
ATOM      3  S   UNL d   1     -45.872  13.324  22.658  0.00  0.00    -0.025 SA
ATOM      4  C   UNL d   1     -46.826  12.635  23.289  0.00  0.00     0.074 A 
ATOM      5  C   UNL d   1     -46.066  12.587  22.980  0.00  0.00     0.050 A 
ATOM      6  O   UNL d   1     -46.574  14.618  22.538  0.00  0.00    -0.259 OA
ATOM      7  C   UNL d   1     -47.172  11.977  23.650  0.00  0.00     0.018 A 
ATOM      8  C   UNL d   1     -45.636  11.879  23.026  0.00  0.00     0.008 A 
ATOM      9  C   UNL d   1     -46.746  11.269  23.698  0.00  0.00     0.002 A 
ATOM     10  C   UNL d   1     -45.987  11.221  23.389  0.00  0.00     0.001 A 
ENDROOT
BRANCH   2  11
ATOM     11  C   UNL d   1     -47.853  13.686  23.387  0.00  0.00     0.110 C 
BRANCH  11  12
ATOM     12  C   UNL d   1     -48.453  13.768  22.830  0.00  0.00     0.142 C 
BRANCH  12  13
ATOM     13  O   UNL d   1     -49.194  14.070  23.043  0.00  0.00    -0.304 OA
BRANCH  13  14
ATOM     14  C   UNL d   1     -49.820  14.055  22.506  0.00  0.00     0.100 A 
ATOM     15  C   UNL d   1     -50.370  14.671  22.497  0.00  0.00     0.023 A 
ATOM     16  C   UNL d   1     -50.292  15.302  23.026  0.00  0.00     0.002 C 
ATOM     17  C   UNL d   1     -50.991  14.655  21.963  0.00  0.00     0.002 A 
ATOM     18  C   UNL d   1     -51.064  14.024  21.437  0.00  0.00     0.000 A 
ATOM     19  C   UNL d   1     -50.511  13.408  21.449  0.00  0.00     0.002 A 
ATOM     20  C   UNL d   1     -49.891  13.431  21.988  0.00  0.00     0.025 A 
ENDBRANCH  13  14
ENDBRANCH  12  13
ENDBRANCH  11  12
ENDBRANCH   2  11
TORSDOF 4
ENDMDL
MODEL 3
REMARK VINA RESULT:      -7.1      0.680      1.177
REMARK  4 active torsions:
REMARK  status: ('A' for Active; 'I' for Inactive)
REMARK    1  A    between atoms: C_9  and  N_2 
REMARK    2  A    between atoms: C_7  and  O_10 
REMARK    3  A    between atoms: C_11  and  C_9 
REMARK    4  A    between atoms: O_10  and  C_11 
ROOT
ATOM      1  C   UNL d   1     -49.928  13.141  22.072  0.00  0.00     0.296 A 
ATOM      2  N   UNL d   1     -49.595  13.427  22.767  0.00  0.00    -0.266 N 
ATOM      3  S   UNL d   1     -50.540  13.667  21.848  0.00  0.00    -0.025 SA
ATOM      4  C   UNL d   1     -49.994  14.124  22.977  0.00  0.00     0.074 A 
ATOM      5  C   UNL d   1     -50.573  14.271  22.413  0.00  0.00     0.050 A 
ATOM      6  O   UNL d   1     -49.705  12.463  21.666  0.00  0.00    -0.259 OA
ATOM      7  C   UNL d   1     -49.893  14.639  23.616  0.00  0.00     0.018 A 
ATOM      8  C   UNL d   1     -51.064  14.936  22.477  0.00  0.00     0.008 A 
ATOM      9  C   UNL d   1     -50.382  15.303  23.683  0.00  0.00     0.002 A 
ATOM     10  C   UNL d   1     -50.961  15.450  23.119  0.00  0.00     0.001 A 
ENDROOT
BRANCH   2  11
ATOM     11  C   UNL d   1     -48.973  13.083  23.185  0.00  0.00     0.110 C 
BRANCH  11  12
ATOM     12  C   UNL d   1     -48.206  13.115  22.890  0.00  0.00     0.142 C 
BRANCH  12  13
ATOM     13  O   UNL d   1     -47.560  12.890  23.356  0.00  0.00    -0.304 OA
BRANCH  13  14
ATOM     14  C   UNL d   1     -46.797  12.899  23.043  0.00  0.00     0.100 A 
ATOM     15  C   UNL d   1     -46.274  12.283  23.213  0.00  0.00     0.023 A 
ATOM     16  C   UNL d   1     -46.516  11.658  23.698  0.00  0.00     0.002 C 
ATOM     17  C   UNL d   1     -45.516  12.293  22.902  0.00  0.00     0.002 A 
ATOM     18  C   UNL d   1     -45.280  12.919  22.418  0.00  0.00     0.000 A 
ATOM     19  C   UNL d   1     -45.807  13.535  22.249  0.00  0.00     0.002 A 
ATOM     20  C   UNL d   1     -46.565  13.517  22.566  0.00  0.00     0.025 A 
ENDBRANCH  13  14
ENDBRANCH  12  13
ENDBRANCH  11  12
ENDBRANCH   2  11
TORSDOF 4
ENDMDL
MODEL 4
REMARK VINA RESULT:      -5.7      8.494     10.521
REMARK  4 active torsions:
REMARK  status: ('A' for Active; 'I' for Inactive)
REMARK    1  A    between atoms: C_9  and  N_2 
REMARK    2  A    between atoms: C_7  and  O_10 
REMARK    3  A    between atoms: C_11  and  C_9 
REMARK    4  A    between atoms: O_10  and  C_11 
ROOT
ATOM      1  C   UNL d   1     -39.896  14.109  17.607  0.00  0.00     0.296 A 
ATOM      2  N   UNL d   1     -39.749  14.916  17.667  0.00  0.00    -0.266 N 
ATOM      3  S   UNL d   1     -39.428  13.812  16.978  0.00  0.00    -0.025 SA
ATOM      4  C   UNL d   1     -39.195  15.122  17.084  0.00  0.00     0.074 A 
ATOM      5  C   UNL d   1     -38.999  14.445  16.663  0.00  0.00     0.050 A 
ATOM      6  O   UNL d   1     -40.408  13.669  18.074  0.00  0.00    -0.259 OA
ATOM      7  C   UNL d   1     -38.850  15.849  16.893  0.00  0.00     0.018 A 
ATOM      8  C   UNL d   1     -38.453  14.480  16.039  0.00  0.00     0.008 A 
ATOM      9  C   UNL d   1     -38.305  15.887  16.272  0.00  0.00     0.002 A 
ATOM     10  C   UNL d   1     -38.109  15.211  15.850  0.00  0.00     0.001 A 
ENDROOT
BRANCH   2  11
ATOM     11  C   UNL d   1     -40.091  15.432  18.212  0.00  0.00     0.110 C 
BRANCH  11  12
ATOM     12  C   UNL d   1     -39.894  15.384  19.010  0.00  0.00     0.142 C 
BRANCH  12  13
ATOM     13  O   UNL d   1     -40.213  15.915  19.560  0.00  0.00    -0.304 OA
BRANCH  13  14
ATOM     14  C   UNL d   1     -39.945  15.917  20.340  0.00  0.00     0.100 A 
ATOM     15  C   UNL d   1     -40.488  15.919  20.961  0.00  0.00     0.023 A 
ATOM     16  C   UNL d   1     -41.299  15.919  20.802  0.00  0.00     0.002 C 
ATOM     17  C   UNL d   1     -40.220  15.922  21.736  0.00  0.00     0.002 A 
ATOM     18  C   UNL d   1     -39.410  15.922  21.891  0.00  0.00     0.000 A 
ATOM     19  C   UNL d   1     -38.868  15.920  21.264  0.00  0.00     0.002 A 
ATOM     20  C   UNL d   1     -39.145  15.917  20.490  0.00  0.00     0.025 A 
ENDBRANCH  13  14
ENDBRANCH  12  13
ENDBRANCH  11  12
ENDBRANCH   2  11
TORSDOF 4
ENDMDL
MODEL 5
REMARK VINA RESULT:      -5.5      9.223      9.795
REMARK  4 active torsions:
REMARK  status: ('A' for Active; 'I' for Inactive)
REMARK    1  A    between atoms: C_9  and  N_2 
REMARK    2  A    between atoms: C_7  and  O_10 
REMARK    3  A    between atoms: C_11  and  C_9 
REMARK    4  A    between atoms: O_10  and  C_11 
ROOT
ATOM      1  C   UNL d   1     -39.205  13.981  18.065  0.00  0.00     0.296 A 
ATOM      2  N   UNL d   1     -39.868  14.292  18.437  0.00  0.00    -0.266 N 
ATOM      3  S   UNL d   1     -39.168  14.310  17.295  0.00  0.00    -0.025 SA
ATOM      4  C   UNL d   1     -40.243  14.809  17.907  0.00  0.00     0.074 A 
ATOM      5  C   UNL d   1     -39.814  14.819  17.207  0.00  0.00     0.050 A 
ATOM      6  O   UNL d   1     -38.670  13.446  18.384  0.00  0.00    -0.259 OA
ATOM      7  C   UNL d   1     -40.927  15.269  17.986  0.00  0.00     0.018 A 
ATOM      8  C   UNL d   1     -40.058  15.290  16.570  0.00  0.00     0.008 A 
ATOM      9  C   UNL d   1     -41.173  15.740  17.351  0.00  0.00     0.002 A 
ATOM     10  C   UNL d   1     -40.743  15.751  16.651  0.00  0.00     0.001 A 
ENDROOT
BRANCH   2  11
ATOM     11  C   UNL d   1     -40.119  14.121  19.204  0.00  0.00     0.110 C 
BRANCH  11  12
ATOM     12  C   UNL d   1     -39.767  14.492  19.849  0.00  0.00     0.142 C 
BRANCH  12  13
ATOM     13  O   UNL d   1     -39.892  14.217  20.619  0.00  0.00    -0.304 OA
BRANCH  13  14
ATOM     14  C   UNL d   1     -39.666  14.674  21.267  0.00  0.00     0.100 A 
ATOM     15  C   UNL d   1     -39.221  14.336  21.875  0.00  0.00     0.023 A 
ATOM     16  C   UNL d   1     -39.003  13.540  21.834  0.00  0.00     0.002 C 
ATOM     17  C   UNL d   1     -38.997  14.792  22.518  0.00  0.00     0.002 A 
ATOM     18  C   UNL d   1     -39.217  15.587  22.555  0.00  0.00     0.000 A 
ATOM     19  C   UNL d   1     -39.664  15.922  21.943  0.00  0.00     0.002 A 
ATOM     20  C   UNL d   1     -39.884  15.458  21.302  0.00  0.00     0.025 A 
ENDBRANCH  13  14
ENDBRANCH  12  13
ENDBRANCH  11  12
ENDBRANCH   2  11
TORSDOF 4
ENDMDL
MODEL 6
REMARK VINA RESULT:      -5.2      1.943      2.515
REMARK  4 active torsions:
REMARK  status: ('A' for Active; 'I' for Inactive)
REMARK    1  A    between atoms: C_9  and  N_2 
REMARK    2  A    between atoms: C_7  and  O_10 
REMARK    3  A    between atoms: C_11  and  C_9 
REMARK    4  A    between atoms: O_10  and  C_11 
ROOT
ATOM      1  C   UNL d   1     -47.878  13.154  22.080  0.00  0.00     0.296 A 
ATOM      2  N   UNL d   1     -47.795  12.746  22.789  0.00  0.00    -0.266 N 
ATOM      3  S   UNL d   1     -48.679  13.087  21.842  0.00  0.00    -0.025 SA
ATOM      4  C   UNL d   1     -48.533  12.427  22.992  0.00  0.00     0.074 A 
ATOM      5  C   UNL d   1     -49.075  12.636  22.412  0.00  0.00     0.050 A 
ATOM      6  O   UNL d   1     -47.289  13.556  21.674  0.00  0.00    -0.259 OA
ATOM      7  C   UNL d   1     -48.770  11.971  23.640  0.00  0.00     0.018 A 
ATOM      8  C   UNL d   1     -49.866  12.394  22.467  0.00  0.00     0.008 A 
ATOM      9  C   UNL d   1     -49.559  11.727  23.698  0.00  0.00     0.002 A 
ATOM     10  C   UNL d   1     -50.100  11.937  23.118  0.00  0.00     0.001 A 
ENDROOT
BRANCH   2  11
ATOM     11  C   UNL d   1     -47.098  12.666  23.223  0.00  0.00     0.110 C 
BRANCH  11  12
ATOM     12  C   UNL d   1     -46.550  12.084  23.027  0.00  0.00     0.142 C 
BRANCH  12  13
ATOM     13  O   UNL d   1     -45.748  12.173  23.213  0.00  0.00    -0.304 OA
BRANCH  13  14
ATOM     14  C   UNL d   1     -45.258  11.512  23.270  0.00  0.00     0.100 A 
ATOM     15  C   UNL d   1     -44.495  11.538  22.957  0.00  0.00     0.023 A 
ATOM     16  C   UNL d   1     -44.222  12.225  22.587  0.00  0.00     0.002 C 
ATOM     17  C   UNL d   1     -44.008  10.880  23.014  0.00  0.00     0.002 A 
ATOM     18  C   UNL d   1     -44.284  10.197  23.385  0.00  0.00     0.000 A 
ATOM     19  C   UNL d   1     -45.051  10.175  23.698  0.00  0.00     0.002 A 
ATOM     20  C   UNL d   1     -45.532  10.839  23.636  0.00  0.00     0.025 A 
ENDBRANCH  13  14
ENDBRANCH  12  13
ENDBRANCH  11  12
ENDBRANCH   2  11
TORSDOF 4
ENDMDL
MODEL 7
REMARK VINA RESULT:      -5.1      8.413     10.123
REMARK  4 active torsions:
REMARK  status: ('A' for Active; 'I' for Inactive)
REMARK    1  A    between atoms: C_9  and  N_2 
REMARK    2  A    between atoms: C_7  and  O_10 
REMARK    3  A    between atoms: C_11  and  C_9 
REMARK    4  A    between atoms: O_10  and  C_11 
ROOT
ATOM      1  C   UNL d   1     -40.727  14.431  20.398  0.00  0.00     0.296 A 
ATOM      2  N   UNL d   1     -40.203  14.936  20.018  0.00  0.00    -0.266 N 
ATOM      3  S   UNL d   1     -40.509  14.400  21.207  0.00  0.00    -0.025 SA
ATOM      4  C   UNL d   1     -39.662  15.219  20.580  0.00  0.00     0.074 A 
ATOM      5  C   UNL d   1     -39.849  14.890  21.308  0.00  0.00     0.050 A 
ATOM      6  O   UNL d   1     -41.354  14.027  20.055  0.00  0.00    -0.259 OA
ATOM      7  C   UNL d   1     -39.022  15.738  20.508  0.00  0.00     0.018 A 
ATOM      8  C   UNL d   1     -39.401  15.073  21.982  0.00  0.00     0.008 A 
ATOM      9  C   UNL d   1     -38.572  15.922  21.177  0.00  0.00     0.002 A 
ATOM     10  C   UNL d   1     -38.759  15.593  21.906  0.00  0.00     0.001 A 
ENDROOT
BRANCH   2  11
ATOM     11  C   UNL d   1     -40.211  15.130  19.216  0.00  0.00     0.110 C 
BRANCH  11  12
ATOM     12  C   UNL d   1     -39.855  14.634  18.665  0.00  0.00     0.142 C 
BRANCH  12  13
ATOM     13  O   UNL d   1     -39.855  14.823  17.859  0.00  0.00    -0.304 OA
BRANCH  13  14
ATOM     14  C   UNL d   1     -39.344  14.435  17.340  0.00  0.00     0.100 A 
ATOM     15  C   UNL d   1     -39.053  14.830  16.676  0.00  0.00     0.023 A 
ATOM     16  C   UNL d   1     -39.274  15.613  16.531  0.00  0.00     0.002 C 
ATOM     17  C   UNL d   1     -38.546  14.443  16.161  0.00  0.00     0.002 A 
ATOM     18  C   UNL d   1     -38.328  13.661  16.310  0.00  0.00     0.000 A 
ATOM     19  C   UNL d   1     -38.622  13.269  16.977  0.00  0.00     0.002 A 
ATOM     20  C   UNL d   1     -39.130  13.663  17.488  0.00  0.00     0.025 A 
ENDBRANCH  13  14
ENDBRANCH  12  13
ENDBRANCH  11  12
ENDBRANCH   2  11
TORSDOF 4
ENDMDL
