MODEL 1
REMARK VINA RESULT:      -5.5      0.000      0.000
REMARK  6 active torsions:
REMARK  status: ('A' for Active; 'I' for Inactive)
REMARK    1  A    between atoms: C_7  and  N_1 
REMARK    2  A    between atoms: C_9  and  C_7 
REMARK    3  A    between atoms: C_10  and  C_9 
REMARK       I    between atoms: N_13  and  C_10 
REMARK    4  A    between atoms: C_15  and  N_13 
REMARK    5  A    between atoms: C_18  and  C_15 
REMARK    6  A    between atoms: C_17  and  C_18 
ROOT
ATOM      1  C   UNL d   1      58.644  -0.628  29.257  0.00  0.00     0.090 C 
ENDROOT
BRANCH   1   2
ATOM      2  N   UNL d   1      59.263  -1.145  29.055  0.00  0.00    -0.249 N 
ATOM      3  C   UNL d   1      59.966  -0.846  28.764  0.00  0.00     0.208 A 
ATOM      4  N   UNL d   1      60.586  -1.351  28.560  0.00  0.00    -0.218 NA
ATOM      5  S   UNL d   1      60.064  -0.031  28.669  0.00  0.00    -0.038 SA
ATOM      6  C   UNL d   1      60.484  -2.168  28.656  0.00  0.00     0.088 A 
ATOM      7  C   UNL d   1      59.777  -2.469  28.950  0.00  0.00     0.074 A 
ATOM      8  C   UNL d   1      61.099  -2.681  28.456  0.00  0.00     0.019 A 
ATOM      9  C   UNL d   1      59.162  -1.956  29.150  0.00  0.00     0.268 A 
ATOM     10  C   UNL d   1      59.680  -3.283  29.043  0.00  0.00     0.006 A 
ATOM     11  O   UNL d   1      58.453  -2.255  29.444  0.00  0.00    -0.267 OA
ATOM     12  C   UNL d   1      60.294  -3.796  28.843  0.00  0.00     0.000 A 
ATOM     13  C   UNL d   1      61.001  -3.501  28.550  0.00  0.00     0.002 A 
ENDBRANCH   1   2
BRANCH   1  14
ATOM     14  C   UNL d   1      58.734  -0.118  29.894  0.00  0.00     0.082 C 
BRANCH  14  15
ATOM     15  C   UNL d   1      58.066   0.188  30.280  0.00  0.00     0.281 C 
ATOM     16  O   UNL d   1      57.523   0.631  29.851  0.00  0.00    -0.265 OA
ATOM     17  N   UNL d   1      57.959   0.044  31.080  0.00  0.00    -0.206 NA
BRANCH  17  18
ATOM     18  C   UNL d   1      57.285   0.352  31.469  0.00  0.00     0.102 C 
BRANCH  18  19
ATOM     19  C   UNL d   1      57.231   0.339  32.285  0.00  0.00     0.021 C 
BRANCH  19  20
ATOM     20  C   UNL d   1      56.548   0.117  32.649  0.00  0.00     0.002 A 
ATOM     21  C   UNL d   1      55.981   0.681  32.877  0.00  0.00     0.000 A 
ATOM     22  C   UNL d   1      55.279   0.453  33.250  0.00  0.00     0.000 A 
ATOM     23  C   UNL d   1      55.117  -0.338  33.410  0.00  0.00     0.000 A 
ATOM     24  C   UNL d   1      55.685  -0.902  33.181  0.00  0.00     0.000 A 
ATOM     25  C   UNL d   1      56.393  -0.684  32.806  0.00  0.00     0.000 A 
ENDBRANCH  19  20
ENDBRANCH  18  19
ENDBRANCH  17  18
ENDBRANCH  14  15
ENDBRANCH   1  14
TORSDOF 6
ENDMDL
MODEL 2
REMARK VINA RESULT:      -3.1      1.438      5.632
REMARK  6 active torsions:
REMARK  status: ('A' for Active; 'I' for Inactive)
REMARK    1  A    between atoms: C_7  and  N_1 
REMARK    2  A    between atoms: C_9  and  C_7 
REMARK    3  A    between atoms: C_10  and  C_9 
REMARK       I    between atoms: N_13  and  C_10 
REMARK    4  A    between atoms: C_15  and  N_13 
REMARK    5  A    between atoms: C_18  and  C_15 
REMARK    6  A    between atoms: C_17  and  C_18 
ROOT
ATOM      1  C   UNL d   1      57.444  -0.280  31.687  0.00  0.00     0.090 C 
ENDROOT
BRANCH   1   2
ATOM      2  N   UNL d   1      57.069  -0.037  32.389  0.00  0.00    -0.249 N 
ATOM      3  C   UNL d   1      57.469   0.434  32.923  0.00  0.00     0.208 A 
ATOM      4  N   UNL d   1      57.106   0.681  33.622  0.00  0.00    -0.218 NA
ATOM      5  S   UNL d   1      58.245   0.672  32.769  0.00  0.00    -0.038 SA
ATOM      6  C   UNL d   1      56.327   0.441  33.773  0.00  0.00     0.088 A 
ATOM      7  C   UNL d   1      55.924  -0.034  33.235  0.00  0.00     0.074 A 
ATOM      8  C   UNL d   1      55.955   0.682  34.469  0.00  0.00     0.019 A 
ATOM      9  C   UNL d   1      56.296  -0.275  32.539  0.00  0.00     0.268 A 
ATOM     10  C   UNL d   1      55.149  -0.270  33.390  0.00  0.00     0.006 A 
ATOM     11  O   UNL d   1      55.895  -0.750  31.999  0.00  0.00    -0.267 OA
ATOM     12  C   UNL d   1      54.776  -0.029  34.086  0.00  0.00     0.000 A 
ATOM     13  C   UNL d   1      55.174   0.444  34.625  0.00  0.00     0.002 A 
ENDBRANCH   1   2
BRANCH   1  14
ATOM     14  C   UNL d   1      57.664   0.282  31.130  0.00  0.00     0.082 C 
BRANCH  14  15
ATOM     15  C   UNL d   1      57.885   0.046  30.366  0.00  0.00     0.281 C 
ATOM     16  O   UNL d   1      57.600   0.464  29.718  0.00  0.00    -0.265 OA
ATOM     17  N   UNL d   1      58.384  -0.598  30.270  0.00  0.00    -0.206 NA
BRANCH  17  18
ATOM     18  C   UNL d   1      58.608  -0.836  29.500  0.00  0.00     0.102 C 
BRANCH  18  19
ATOM     19  C   UNL d   1      59.389  -1.004  29.324  0.00  0.00     0.021 C 
BRANCH  19  20
ATOM     20  C   UNL d   1      59.605  -1.740  29.075  0.00  0.00     0.002 A 
ATOM     21  C   UNL d   1      60.398  -1.989  29.117  0.00  0.00     0.000 A 
ATOM     22  C   UNL d   1      60.620  -2.744  28.862  0.00  0.00     0.000 A 
ATOM     23  C   UNL d   1      60.067  -3.273  28.558  0.00  0.00     0.000 A 
ATOM     24  C   UNL d   1      59.275  -3.022  28.517  0.00  0.00     0.000 A 
ATOM     25  C   UNL d   1      59.040  -2.267  28.771  0.00  0.00     0.000 A 
ENDBRANCH  19  20
ENDBRANCH  18  19
ENDBRANCH  17  18
ENDBRANCH  14  15
ENDBRANCH   1  14
TORSDOF 6
ENDMDL
