MODEL 1
REMARK VINA RESULT:      62.6      0.000      0.000
REMARK  9 active torsions:
REMARK  status: ('A' for Active; 'I' for Inactive)
REMARK    1  A    between atoms: C_6  and  C_1 
REMARK    2  A    between atoms: C_2  and  O_5 
REMARK    3  A    between atoms: C_4  and  C_2 
REMARK    4  A    between atoms: O_5  and  C_3 
REMARK    5  A    between atoms: C_7  and  C_6 
REMARK    6  A    between atoms: C_10  and  C_7 
REMARK    7  A    between atoms: O_25  and  C_8 
REMARK    8  A    between atoms: C_20  and  C_10 
REMARK    9  A    between atoms: O_27  and  C_14 
ROOT
ATOM      1  C   UNL d   1      60.936  48.899  51.319  0.00  0.00     0.062 A 
ATOM      2  C   UNL d   1      61.038  48.078  51.427  0.00  0.00     0.106 A 
ATOM      3  C   UNL d   1      61.091  49.413  51.945  0.00  0.00     0.012 A 
ATOM      4  C   UNL d   1      61.291  47.794  52.155  0.00  0.00     0.025 A 
ATOM      5  C   UNL d   1      61.344  49.120  52.670  0.00  0.00     0.035 A 
ATOM      6  C   UNL d   1      61.445  48.306  52.777  0.00  0.00     0.009 A 
ATOM      7 BR   UNL d   1      61.499  49.638  53.295  0.00  0.00    -0.049 Br
ENDROOT
BRANCH   1   8
ATOM      8  C   UNL d   1      60.682  49.192  50.591  0.00  0.00     0.198 C 
ATOM      9  O   UNL d   1      61.078  48.970  49.899  0.00  0.00    -0.286 OA
BRANCH   8  10
ATOM     10  C   UNL d   1      60.038  49.702  50.552  0.00  0.00     0.042 C 
BRANCH  10  11
ATOM     11  C   UNL d   1      59.470  49.608  49.961  0.00  0.00     0.003 C 
BRANCH  11  12
ATOM     12  C   UNL d   1      58.663  49.570  50.158  0.00  0.00     0.002 A 
ATOM     13  C   UNL d   1      58.119  49.410  49.541  0.00  0.00     0.026 A 
ATOM     14  C   UNL d   1      57.305  49.376  49.762  0.00  0.00     0.116 A 
ATOM     15  C   UNL d   1      57.063  49.494  50.544  0.00  0.00     0.116 A 
ATOM     16  C   UNL d   1      57.636  49.652  51.135  0.00  0.00     0.026 A 
ATOM     17  C   UNL d   1      58.436  49.689  50.935  0.00  0.00     0.002 A 
BRANCH  14  18
ATOM     18  O   UNL d   1      56.738  49.222  49.192  0.00  0.00    -0.326 OA
ATOM     19  C   UNL d   1      56.072  49.706  49.122  0.00  0.00     0.181 C 
ENDBRANCH  14  18
BRANCH  15  20
ATOM     20  O   UNL d   1      56.264  49.457  50.744  0.00  0.00    -0.326 OA
ATOM     21  C   UNL d   1      56.034  49.477  51.538  0.00  0.00     0.181 C 
ENDBRANCH  15  20
ENDBRANCH  11  12
ENDBRANCH  10  11
ENDBRANCH   8  10
ENDBRANCH   1   8
BRANCH   2  22
ATOM     22  O   UNL d   1      60.884  47.565  50.805  0.00  0.00    -0.271 OA
BRANCH  22  23
ATOM     23  C   UNL d   1      61.140  46.780  50.850  0.00  0.00     0.323 C 
ATOM     24  O   UNL d   1      61.062  46.351  51.556  0.00  0.00    -0.257 OA
BRANCH  23  25
ATOM     25  C   UNL d   1      61.476  46.417  50.191  0.00  0.00     0.163 A 
ATOM     26  O   UNL d   1      61.062  46.063  49.572  0.00  0.00    -0.300 OA
ATOM     27  C   UNL d   1      61.623  45.767  49.026  0.00  0.00     0.123 A 
ATOM     28  C   UNL d   1      62.376  45.943  49.314  0.00  0.00     0.029 A 
ATOM     29  C   UNL d   1      62.286  46.344  50.034  0.00  0.00     0.032 A 
ENDBRANCH  23  25
ENDBRANCH  22  23
ENDBRANCH   2  22
TORSDOF 9
ENDMDL
