MODEL 1
REMARK VINA RESULT:      -7.8      0.000      0.000
REMARK  3 active torsions:
REMARK  status: ('A' for Active; 'I' for Inactive)
REMARK    1  A    between atoms: C_10  and  C_2 
REMARK    2  A    between atoms: C_4  and  C_10 
REMARK    3  A    between atoms: C_27  and  N_13 
ROOT
ATOM      1  C   UNL d   1     -48.071  11.931  23.102  0.00  0.00     0.093 A 
ATOM      2  C   UNL d   1     -46.433  12.057  23.349  0.00  0.00     0.035 A 
ATOM      3  C   UNL d   1     -47.755  12.642  23.125  0.00  0.00    -0.012 A 
ATOM      4  C   UNL d   1     -49.566  13.895  22.803  0.00  0.00     0.056 A 
ATOM      5  C   UNL d   1     -46.745  11.333  23.327  0.00  0.00     0.180 A 
ATOM      6  C   UNL d   1     -49.253  14.599  22.826  0.00  0.00    -0.012 A 
ATOM      7  C   UNL d   1     -49.073  13.236  22.902  0.00  0.00    -0.016 A 
ATOM      8  C   UNL d   1     -48.259  13.297  23.025  0.00  0.00    -0.007 A 
ATOM      9  C   UNL d   1     -46.940  12.703  23.248  0.00  0.00    -0.001 A 
ATOM     10  C   UNL d   1     -48.431  14.656  22.950  0.00  0.00    -0.004 A 
ATOM     11  C   UNL d   1     -48.893  11.874  22.978  0.00  0.00    -0.016 A 
ATOM     12  C   UNL d   1     -47.935  14.005  23.049  0.00  0.00    -0.001 A 
ATOM     13  C   UNL d   1     -49.390  12.525  22.879  0.00  0.00    -0.007 A 
ATOM     14  C   UNL d   1     -50.379  13.835  22.681  0.00  0.00    -0.015 A 
ATOM     15  C   UNL d   1     -49.759  15.273  22.725  0.00  0.00     0.038 A 
ATOM     16  O   UNL d   1     -46.422  10.628  23.401  0.00  0.00    -0.291 OA
ATOM     17  C   UNL d   1     -48.392  11.212  23.079  0.00  0.00     0.017 C 
ATOM     18  C   UNL d   1     -50.903  14.489  22.577  0.00  0.00     0.038 A 
ATOM     19  C   UNL d   1     -50.583  15.208  22.601  0.00  0.00     0.195 A 
ATOM     20  C   UNL d   1     -50.007  12.927  22.770  0.00  0.00     0.013 C 
ATOM     21  O   UNL d   1     -51.064  15.852  22.504  0.00  0.00    -0.287 OA
ENDROOT
BRANCH   2  22
ATOM     22  C   UNL d   1     -45.639  12.155  23.467  0.00  0.00     0.006 C 
BRANCH  22  23
ATOM     23  C   UNL d   1     -45.123  12.361  22.863  0.00  0.00     0.039 A 
ATOM     24  C   UNL d   1     -44.431  12.081  22.562  0.00  0.00     0.085 A 
ATOM     25  N   UNL d   1     -44.209  12.583  21.924  0.00  0.00    -0.228 N 
ATOM     26  C   UNL d   1     -44.078  11.398  22.904  0.00  0.00     0.021 C 
ATOM     27  N   UNL d   1     -44.767  13.177  21.829  0.00  0.00    -0.164 NA
ATOM     28  C   UNL d   1     -45.338  13.039  22.415  0.00  0.00     0.122 A 
BRANCH  25  29
ATOM     29  C   UNL d   1     -43.518  12.483  21.459  0.00  0.00     0.101 C 
ATOM     30  C   UNL d   1     -43.166  13.153  21.072  0.00  0.00     0.022 C 
ENDBRANCH  25  29
ENDBRANCH  22  23
ENDBRANCH   2  22
TORSDOF 3
ENDMDL
MODEL 2
REMARK VINA RESULT:      -4.9      5.149      9.558
REMARK  3 active torsions:
REMARK  status: ('A' for Active; 'I' for Inactive)
REMARK    1  A    between atoms: C_10  and  C_2 
REMARK    2  A    between atoms: C_4  and  C_10 
REMARK    3  A    between atoms: C_27  and  N_13 
ROOT
ATOM      1  C   UNL d   1     -38.781  13.715  19.804  0.00  0.00     0.093 A 
ATOM      2  C   UNL d   1     -40.027  14.230  20.776  0.00  0.00     0.035 A 
ATOM      3  C   UNL d   1     -39.405  14.036  19.466  0.00  0.00    -0.012 A 
ATOM      4  C   UNL d   1     -38.804  13.915  17.326  0.00  0.00     0.056 A 
ATOM      5  C   UNL d   1     -39.399  13.906  21.126  0.00  0.00     0.180 A 
ATOM      6  C   UNL d   1     -39.422  14.233  16.991  0.00  0.00    -0.012 A 
ATOM      7  C   UNL d   1     -38.791  13.845  18.152  0.00  0.00    -0.016 A 
ATOM      8  C   UNL d   1     -39.408  14.101  18.635  0.00  0.00    -0.007 A 
ATOM      9  C   UNL d   1     -40.023  14.291  19.950  0.00  0.00    -0.001 A 
ATOM     10  C   UNL d   1     -40.043  14.489  17.483  0.00  0.00    -0.004 A 
ATOM     11  C   UNL d   1     -38.159  13.458  19.312  0.00  0.00    -0.016 A 
ATOM     12  C   UNL d   1     -40.036  14.423  18.305  0.00  0.00    -0.001 A 
ATOM     13  C   UNL d   1     -38.167  13.524  18.490  0.00  0.00    -0.007 A 
ATOM     14  C   UNL d   1     -38.187  13.660  16.842  0.00  0.00    -0.015 A 
ATOM     15  C   UNL d   1     -39.435  14.303  16.145  0.00  0.00     0.038 A 
ATOM     16  O   UNL d   1     -39.237  13.772  21.877  0.00  0.00    -0.291 OA
ATOM     17  C   UNL d   1     -38.150  13.390  20.146  0.00  0.00     0.017 C 
ATOM     18  C   UNL d   1     -38.176  13.719  16.000  0.00  0.00     0.038 A 
ATOM     19  C   UNL d   1     -38.807  14.044  15.658  0.00  0.00     0.195 A 
ATOM     20  C   UNL d   1     -37.948  13.475  17.780  0.00  0.00     0.013 C 
ATOM     21  O   UNL d   1     -38.821  14.112  14.851  0.00  0.00    -0.287 OA
ENDROOT
BRANCH   2  22
ATOM     22  C   UNL d   1     -40.651  14.491  21.218  0.00  0.00     0.006 C 
BRANCH  22  23
ATOM     23  C   UNL d   1     -41.375  14.106  21.234  0.00  0.00     0.039 A 
ATOM     24  C   UNL d   1     -42.149  14.307  21.143  0.00  0.00     0.085 A 
ATOM     25  N   UNL d   1     -42.607  13.607  21.234  0.00  0.00    -0.228 N 
ATOM     26  C   UNL d   1     -42.352  15.109  20.988  0.00  0.00     0.021 C 
ATOM     27  N   UNL d   1     -42.115  12.968  21.381  0.00  0.00    -0.164 NA
ATOM     28  C   UNL d   1     -41.345  13.279  21.381  0.00  0.00     0.122 A 
BRANCH  25  29
ATOM     29  C   UNL d   1     -43.444  13.576  21.180  0.00  0.00     0.101 C 
ATOM     30  C   UNL d   1     -43.870  12.936  21.543  0.00  0.00     0.022 C 
ENDBRANCH  25  29
ENDBRANCH  22  23
ENDBRANCH   2  22
TORSDOF 3
ENDMDL
