MODEL 1
REMARK VINA RESULT:      71.3      0.000      0.000
REMARK  5 active torsions:
REMARK  status: ('A' for Active; 'I' for Inactive)
REMARK    1  A    between atoms: N_9  and  C_3 
REMARK    2  A    between atoms: C_13  and  C_5 
REMARK    3  A    between atoms: C_12  and  N_10 
REMARK    4  A    between atoms: C_20  and  C_11 
REMARK    5  A    between atoms: C_25  and  C_20 
ROOT
ATOM      1  N   UNL d   1      14.360  14.554  -2.619  0.00  0.00    -0.196 N 
ATOM      2  C   UNL d   1      14.298  13.860  -2.177  0.00  0.00     0.167 A 
ATOM      3  C   UNL d   1      14.046  14.564  -3.362  0.00  0.00     0.152 A 
ATOM      4  N   UNL d   1      15.036  15.170  -1.559  0.00  0.00    -0.163 NA
ATOM      5  C   UNL d   1      14.602  13.829  -1.439  0.00  0.00     0.055 A 
ATOM      6  C   UNL d   1      14.975  14.476  -1.116  0.00  0.00     0.104 A 
ATOM      7  N   UNL d   1      13.926  13.213  -2.500  0.00  0.00    -0.227 NA
ATOM      8  C   UNL d   1      13.679  13.934  -3.686  0.00  0.00     0.057 A 
ATOM      9  C   UNL d   1      13.618  13.240  -3.244  0.00  0.00     0.086 A 
ATOM     10  C   UNL d   1      15.283  14.452  -0.375  0.00  0.00     0.023 C 
ENDROOT
BRANCH   3  11
ATOM     11  N   UNL d   1      14.109  15.280  -3.818  0.00  0.00    -0.286 N 
ATOM     12  C   UNL d   1      13.674  15.368  -4.532  0.00  0.00     0.101 A 
ATOM     13  C   UNL d   1      13.737  16.084  -4.988  0.00  0.00     0.101 A 
ATOM     14  N   UNL d   1      14.236  16.710  -4.729  0.00  0.00    -0.286 N 
ATOM     15  C   UNL d   1      14.682  16.628  -4.004  0.00  0.00     0.101 A 
ATOM     16  C   UNL d   1      14.619  15.912  -3.548  0.00  0.00     0.101 A 
BRANCH  14  17
ATOM     17  C   UNL d   1      14.299  17.422  -5.183  0.00  0.00     0.148 A 
ATOM     18  N   UNL d   1      14.950  17.953  -5.038  0.00  0.00    -0.227 NA
ATOM     19  C   UNL d   1      15.013  18.665  -5.491  0.00  0.00     0.101 A 
ATOM     20  C   UNL d   1      14.425  18.842  -6.088  0.00  0.00     0.021 A 
ATOM     21  C   UNL d   1      13.789  18.312  -6.222  0.00  0.00     0.005 A 
ATOM     22  C   UNL d   1      13.725  17.597  -5.767  0.00  0.00     0.037 A 
ENDBRANCH  14  17
ENDBRANCH   3  11
BRANCH   9  23
ATOM     23  C   UNL d   1      13.231  12.563  -3.575  0.00  0.00     0.019 C 
BRANCH  23  24
ATOM     24  C   UNL d   1      13.377  12.330  -4.384  0.00  0.00     0.002 C 
ATOM     25  C   UNL d   1      12.870  11.780  -4.765  0.00  0.00     0.000 C 
ENDBRANCH  23  24
ENDBRANCH   9  23
BRANCH   5  26
ATOM     26  C   UNL d   1      14.542  13.146  -1.004  0.00  0.00     0.004 A 
ATOM     27  C   UNL d   1      13.933  13.065  -0.470  0.00  0.00     0.000 A 
ATOM     28  C   UNL d   1      13.872  12.371  -0.027  0.00  0.00     0.000 A 
ATOM     29  C   UNL d   1      14.421  11.780  -0.134  0.00  0.00     0.000 A 
ATOM     30  C   UNL d   1      15.027  11.872  -0.673  0.00  0.00     0.000 A 
ATOM     31  C   UNL d   1      15.087  12.555  -1.108  0.00  0.00     0.000 A 
ENDBRANCH   5  26
TORSDOF 5
ENDMDL
