MODEL 1
REMARK VINA RESULT:      85.5      0.000      0.000
REMARK  4 active torsions:
REMARK  status: ('A' for Active; 'I' for Inactive)
REMARK    1  A    between atoms: C_2  and  C_1 
REMARK       I    between atoms: N_7  and  C_2 
REMARK    2  A    between atoms: N_6  and  C_5 
REMARK    3  A    between atoms: C_10  and  N_7 
REMARK    4  A    between atoms: C_8  and  C_9 
ROOT
ATOM      1  C   UNL d   1      61.500  45.103  49.886  0.00  0.00     0.021 A 
ATOM      2  C   UNL d   1      61.756  43.729  50.181  0.00  0.00     0.085 A 
ATOM      3  C   UNL d   1      61.617  44.501  50.437  0.00  0.00     0.021 A 
ATOM      4  C   UNL d   1      61.521  44.933  49.078  0.00  0.00     0.002 A 
ATOM      5  C   UNL d   1      61.659  44.166  48.829  0.00  0.00     0.002 A 
ATOM      6  C   UNL d   1      61.776  43.564  49.380  0.00  0.00     0.019 A 
ENDROOT
BRANCH   1   7
ATOM      7  C   UNL d   1      61.360  45.882  50.148  0.00  0.00     0.103 A 
ATOM      8  N   UNL d   1      61.768  46.506  49.812  0.00  0.00    -0.147 NA
ATOM      9  N   UNL d   1      61.627  47.275  50.075  0.00  0.00    -0.130 NA
ATOM     10  C   UNL d   1      61.076  47.412  50.674  0.00  0.00     0.169 A 
ATOM     11  C   UNL d   1      60.666  46.775  51.010  0.00  0.00     0.041 A 
ATOM     12  C   UNL d   1      60.809  46.018  50.747  0.00  0.00     0.024 A 
BRANCH  10  13
ATOM     13  N   UNL d   1      60.934  48.173  50.936  0.00  0.00    -0.288 N 
ATOM     14  C   UNL d   1      61.144  48.388  51.705  0.00  0.00     0.082 A 
ATOM     15  C   UNL d   1      61.002  49.155  51.974  0.00  0.00     0.019 A 
ATOM     16  C   UNL d   1      60.649  49.708  51.474  0.00  0.00     0.003 A 
ATOM     17  C   UNL d   1      60.438  49.494  50.705  0.00  0.00     0.019 A 
ATOM     18  C   UNL d   1      60.580  48.726  50.437  0.00  0.00     0.082 A 
ENDBRANCH  10  13
ENDBRANCH   1   7
BRANCH   2  19
ATOM     19  N   UNL d   1      61.873  43.126  50.732  0.00  0.00    -0.205 NA
ATOM     20  C   UNL d   1      62.570  42.698  50.734  0.00  0.00     0.351 C 
ATOM     21  O   UNL d   1      63.158  42.872  50.181  0.00  0.00    -0.261 OA
BRANCH  20  22
ATOM     22  C   UNL d   1      62.687  42.100  51.282  0.00  0.00     0.474 C 
ATOM     23  F   UNL d   1      62.804  41.497  51.834  0.00  0.00    -0.162 F 
ATOM     24  F   UNL d   1      63.063  41.645  50.706  0.00  0.00    -0.162 F 
ATOM     25  F   UNL d   1      62.310  42.554  51.859  0.00  0.00    -0.162 F 
ENDBRANCH  20  22
ENDBRANCH   2  19
TORSDOF 4
ENDMDL
