MODEL 1
REMARK VINA RESULT:      -1.3      0.000      0.000
REMARK  5 active torsions:
REMARK  status: ('A' for Active; 'I' for Inactive)
REMARK    1  A    between atoms: C_3  and  C_1 
REMARK    2  A    between atoms: C_7  and  C_3 
REMARK       I    between atoms: C_6  and  N_5 
REMARK    3  A    between atoms: O_18  and  C_6 
REMARK    4  A    between atoms: N_10  and  C_7 
REMARK    5  A    between atoms: C_21  and  O_18 
ROOT
ATOM      1  C   UNL d   1      32.860  18.593 -23.561  0.00  0.00     0.110 C 
ATOM      2  C   UNL d   1      33.050  18.669 -22.756  0.00  0.00     0.105 C 
ATOM      3  N   UNL d   1      33.237  18.744 -21.962  0.00  0.00    -0.191 NA
ENDROOT
BRANCH   1   4
ATOM      4  C   UNL d   1      32.287  18.047 -23.796  0.00  0.00     0.122 A 
ATOM      5  N   UNL d   1      31.603  18.211 -24.221  0.00  0.00    -0.238 NA
ATOM      6  C   UNL d   1      31.194  17.503 -24.332  0.00  0.00     0.088 A 
ATOM      7  C   UNL d   1      30.481  17.332 -24.714  0.00  0.00     0.020 A 
ATOM      8  C   UNL d   1      31.625  16.897 -23.976  0.00  0.00     0.049 A 
ATOM      9  C   UNL d   1      30.202  16.558 -24.739  0.00  0.00     0.002 A 
ATOM     10  C   UNL d   1      30.636  15.949 -24.381  0.00  0.00     0.001 A 
ATOM     11  C   UNL d   1      31.346  16.117 -24.000  0.00  0.00     0.008 A 
ATOM     12  S   UNL d   1      32.302  17.228 -23.643  0.00  0.00    -0.066 SA
ENDBRANCH   1   4
BRANCH   1  13
ATOM     13  C   UNL d   1      33.240  19.058 -24.122  0.00  0.00     0.093 C 
BRANCH  13  14
ATOM     14  N   UNL d   1      33.240  19.880 -24.047  0.00  0.00    -0.299 N 
ATOM     15  C   UNL d   1      33.240  20.224 -23.287  0.00  0.00     0.100 A 
ATOM     16  C   UNL d   1      33.240  21.038 -23.212  0.00  0.00     0.104 A 
ATOM     17  N   UNL d   1      33.241  21.521 -23.883  0.00  0.00    -0.249 N 
ATOM     18  C   UNL d   1      33.241  21.177 -24.634  0.00  0.00     0.104 A 
ATOM     19  C   UNL d   1      33.241  22.344 -23.808  0.00  0.00     0.378 C 
ATOM     20  C   UNL d   1      33.241  20.348 -24.719  0.00  0.00     0.100 A 
ATOM     21  O   UNL d   1      33.241  22.824 -24.478  0.00  0.00    -0.237 OA
BRANCH  19  22
ATOM     22  O   UNL d   1      33.240  22.681 -23.060  0.00  0.00    -0.257 OA
BRANCH  22  23
ATOM     23  C   UNL d   1      33.018  23.467 -22.959  0.00  0.00     0.128 C 
ATOM     24  C   UNL d   1      32.625  23.702 -22.266  0.00  0.00     0.029 C 
ENDBRANCH  22  23
ENDBRANCH  19  22
ENDBRANCH  13  14
ENDBRANCH   1  13
TORSDOF 5
ENDMDL
MODEL 2
REMARK VINA RESULT:      -1.2      2.343      5.196
REMARK  5 active torsions:
REMARK  status: ('A' for Active; 'I' for Inactive)
REMARK    1  A    between atoms: C_3  and  C_1 
REMARK    2  A    between atoms: C_7  and  C_3 
REMARK       I    between atoms: C_6  and  N_5 
REMARK    3  A    between atoms: O_18  and  C_6 
REMARK    4  A    between atoms: N_10  and  C_7 
REMARK    5  A    between atoms: C_21  and  O_18 
ROOT
ATOM      1  C   UNL d   1      33.165  19.875 -22.218  0.00  0.00     0.110 C 
ATOM      2  C   UNL d   1      33.204  19.351 -21.576  0.00  0.00     0.105 C 
ATOM      3  N   UNL d   1      33.241  18.835 -20.941  0.00  0.00    -0.191 NA
ENDROOT
BRANCH   1   4
ATOM      4  C   UNL d   1      33.051  20.681 -22.083  0.00  0.00     0.122 A 
ATOM      5  N   UNL d   1      33.155  21.287 -22.629  0.00  0.00    -0.238 NA
ATOM      6  C   UNL d   1      32.980  22.002 -22.256  0.00  0.00     0.088 A 
ATOM      7  C   UNL d   1      32.987  22.783 -22.528  0.00  0.00     0.020 A 
ATOM      8  C   UNL d   1      32.767  21.840 -21.475  0.00  0.00     0.049 A 
ATOM      9  C   UNL d   1      32.783  23.397 -22.021  0.00  0.00     0.002 A 
ATOM     10  C   UNL d   1      32.569  23.235 -21.236  0.00  0.00     0.001 A 
ATOM     11  C   UNL d   1      32.561  22.459 -20.963  0.00  0.00     0.008 A 
ATOM     12  S   UNL d   1      32.810  21.026 -21.364  0.00  0.00    -0.066 SA
ENDBRANCH   1   4
BRANCH   1  13
ATOM     13  C   UNL d   1      33.241  19.594 -22.988  0.00  0.00     0.093 C 
BRANCH  13  14
ATOM     14  N   UNL d   1      32.899  18.873 -23.199  0.00  0.00    -0.299 N 
ATOM     15  C   UNL d   1      32.210  18.866 -23.669  0.00  0.00     0.100 A 
ATOM     16  C   UNL d   1      31.871  18.152 -23.879  0.00  0.00     0.104 A 
ATOM     17  N   UNL d   1      32.207  17.439 -23.629  0.00  0.00    -0.249 N 
ATOM     18  C   UNL d   1      32.889  17.450 -23.163  0.00  0.00     0.104 A 
ATOM     19  C   UNL d   1      31.864  16.717 -23.840  0.00  0.00     0.378 C 
ATOM     20  C   UNL d   1      33.241  18.173 -22.945  0.00  0.00     0.100 A 
ATOM     21  O   UNL d   1      32.201  16.007 -23.589  0.00  0.00    -0.237 OA
BRANCH  19  22
ATOM     22  O   UNL d   1      31.187  16.712 -24.302  0.00  0.00    -0.257 OA
BRANCH  22  23
ATOM     23  C   UNL d   1      30.585  16.171 -24.151  0.00  0.00     0.128 C 
ATOM     24  C   UNL d   1      30.214  15.774 -24.779  0.00  0.00     0.029 C 
ENDBRANCH  22  23
ENDBRANCH  19  22
ENDBRANCH  13  14
ENDBRANCH   1  13
TORSDOF 5
ENDMDL
MODEL 3
REMARK VINA RESULT:      -0.4      1.791      2.328
REMARK  5 active torsions:
REMARK  status: ('A' for Active; 'I' for Inactive)
REMARK    1  A    between atoms: C_3  and  C_1 
REMARK    2  A    between atoms: C_7  and  C_3 
REMARK       I    between atoms: C_6  and  N_5 
REMARK    3  A    between atoms: O_18  and  C_6 
REMARK    4  A    between atoms: N_10  and  C_7 
REMARK    5  A    between atoms: C_21  and  O_18 
ROOT
ATOM      1  C   UNL d   1      33.029  19.539 -22.434  0.00  0.00     0.110 C 
ATOM      2  C   UNL d   1      33.134  19.285 -21.650  0.00  0.00     0.105 C 
ATOM      3  N   UNL d   1      33.236  19.033 -20.878  0.00  0.00    -0.191 NA
ENDROOT
BRANCH   1   4
ATOM      4  C   UNL d   1      32.712  19.022 -22.993  0.00  0.00     0.122 A 
ATOM      5  N   UNL d   1      31.943  18.731 -23.008  0.00  0.00    -0.238 NA
ATOM      6  C   UNL d   1      31.868  18.235 -23.661  0.00  0.00     0.088 A 
ATOM      7  C   UNL d   1      31.230  17.795 -23.950  0.00  0.00     0.020 A 
ATOM      8  C   UNL d   1      32.593  18.216 -24.055  0.00  0.00     0.049 A 
ATOM      9  C   UNL d   1      31.318  17.339 -24.629  0.00  0.00     0.002 A 
ATOM     10  C   UNL d   1      32.046  17.320 -25.025  0.00  0.00     0.001 A 
ATOM     11  C   UNL d   1      32.683  17.757 -24.740  0.00  0.00     0.008 A 
ATOM     12  S   UNL d   1      33.117  18.701 -23.646  0.00  0.00    -0.066 SA
ENDBRANCH   1   4
BRANCH   1  13
ATOM     13  C   UNL d   1      33.241  20.303 -22.653  0.00  0.00     0.093 C 
BRANCH  13  14
ATOM     14  N   UNL d   1      33.015  20.945 -22.185  0.00  0.00    -0.299 N 
ATOM     15  C   UNL d   1      33.235  20.967 -21.381  0.00  0.00     0.100 A 
ATOM     16  C   UNL d   1      33.012  21.602 -20.919  0.00  0.00     0.104 A 
ATOM     17  N   UNL d   1      32.569  22.222 -21.242  0.00  0.00    -0.249 N 
ATOM     18  C   UNL d   1      32.353  22.197 -22.039  0.00  0.00     0.104 A 
ATOM     19  C   UNL d   1      32.343  22.865 -20.774  0.00  0.00     0.378 C 
ATOM     20  C   UNL d   1      32.577  21.553 -22.518  0.00  0.00     0.100 A 
ATOM     21  O   UNL d   1      31.902  23.481 -21.099  0.00  0.00    -0.237 OA
BRANCH  19  22
ATOM     22  O   UNL d   1      32.560  22.885 -19.984  0.00  0.00    -0.257 OA
BRANCH  22  23
ATOM     23  C   UNL d   1      32.129  23.334 -19.446  0.00  0.00     0.128 C 
ATOM     24  C   UNL d   1      32.321  23.313 -18.638  0.00  0.00     0.029 C 
ENDBRANCH  22  23
ENDBRANCH  19  22
ENDBRANCH  13  14
ENDBRANCH   1  13
TORSDOF 5
ENDMDL
MODEL 4
REMARK VINA RESULT:      -0.1      2.404      5.222
REMARK  5 active torsions:
REMARK  status: ('A' for Active; 'I' for Inactive)
REMARK    1  A    between atoms: C_3  and  C_1 
REMARK    2  A    between atoms: C_7  and  C_3 
REMARK       I    between atoms: C_6  and  N_5 
REMARK    3  A    between atoms: O_18  and  C_6 
REMARK    4  A    between atoms: N_10  and  C_7 
REMARK    5  A    between atoms: C_21  and  O_18 
ROOT
ATOM      1  C   UNL d   1      33.084  20.391 -21.643  0.00  0.00     0.110 C 
ATOM      2  C   UNL d   1      33.163  19.764 -21.105  0.00  0.00     0.105 C 
ATOM      3  N   UNL d   1      33.241  19.146 -20.572  0.00  0.00    -0.191 NA
ENDROOT
BRANCH   1   4
ATOM      4  C   UNL d   1      32.847  21.134 -21.374  0.00  0.00     0.122 A 
ATOM      5  N   UNL d   1      32.440  21.703 -21.807  0.00  0.00    -0.238 NA
ATOM      6  C   UNL d   1      32.320  22.358 -21.321  0.00  0.00     0.088 A 
ATOM      7  C   UNL d   1      31.949  23.084 -21.456  0.00  0.00     0.020 A 
ATOM      8  C   UNL d   1      32.653  22.197 -20.584  0.00  0.00     0.049 A 
ATOM      9  C   UNL d   1      31.911  23.645 -20.855  0.00  0.00     0.002 A 
ATOM     10  C   UNL d   1      32.246  23.484 -20.114  0.00  0.00     0.001 A 
ATOM     11  C   UNL d   1      32.616  22.762 -19.977  0.00  0.00     0.008 A 
ATOM     12  S   UNL d   1      32.980  21.442 -20.612  0.00  0.00    -0.066 SA
ENDBRANCH   1   4
BRANCH   1  13
ATOM     13  C   UNL d   1      33.240  20.272 -22.442  0.00  0.00     0.093 C 
BRANCH  13  14
ATOM     14  N   UNL d   1      32.946  19.603 -22.827  0.00  0.00    -0.299 N 
ATOM     15  C   UNL d   1      33.031  18.853 -22.471  0.00  0.00     0.100 A 
ATOM     16  C   UNL d   1      32.740  18.191 -22.851  0.00  0.00     0.104 A 
ATOM     17  N   UNL d   1      32.362  18.259 -23.584  0.00  0.00    -0.249 N 
ATOM     18  C   UNL d   1      32.280  19.004 -23.933  0.00  0.00     0.104 A 
ATOM     19  C   UNL d   1      32.068  17.590 -23.968  0.00  0.00     0.378 C 
ATOM     20  C   UNL d   1      32.574  19.684 -23.552  0.00  0.00     0.100 A 
ATOM     21  O   UNL d   1      31.693  17.661 -24.699  0.00  0.00    -0.237 OA
BRANCH  19  22
ATOM     22  O   UNL d   1      32.152  16.854 -23.618  0.00  0.00    -0.257 OA
BRANCH  22  23
ATOM     23  C   UNL d   1      31.925  16.173 -24.021  0.00  0.00     0.128 C 
ATOM     24  C   UNL d   1      31.851  15.452 -23.614  0.00  0.00     0.029 C 
ENDBRANCH  22  23
ENDBRANCH  19  22
ENDBRANCH  13  14
ENDBRANCH   1  13
TORSDOF 5
ENDMDL
MODEL 5
REMARK VINA RESULT:       1.7      3.087      4.115
REMARK  5 active torsions:
REMARK  status: ('A' for Active; 'I' for Inactive)
REMARK    1  A    between atoms: C_3  and  C_1 
REMARK    2  A    between atoms: C_7  and  C_3 
REMARK       I    between atoms: C_6  and  N_5 
REMARK    3  A    between atoms: O_18  and  C_6 
REMARK    4  A    between atoms: N_10  and  C_7 
REMARK    5  A    between atoms: C_21  and  O_18 
ROOT
ATOM      1  C   UNL d   1      32.816  20.640 -21.255  0.00  0.00     0.110 C 
ATOM      2  C   UNL d   1      33.026  20.283 -20.535  0.00  0.00     0.105 C 
ATOM      3  N   UNL d   1      33.233  19.929 -19.826  0.00  0.00    -0.191 NA
ENDROOT
BRANCH   1   4
ATOM      4  C   UNL d   1      32.804  20.190 -21.947  0.00  0.00     0.122 A 
ATOM      5  N   UNL d   1      32.864  20.476 -22.716  0.00  0.00    -0.238 NA
ATOM      6  C   UNL d   1      32.826  19.834 -23.232  0.00  0.00     0.088 A 
ATOM      7  C   UNL d   1      32.857  19.787 -24.057  0.00  0.00     0.020 A 
ATOM      8  C   UNL d   1      32.743  19.147 -22.783  0.00  0.00     0.049 A 
ATOM      9  C   UNL d   1      32.805  19.056 -24.430  0.00  0.00     0.002 A 
ATOM     10  C   UNL d   1      32.722  18.365 -23.979  0.00  0.00     0.001 A 
ATOM     11  C   UNL d   1      32.691  18.408 -23.158  0.00  0.00     0.008 A 
ATOM     12  S   UNL d   1      32.729  19.362 -21.989  0.00  0.00    -0.066 SA
ENDBRANCH   1   4
BRANCH   1  13
ATOM     13  C   UNL d   1      32.621  21.438 -21.279  0.00  0.00     0.093 C 
BRANCH  13  14
ATOM     14  N   UNL d   1      32.606  21.882 -20.583  0.00  0.00    -0.299 N 
ATOM     15  C   UNL d   1      33.241  21.826 -20.045  0.00  0.00     0.100 A 
ATOM     16  C   UNL d   1      33.226  22.265 -19.356  0.00  0.00     0.104 A 
ATOM     17  N   UNL d   1      32.587  22.763 -19.189  0.00  0.00    -0.249 N 
ATOM     18  C   UNL d   1      31.960  22.815 -19.724  0.00  0.00     0.104 A 
ATOM     19  C   UNL d   1      32.572  23.207 -18.492  0.00  0.00     0.378 C 
ATOM     20  C   UNL d   1      31.967  22.371 -20.429  0.00  0.00     0.100 A 
ATOM     21  O   UNL d   1      31.934  23.702 -18.328  0.00  0.00    -0.237 OA
BRANCH  19  22
ATOM     22  O   UNL d   1      33.196  23.151 -17.965  0.00  0.00    -0.257 OA
BRANCH  22  23
ATOM     23  C   UNL d   1      33.169  23.548 -17.244  0.00  0.00     0.128 C 
ATOM     24  C   UNL d   1      32.972  23.137 -16.549  0.00  0.00     0.029 C 
ENDBRANCH  22  23
ENDBRANCH  19  22
ENDBRANCH  13  14
ENDBRANCH   1  13
TORSDOF 5
ENDMDL
