MODEL 1
REMARK VINA RESULT:      14.6      0.000      0.000
REMARK  3 active torsions:
REMARK  status: ('A' for Active; 'I' for Inactive)
REMARK    1  A    between atoms: N_2  and  S_1 
REMARK    2  A    between atoms: C_3  and  S_1 
REMARK    3  A    between atoms: C_5  and  N_4 
ROOT
ATOM      1  N   UNL d   1      46.049 -17.413  43.983  0.00  0.00    -0.226 N 
ATOM      2  N   UNL d   1      45.771 -15.838  44.351  0.00  0.00    -0.286 N 
ATOM      3  C   UNL d   1      46.012 -16.852  43.385  0.00  0.00     0.111 A 
ATOM      4  C   UNL d   1      45.946 -17.187  44.765  0.00  0.00     0.111 A 
ATOM      5  C   UNL d   1      45.808 -16.400  44.949  0.00  0.00     0.101 A 
ATOM      6  C   UNL d   1      45.873 -16.064  43.568  0.00  0.00     0.101 A 
ENDROOT
BRANCH   1   7
ATOM      7  S   UNL d   1      46.190 -18.217  43.801  0.00  0.00     0.277 S 
ATOM      8  O   UNL d   1      46.205 -18.033  42.989  0.00  0.00    -0.199 OA
ATOM      9  O   UNL d   1      46.176 -18.404  44.617  0.00  0.00    -0.199 OA
BRANCH   7  10
ATOM     10  C   UNL d   1      46.332 -19.022  43.619  0.00  0.00     0.133 A 
ATOM     11  S   UNL d   1      46.574 -19.606  44.154  0.00  0.00    -0.074 SA
ATOM     12  C   UNL d   1      46.646 -20.325  43.729  0.00  0.00     0.036 A 
ATOM     13  C   UNL d   1      46.445 -20.173  42.935  0.00  0.00     0.008 A 
ATOM     14  C   UNL d   1      46.251 -19.371  42.862  0.00  0.00     0.020 A 
ENDBRANCH   7  10
ENDBRANCH   1   7
BRANCH   2  15
ATOM     15  C   UNL d   1      45.633 -15.048  44.524  0.00  0.00     0.148 A 
ATOM     16  N   UNL d   1      46.242 -14.507  44.433  0.00  0.00    -0.227 NA
ATOM     17  C   UNL d   1      46.113 -13.716  44.604  0.00  0.00     0.101 A 
ATOM     18  C   UNL d   1      45.372 -13.464  44.866  0.00  0.00     0.021 A 
ATOM     19  C   UNL d   1      44.764 -14.015  44.955  0.00  0.00     0.005 A 
ATOM     20  C   UNL d   1      44.893 -14.806  44.784  0.00  0.00     0.037 A 
ENDBRANCH   2  15
TORSDOF 3
ENDMDL
