MODEL 1
REMARK VINA RESULT:      87.6      0.000      0.000
REMARK  9 active torsions:
REMARK  status: ('A' for Active; 'I' for Inactive)
REMARK    1  A    between atoms: C_12  and  C_3 
REMARK    2  A    between atoms: S_14  and  C_7 
REMARK       I    between atoms: C_9  and  N_18 
REMARK    3  A    between atoms: C_13  and  C_9 
REMARK    4  A    between atoms: C_11  and  C_21 
REMARK       I    between atoms: N_15  and  C_11 
REMARK    5  A    between atoms: C_22  and  C_12 
REMARK    6  A    between atoms: C_21  and  S_14 
REMARK    7  A    between atoms: C_23  and  N_15 
REMARK    8  A    between atoms: N_18  and  C_22 
REMARK    9  A    between atoms: C_25  and  C_23 
ROOT
ATOM      1  N   UNL d   1     -48.941  28.330  36.460  0.00  0.00    -0.191 N 
ATOM      2  C   UNL d   1     -48.576  29.010  36.151  0.00  0.00     0.187 A 
ATOM      3  C   UNL d   1     -49.139  28.479  37.250  0.00  0.00     0.188 A 
ATOM      4  N   UNL d   1     -49.046  27.664  35.981  0.00  0.00    -0.156 NA
ATOM      5  N   UNL d   1     -48.551  29.573  36.756  0.00  0.00    -0.127 NA
ATOM      6  N   UNL d   1     -48.896  29.252  37.431  0.00  0.00    -0.127 NA
ATOM      7  C   UNL d   1     -48.785  27.680  35.193  0.00  0.00     0.131 A 
ATOM      8  C   UNL d   1     -48.321  29.015  35.372  0.00  0.00     0.043 A 
ATOM      9  C   UNL d   1     -48.423  28.353  34.889  0.00  0.00     0.031 A 
ENDROOT
BRANCH   7  10
ATOM     10  S   UNL d   1     -48.893  27.007  34.715  0.00  0.00    -0.061 SA
BRANCH  10  11
ATOM     11  C   UNL d   1     -49.499  27.000  34.144  0.00  0.00     0.099 C 
BRANCH  11  12
ATOM     12  C   UNL d   1     -49.658  26.300  33.727  0.00  0.00     0.286 C 
ATOM     13  N   UNL d   1     -50.404  25.987  33.730  0.00  0.00    -0.206 NA
ATOM     14  O   UNL d   1     -49.059  25.918  33.306  0.00  0.00    -0.265 OA
BRANCH  13  15
ATOM     15  C   UNL d   1     -50.567  25.287  33.315  0.00  0.00     0.102 C 
BRANCH  15  16
ATOM     16  C   UNL d   1     -51.316  24.976  33.336  0.00  0.00     0.019 A 
ATOM     17  C   UNL d   1     -51.985  25.459  33.323  0.00  0.00     0.004 A 
ATOM     18  C   UNL d   1     -52.740  25.142  33.344  0.00  0.00     0.030 A 
ATOM     19  C   UNL d   1     -52.837  24.324  33.379  0.00  0.00     0.140 A 
ATOM     20  C   UNL d   1     -52.169  23.845  33.391  0.00  0.00     0.030 A 
ATOM     21  F   UNL d   1     -53.590  23.994  33.400  0.00  0.00    -0.204 F 
ATOM     22  C   UNL d   1     -51.425  24.159  33.370  0.00  0.00     0.004 A 
ENDBRANCH  15  16
ENDBRANCH  13  15
ENDBRANCH  11  12
ENDBRANCH  10  11
ENDBRANCH   7  10
BRANCH   3  23
ATOM     23  C   UNL d   1     -49.512  27.947  37.761  0.00  0.00     0.061 C 
BRANCH  23  24
ATOM     24  C   UNL d   1     -50.340  27.926  37.812  0.00  0.00     0.105 C 
BRANCH  24  25
ATOM     25  N   UNL d   1     -50.725  27.200  37.885  0.00  0.00    -0.206 NA
ATOM     26  C   UNL d   1     -51.340  27.113  38.441  0.00  0.00     0.279 C 
ATOM     27  O   UNL d   1     -51.557  27.761  38.915  0.00  0.00    -0.265 OA
BRANCH  26  28
ATOM     28  C   UNL d   1     -51.725  26.390  38.515  0.00  0.00     0.058 A 
ATOM     29  C   UNL d   1     -52.348  26.205  38.006  0.00  0.00     0.005 A 
ATOM     30  C   UNL d   1     -52.738  25.483  38.076  0.00  0.00     0.000 A 
ATOM     31  C   UNL d   1     -52.501  24.945  38.659  0.00  0.00     0.000 A 
ATOM     32  C   UNL d   1     -51.878  25.130  39.169  0.00  0.00     0.000 A 
ATOM     33  C   UNL d   1     -52.888  24.225  38.731  0.00  0.00     0.000 C 
ATOM     34  C   UNL d   1     -51.490  25.858  39.093  0.00  0.00     0.005 A 
ENDBRANCH  26  28
ENDBRANCH  24  25
ENDBRANCH  23  24
ENDBRANCH   3  23
TORSDOF 9
ENDMDL
MODEL 2
REMARK VINA RESULT:      88.2      3.223      5.812
REMARK  9 active torsions:
REMARK  status: ('A' for Active; 'I' for Inactive)
REMARK    1  A    between atoms: C_12  and  C_3 
REMARK    2  A    between atoms: S_14  and  C_7 
REMARK       I    between atoms: C_9  and  N_18 
REMARK    3  A    between atoms: C_13  and  C_9 
REMARK    4  A    between atoms: C_11  and  C_21 
REMARK       I    between atoms: N_15  and  C_11 
REMARK    5  A    between atoms: C_22  and  C_12 
REMARK    6  A    between atoms: C_21  and  S_14 
REMARK    7  A    between atoms: C_23  and  N_15 
REMARK    8  A    between atoms: N_18  and  C_22 
REMARK    9  A    between atoms: C_25  and  C_23 
ROOT
ATOM      1  N   UNL d   1     -48.562  28.684  35.960  0.00  0.00    -0.191 N 
ATOM      2  C   UNL d   1     -48.713  28.675  36.777  0.00  0.00     0.187 A 
ATOM      3  C   UNL d   1     -49.137  28.222  35.585  0.00  0.00     0.188 A 
ATOM      4  N   UNL d   1     -47.919  29.112  35.665  0.00  0.00    -0.156 NA
ATOM      5  N   UNL d   1     -49.383  28.206  36.899  0.00  0.00    -0.127 NA
ATOM      6  N   UNL d   1     -49.647  27.926  36.170  0.00  0.00    -0.127 NA
ATOM      7  C   UNL d   1     -47.429  29.531  36.188  0.00  0.00     0.131 A 
ATOM      8  C   UNL d   1     -48.223  29.091  37.285  0.00  0.00     0.043 A 
ATOM      9  C   UNL d   1     -47.580  29.521  36.996  0.00  0.00     0.031 A 
ENDROOT
BRANCH   7  10
ATOM     10  S   UNL d   1     -46.783  29.960  35.885  0.00  0.00    -0.061 SA
BRANCH  10  11
ATOM     11  C   UNL d   1     -46.819  30.792  35.855  0.00  0.00     0.099 C 
BRANCH  11  12
ATOM     12  C   UNL d   1     -46.877  31.171  35.119  0.00  0.00     0.286 C 
ATOM     13  N   UNL d   1     -46.840  31.978  35.074  0.00  0.00    -0.206 NA
ATOM     14  O   UNL d   1     -46.973  30.730  34.428  0.00  0.00    -0.265 OA
BRANCH  13  15
ATOM     15  C   UNL d   1     -46.898  32.361  34.340  0.00  0.00     0.102 C 
BRANCH  15  16
ATOM     16  C   UNL d   1     -47.604  32.689  34.115  0.00  0.00     0.019 A 
ATOM     17  C   UNL d   1     -47.637  33.345  33.615  0.00  0.00     0.004 A 
ATOM     18  C   UNL d   1     -48.352  33.674  33.389  0.00  0.00     0.030 A 
ATOM     19  C   UNL d   1     -49.056  33.346  33.667  0.00  0.00     0.140 A 
ATOM     20  C   UNL d   1     -49.021  32.693  34.165  0.00  0.00     0.030 A 
ATOM     21  F   UNL d   1     -49.780  33.668  33.447  0.00  0.00    -0.204 F 
ATOM     22  C   UNL d   1     -48.315  32.369  34.386  0.00  0.00     0.004 A 
ENDBRANCH  15  16
ENDBRANCH  13  15
ENDBRANCH  11  12
ENDBRANCH  10  11
ENDBRANCH   7  10
BRANCH   3  23
ATOM     23  C   UNL d   1     -49.189  28.085  34.771  0.00  0.00     0.061 C 
BRANCH  23  24
ATOM     24  C   UNL d   1     -49.192  27.310  34.477  0.00  0.00     0.105 C 
BRANCH  24  25
ATOM     25  N   UNL d   1     -49.910  26.914  34.378  0.00  0.00    -0.206 NA
ATOM     26  C   UNL d   1     -49.966  26.292  33.828  0.00  0.00     0.279 C 
ATOM     27  O   UNL d   1     -49.296  26.077  33.385  0.00  0.00    -0.265 OA
BRANCH  26  28
ATOM     28  C   UNL d   1     -50.680  25.896  33.728  0.00  0.00     0.058 A 
ATOM     29  C   UNL d   1     -50.742  25.104  33.953  0.00  0.00     0.005 A 
ATOM     30  C   UNL d   1     -51.455  24.702  33.855  0.00  0.00     0.000 A 
ATOM     31  C   UNL d   1     -52.106  25.098  33.531  0.00  0.00     0.000 A 
ATOM     32  C   UNL d   1     -52.043  25.890  33.306  0.00  0.00     0.000 A 
ATOM     33  C   UNL d   1     -52.817  24.700  33.432  0.00  0.00     0.000 C 
ATOM     34  C   UNL d   1     -51.324  26.288  33.407  0.00  0.00     0.005 A 
ENDBRANCH  26  28
ENDBRANCH  24  25
ENDBRANCH  23  24
ENDBRANCH   3  23
TORSDOF 9
ENDMDL
MODEL 3
REMARK VINA RESULT:      89.3      2.798      4.950
REMARK  9 active torsions:
REMARK  status: ('A' for Active; 'I' for Inactive)
REMARK    1  A    between atoms: C_12  and  C_3 
REMARK    2  A    between atoms: S_14  and  C_7 
REMARK       I    between atoms: C_9  and  N_18 
REMARK    3  A    between atoms: C_13  and  C_9 
REMARK    4  A    between atoms: C_11  and  C_21 
REMARK       I    between atoms: N_15  and  C_11 
REMARK    5  A    between atoms: C_22  and  C_12 
REMARK    6  A    between atoms: C_21  and  S_14 
REMARK    7  A    between atoms: C_23  and  N_15 
REMARK    8  A    between atoms: N_18  and  C_22 
REMARK    9  A    between atoms: C_25  and  C_23 
ROOT
ATOM      1  N   UNL d   1     -49.979  27.236  34.932  0.00  0.00    -0.191 N 
ATOM      2  C   UNL d   1     -50.185  27.137  34.132  0.00  0.00     0.187 A 
ATOM      3  C   UNL d   1     -50.523  26.815  35.392  0.00  0.00     0.188 A 
ATOM      4  N   UNL d   1     -49.323  27.696  35.134  0.00  0.00    -0.156 NA
ATOM      5  N   UNL d   1     -50.856  26.654  34.108  0.00  0.00    -0.127 NA
ATOM      6  N   UNL d   1     -51.066  26.454  34.879  0.00  0.00    -0.127 NA
ATOM      7  C   UNL d   1     -48.874  28.058  34.537  0.00  0.00     0.131 A 
ATOM      8  C   UNL d   1     -49.735  27.498  33.550  0.00  0.00     0.043 A 
ATOM      9  C   UNL d   1     -49.080  27.959  33.747  0.00  0.00     0.031 A 
ENDROOT
BRANCH   7  10
ATOM     10  S   UNL d   1     -48.215  28.520  34.746  0.00  0.00    -0.061 SA
BRANCH  10  11
ATOM     11  C   UNL d   1     -48.265  29.039  35.396  0.00  0.00     0.099 C 
BRANCH  11  12
ATOM     12  C   UNL d   1     -47.733  29.674  35.453  0.00  0.00     0.286 C 
ATOM     13  N   UNL d   1     -47.969  30.421  35.252  0.00  0.00    -0.206 NA
ATOM     14  O   UNL d   1     -46.959  29.549  35.714  0.00  0.00    -0.265 OA
BRANCH  13  15
ATOM     15  C   UNL d   1     -47.440  31.058  35.308  0.00  0.00     0.102 C 
BRANCH  15  16
ATOM     16  C   UNL d   1     -47.527  31.693  34.812  0.00  0.00     0.019 A 
ATOM     17  C   UNL d   1     -46.922  31.930  34.302  0.00  0.00     0.004 A 
ATOM     18  C   UNL d   1     -47.012  32.572  33.802  0.00  0.00     0.030 A 
ATOM     19  C   UNL d   1     -47.721  32.993  33.805  0.00  0.00     0.140 A 
ATOM     20  C   UNL d   1     -48.322  32.756  34.313  0.00  0.00     0.030 A 
ATOM     21  F   UNL d   1     -47.823  33.640  33.307  0.00  0.00    -0.204 F 
ATOM     22  C   UNL d   1     -48.232  32.123  34.805  0.00  0.00     0.004 A 
ENDBRANCH  15  16
ENDBRANCH  13  15
ENDBRANCH  11  12
ENDBRANCH  10  11
ENDBRANCH   7  10
BRANCH   3  23
ATOM     23  C   UNL d   1     -50.518  26.766  36.218  0.00  0.00     0.061 C 
BRANCH  23  24
ATOM     24  C   UNL d   1     -51.210  26.914  36.650  0.00  0.00     0.105 C 
BRANCH  24  25
ATOM     25  N   UNL d   1     -51.572  26.298  37.063  0.00  0.00    -0.206 NA
ATOM     26  C   UNL d   1     -51.773  26.399  37.864  0.00  0.00     0.279 C 
ATOM     27  O   UNL d   1     -51.605  27.123  38.239  0.00  0.00    -0.265 OA
BRANCH  26  28
ATOM     28  C   UNL d   1     -52.134  25.786  38.277  0.00  0.00     0.058 A 
ATOM     29  C   UNL d   1     -52.945  25.660  38.193  0.00  0.00     0.005 A 
ATOM     30  C   UNL d   1     -53.312  25.047  38.604  0.00  0.00     0.000 A 
ATOM     31  C   UNL d   1     -52.863  24.561  39.101  0.00  0.00     0.000 A 
ATOM     32  C   UNL d   1     -52.051  24.688  39.186  0.00  0.00     0.000 A 
ATOM     33  C   UNL d   1     -53.226  23.951  39.512  0.00  0.00     0.000 C 
ATOM     34  C   UNL d   1     -51.688  25.306  38.769  0.00  0.00     0.005 A 
ENDBRANCH  26  28
ENDBRANCH  24  25
ENDBRANCH  23  24
ENDBRANCH   3  23
TORSDOF 9
ENDMDL
