MODEL 1
REMARK VINA RESULT:      -0.6      0.000      0.000
REMARK  7 active torsions:
REMARK  status: ('A' for Active; 'I' for Inactive)
REMARK    1  A    between atoms: C_6  and  N_2 
REMARK    2  A    between atoms: C_7  and  C_3 
REMARK    3  A    between atoms: C_12  and  C_6 
REMARK    4  A    between atoms: C_21  and  C_7 
REMARK    5  A    between atoms: C_9  and  O_11 
REMARK    6  A    between atoms: O_11  and  C_12 
REMARK    7  A    between atoms: C_19  and  C_21 
ROOT
ATOM      1  N   UNL d   1     -41.961-121.541 -53.682  0.00  0.00    -0.227 NA
ATOM      2  N   UNL d   1     -41.443-122.586 -52.981  0.00  0.00    -0.287 N 
ATOM      3  C   UNL d   1     -41.667-121.782 -52.936  0.00  0.00     0.148 A 
ATOM      4  C   UNL d   1     -41.600-122.843 -53.762  0.00  0.00     0.083 A 
ATOM      5  C   UNL d   1     -41.915-122.206 -54.186  0.00  0.00     0.099 A 
ATOM      6  C   UNL d   1     -41.497-123.573 -54.139  0.00  0.00     0.019 A 
ATOM      7  C   UNL d   1     -42.125-122.295 -54.978  0.00  0.00     0.021 A 
ATOM      8  C   UNL d   1     -41.707-123.662 -54.932  0.00  0.00     0.002 A 
ATOM      9  C   UNL d   1     -42.021-123.023 -55.351  0.00  0.00     0.002 A 
ENDROOT
BRANCH   2  10
ATOM     10  C   UNL d   1     -41.127-123.044 -52.377  0.00  0.00     0.108 C 
BRANCH  10  11
ATOM     11  C   UNL d   1     -41.566-123.193 -51.688  0.00  0.00     0.142 C 
BRANCH  11  12
ATOM     12  O   UNL d   1     -41.184-123.456 -51.012  0.00  0.00    -0.304 OA
BRANCH  12  13
ATOM     13  C   UNL d   1     -41.590-123.486 -50.297  0.00  0.00     0.100 A 
ATOM     14  C   UNL d   1     -41.227-123.219 -49.611  0.00  0.00     0.025 A 
ATOM     15  C   UNL d   1     -41.633-123.249 -48.892  0.00  0.00     0.002 A 
ATOM     16  C   UNL d   1     -41.269-122.980 -48.202  0.00  0.00     0.000 C 
ATOM     17  C   UNL d   1     -42.405-123.548 -48.863  0.00  0.00     0.000 A 
ATOM     18  C   UNL d   1     -42.767-123.817 -49.561  0.00  0.00     0.002 A 
ATOM     19  C   UNL d   1     -42.361-123.786 -50.276  0.00  0.00     0.025 A 
ENDBRANCH  12  13
ENDBRANCH  11  12
ENDBRANCH  10  11
ENDBRANCH   2  10
BRANCH   3  20
ATOM     20  C   UNL d   1     -41.771-121.054 -52.563  0.00  0.00     0.041 C 
BRANCH  20  21
ATOM     21  C   UNL d   1     -41.123-120.664 -52.235  0.00  0.00     0.049 C 
BRANCH  21  22
ATOM     22  C   UNL d   1     -41.229-119.945 -51.847  0.00  0.00     0.234 C 
ATOM     23  O   UNL d   1     -41.147-119.901 -51.029  0.00  0.00    -0.283 OA
ENDBRANCH  21  22
ENDBRANCH  20  21
ENDBRANCH   3  20
TORSDOF 7
ENDMDL
MODEL 2
REMARK VINA RESULT:       1.3      1.711      4.709
REMARK  7 active torsions:
REMARK  status: ('A' for Active; 'I' for Inactive)
REMARK    1  A    between atoms: C_6  and  N_2 
REMARK    2  A    between atoms: C_7  and  C_3 
REMARK    3  A    between atoms: C_12  and  C_6 
REMARK    4  A    between atoms: C_21  and  C_7 
REMARK    5  A    between atoms: C_9  and  O_11 
REMARK    6  A    between atoms: O_11  and  C_12 
REMARK    7  A    between atoms: C_19  and  C_21 
ROOT
ATOM      1  N   UNL d   1     -42.775-122.518 -48.996  0.00  0.00    -0.227 NA
ATOM      2  N   UNL d   1     -41.841-123.235 -49.677  0.00  0.00    -0.287 N 
ATOM      3  C   UNL d   1     -42.506-122.736 -49.758  0.00  0.00     0.148 A 
ATOM      4  C   UNL d   1     -41.698-123.325 -48.856  0.00  0.00     0.083 A 
ATOM      5  C   UNL d   1     -42.267-122.889 -48.445  0.00  0.00     0.099 A 
ATOM      6  C   UNL d   1     -41.124-123.748 -48.435  0.00  0.00     0.019 A 
ATOM      7  C   UNL d   1     -42.266-122.872 -47.621  0.00  0.00     0.021 A 
ATOM      8  C   UNL d   1     -41.123-123.733 -47.610  0.00  0.00     0.002 A 
ATOM      9  C   UNL d   1     -41.694-123.294 -47.203  0.00  0.00     0.002 A 
ENDROOT
BRANCH   2  10
ATOM     10  C   UNL d   1     -41.404-123.577 -50.282  0.00  0.00     0.108 C 
BRANCH  10  11
ATOM     11  C   UNL d   1     -41.637-123.487 -51.074  0.00  0.00     0.142 C 
BRANCH  11  12
ATOM     12  O   UNL d   1     -41.139-123.731 -51.676  0.00  0.00    -0.304 OA
BRANCH  12  13
ATOM     13  C   UNL d   1     -41.145-123.340 -52.400  0.00  0.00     0.100 A 
ATOM     14  C   UNL d   1     -41.174-123.773 -53.096  0.00  0.00     0.025 A 
ATOM     15  C   UNL d   1     -41.181-123.383 -53.824  0.00  0.00     0.002 A 
ATOM     16  C   UNL d   1     -41.210-123.817 -54.525  0.00  0.00     0.000 C 
ATOM     17  C   UNL d   1     -41.159-122.554 -53.851  0.00  0.00     0.000 A 
ATOM     18  C   UNL d   1     -41.129-122.122 -53.142  0.00  0.00     0.002 A 
ATOM     19  C   UNL d   1     -41.123-122.514 -52.418  0.00  0.00     0.025 A 
ENDBRANCH  12  13
ENDBRANCH  11  12
ENDBRANCH  10  11
ENDBRANCH   2  10
BRANCH   3  20
ATOM     20  C   UNL d   1     -43.078-122.315 -50.176  0.00  0.00     0.041 C 
BRANCH  20  21
ATOM     21  C   UNL d   1     -43.875-122.409 -49.990  0.00  0.00     0.049 C 
BRANCH  21  22
ATOM     22  C   UNL d   1     -44.453-122.233 -50.552  0.00  0.00     0.234 C 
ATOM     23  O   UNL d   1     -44.544-121.462 -50.824  0.00  0.00    -0.283 OA
ENDBRANCH  21  22
ENDBRANCH  20  21
ENDBRANCH   3  20
TORSDOF 7
ENDMDL
