MODEL 1
REMARK VINA RESULT:      39.6      0.000      0.000
REMARK  9 active torsions:
REMARK  status: ('A' for Active; 'I' for Inactive)
REMARK    1  A    between atoms: N_6  and  C_1 
REMARK    2  A    between atoms: N_2  and  C_10 
REMARK    3  A    between atoms: C_3  and  N_6 
REMARK    4  A    between atoms: N_4  and  C_3 
REMARK       I    between atoms: C_7  and  N_4 
REMARK    5  A    between atoms: C_12  and  C_7 
REMARK    6  A    between atoms: C_11  and  C_8 
REMARK    7  A    between atoms: C_15  and  C_11 
REMARK    8  A    between atoms: O_21  and  C_15 
REMARK    9  A    between atoms: C_25  and  O_21 
ROOT
ATOM      1  C   UNL d   1     -55.095-102.032 -41.324  0.00  0.00     0.277 C 
ATOM      2  S   UNL d   1     -55.274-102.709 -41.772  0.00  0.00    -0.023 SA
ENDROOT
BRANCH   1   3
ATOM      3  N   UNL d   1     -55.000-102.098 -40.508  0.00  0.00    -0.347 NA
BRANCH   3   4
ATOM      4  C   UNL d   1     -54.897-102.170 -39.692  0.00  0.00     0.248 A 
ATOM      5  N   UNL d   1     -54.880-101.546 -39.136  0.00  0.00    -0.210 NA
ATOM      6  C   UNL d   1     -54.765-101.877 -38.387  0.00  0.00     0.096 A 
ATOM      7  C   UNL d   1     -54.712-102.695 -38.476  0.00  0.00     0.059 A 
ATOM      8  S   UNL d   1     -54.792-102.877 -39.276  0.00  0.00    -0.033 SA
BRANCH   6   9
ATOM      9  C   UNL d   1     -54.713-101.457 -37.677  0.00  0.00     0.088 C 
BRANCH   9  10
ATOM     10  C   UNL d   1     -55.196-101.659 -37.041  0.00  0.00     0.302 C 
ATOM     11  O   UNL d   1     -56.014-101.700 -37.147  0.00  0.00    -0.259 OA
BRANCH  10  12
ATOM     12  O   UNL d   1     -54.863-101.819 -36.302  0.00  0.00    -0.271 OA
BRANCH  12  13
ATOM     13  C   UNL d   1     -54.957-102.561 -35.960  0.00  0.00     0.126 C 
ATOM     14  C   UNL d   1     -55.654-102.747 -35.558  0.00  0.00     0.029 C 
ENDBRANCH  12  13
ENDBRANCH  10  12
ENDBRANCH   9  10
ENDBRANCH   6   9
ENDBRANCH   3   4
ENDBRANCH   1   3
BRANCH   1  15
ATOM     15  N   UNL d   1     -55.015-101.302 -41.701  0.00  0.00    -0.168 NA
ATOM     16  C   UNL d   1     -54.971-101.259 -42.525  0.00  0.00     0.282 C 
ATOM     17  O   UNL d   1     -55.007-101.950 -42.977  0.00  0.00    -0.265 OA
BRANCH  16  18
ATOM     18  C   UNL d   1     -54.891-100.529 -42.902  0.00  0.00     0.060 A 
ATOM     19  C   UNL d   1     -54.906-100.483 -43.729  0.00  0.00     0.028 A 
ATOM     20  C   UNL d   1     -54.826 -99.755 -44.103  0.00  0.00     0.127 A 
ATOM     21  C   UNL d   1     -54.731 -99.067 -43.661  0.00  0.00     0.024 A 
ATOM     22  C   UNL d   1     -54.717 -99.112 -42.836  0.00  0.00     0.002 A 
ATOM     23  C   UNL d   1     -54.797 -99.846 -42.452  0.00  0.00     0.005 A 
BRANCH  20  24
ATOM     24  N   UNL d   1     -54.842 -99.723 -44.930  0.00  0.00    -0.114 N 
ATOM     25  O   UNL d   1     -54.773 -99.005 -45.326  0.00  0.00    -0.532 OA
ATOM     26  O   UNL d   1     -54.928-100.422 -45.359  0.00  0.00    -0.532 OA
ENDBRANCH  20  24
ENDBRANCH  16  18
ENDBRANCH   1  15
TORSDOF 9
ENDMDL
