MODEL 1
REMARK VINA RESULT:      60.7      0.000      0.000
REMARK  7 active torsions:
REMARK  status: ('A' for Active; 'I' for Inactive)
REMARK    1  A    between atoms: C_12  and  C_3 
REMARK    2  A    between atoms: N_9  and  C_5 
REMARK    3  A    between atoms: C_17  and  N_9 
REMARK    4  A    between atoms: N_14  and  C_12 
REMARK    5  A    between atoms: C_18  and  N_14 
REMARK    6  A    between atoms: C_16  and  C_18 
REMARK    7  A    between atoms: C_19  and  C_17 
ROOT
ATOM      1  N   UNL d   1      14.836  15.840  -2.177  0.00  0.00    -0.258 N 
ATOM      2  C   UNL d   1      14.555  15.373  -2.807  0.00  0.00     0.270 A 
ATOM      3  C   UNL d   1      14.458  15.694  -3.560  0.00  0.00     0.111 A 
ATOM      4  N   UNL d   1      14.926  16.969  -3.060  0.00  0.00    -0.209 NA
ATOM      5  C   UNL d   1      14.644  16.494  -3.687  0.00  0.00     0.170 A 
ATOM      6  C   UNL d   1      15.019  16.626  -2.302  0.00  0.00     0.152 A 
ATOM      7  C   UNL d   1      14.926  15.504  -1.439  0.00  0.00     0.084 A 
ATOM      8  C   UNL d   1      15.297  17.100  -1.693  0.00  0.00     0.038 A 
ATOM      9  C   UNL d   1      15.200  15.956  -0.821  0.00  0.00     0.018 A 
ATOM     10  C   UNL d   1      15.386  16.756  -0.948  0.00  0.00     0.005 A 
ATOM     11  O   UNL d   1      14.372  14.586  -2.682  0.00  0.00    -0.266 OA
ATOM     12  C   UNL d   1      15.292  15.609  -0.062  0.00  0.00     0.002 C 
ENDROOT
BRANCH   3  13
ATOM     13  C   UNL d   1      14.180  15.215  -4.165  0.00  0.00     0.107 C 
BRANCH  13  14
ATOM     14  N   UNL d   1      13.617  14.635  -4.016  0.00  0.00    -0.242 NA
BRANCH  14  15
ATOM     15  C   UNL d   1      13.299  14.198  -4.639  0.00  0.00     0.101 C 
BRANCH  15  16
ATOM     16  C   UNL d   1      13.157  13.396  -4.563  0.00  0.00     0.038 A 
ATOM     17  C   UNL d   1      13.260  12.891  -5.216  0.00  0.00     0.101 A 
ATOM     18  N   UNL d   1      13.119  12.090  -5.140  0.00  0.00    -0.242 NA
ATOM     19  C   UNL d   1      12.871  11.779  -4.408  0.00  0.00     0.099 A 
ATOM     20  C   UNL d   1      12.768  12.264  -3.766  0.00  0.00     0.021 A 
ATOM     21  C   UNL d   1      12.913  13.080  -3.844  0.00  0.00     0.005 A 
ENDBRANCH  15  16
ENDBRANCH  14  15
ENDBRANCH  13  14
ENDBRANCH   3  13
BRANCH   5  22
ATOM     22  N   UNL d   1      14.561  16.857  -4.426  0.00  0.00    -0.225 NA
BRANCH  22  23
ATOM     23  C   UNL d   1      14.871  17.614  -4.575  0.00  0.00     0.101 C 
BRANCH  23  24
ATOM     24  C   UNL d   1      14.551  18.080  -5.175  0.00  0.00     0.019 A 
ATOM     25  C   UNL d   1      14.019  17.768  -5.699  0.00  0.00     0.002 A 
ATOM     26  C   UNL d   1      13.703  18.250  -6.300  0.00  0.00     0.000 A 
ATOM     27  C   UNL d   1      13.918  19.039  -6.374  0.00  0.00     0.000 A 
ATOM     28  C   UNL d   1      14.465  19.355  -5.833  0.00  0.00     0.000 A 
ATOM     29  C   UNL d   1      14.786  18.881  -5.229  0.00  0.00     0.002 A 
ENDBRANCH  23  24
ENDBRANCH  22  23
ENDBRANCH   5  22
TORSDOF 7
ENDMDL
MODEL 2
REMARK VINA RESULT:      63.0      1.707      4.385
REMARK  7 active torsions:
REMARK  status: ('A' for Active; 'I' for Inactive)
REMARK    1  A    between atoms: C_12  and  C_3 
REMARK    2  A    between atoms: N_9  and  C_5 
REMARK    3  A    between atoms: C_17  and  N_9 
REMARK    4  A    between atoms: N_14  and  C_12 
REMARK    5  A    between atoms: C_18  and  N_14 
REMARK    6  A    between atoms: C_16  and  C_18 
REMARK    7  A    between atoms: C_19  and  C_17 
ROOT
ATOM      1  N   UNL d   1      14.790  13.359  -1.522  0.00  0.00    -0.258 N 
ATOM      2  C   UNL d   1      14.700  14.155  -1.749  0.00  0.00     0.270 A 
ATOM      3  C   UNL d   1      14.208  14.362  -2.377  0.00  0.00     0.111 A 
ATOM      4  N   UNL d   1      13.883  12.963  -2.562  0.00  0.00    -0.209 NA
ATOM      5  C   UNL d   1      13.798  13.765  -2.785  0.00  0.00     0.170 A 
ATOM      6  C   UNL d   1      14.387  12.772  -1.922  0.00  0.00     0.152 A 
ATOM      7  C   UNL d   1      15.282  13.174  -0.897  0.00  0.00     0.084 A 
ATOM      8  C   UNL d   1      14.464  11.983  -1.711  0.00  0.00     0.038 A 
ATOM      9  C   UNL d   1      15.373  12.398  -0.671  0.00  0.00     0.018 A 
ATOM     10  C   UNL d   1      14.963  11.801  -1.079  0.00  0.00     0.005 A 
ATOM     11  O   UNL d   1      15.104  14.742  -1.348  0.00  0.00    -0.266 OA
ATOM     12  C   UNL d   1      15.880  12.210  -0.029  0.00  0.00     0.002 C 
ENDROOT
BRANCH   3  13
ATOM     13  C   UNL d   1      14.135  15.152  -2.584  0.00  0.00     0.107 C 
BRANCH  13  14
ATOM     14  N   UNL d   1      14.693  15.512  -3.068  0.00  0.00    -0.242 NA
BRANCH  14  15
ATOM     15  C   UNL d   1      14.582  16.290  -3.318  0.00  0.00     0.101 C 
BRANCH  15  16
ATOM     16  C   UNL d   1      14.855  16.541  -4.047  0.00  0.00     0.038 A 
ATOM     17  C   UNL d   1      15.518  16.175  -4.392  0.00  0.00     0.101 A 
ATOM     18  N   UNL d   1      15.791  16.426  -5.120  0.00  0.00    -0.242 NA
ATOM     19  C   UNL d   1      15.404  17.048  -5.517  0.00  0.00     0.099 A 
ATOM     20  C   UNL d   1      14.757  17.410  -5.189  0.00  0.00     0.021 A 
ATOM     21  C   UNL d   1      14.480  17.154  -4.447  0.00  0.00     0.005 A 
ENDBRANCH  15  16
ENDBRANCH  14  15
ENDBRANCH  13  14
ENDBRANCH   3  13
BRANCH   5  22
ATOM     22  N   UNL d   1      13.294  13.927  -3.420  0.00  0.00    -0.225 NA
BRANCH  22  23
ATOM     23  C   UNL d   1      12.780  13.348  -3.725  0.00  0.00     0.101 C 
BRANCH  23  24
ATOM     24  C   UNL d   1      12.966  12.962  -4.429  0.00  0.00     0.019 A 
ATOM     25  C   UNL d   1      13.113  12.166  -4.436  0.00  0.00     0.002 A 
ATOM     26  C   UNL d   1      13.300  11.788  -5.153  0.00  0.00     0.000 A 
ATOM     27  C   UNL d   1      13.339  12.205  -5.860  0.00  0.00     0.000 A 
ATOM     28  C   UNL d   1      13.186  13.023  -5.848  0.00  0.00     0.000 A 
ATOM     29  C   UNL d   1      12.999  13.409  -5.135  0.00  0.00     0.002 A 
ENDBRANCH  23  24
ENDBRANCH  22  23
ENDBRANCH   5  22
TORSDOF 7
ENDMDL
