MODEL 1
REMARK VINA RESULT:      -9.3      0.000      0.000
REMARK  3 active torsions:
REMARK  status: ('A' for Active; 'I' for Inactive)
REMARK    1  A    between atoms: C_6  and  N_1 
REMARK       I    between atoms: C_2  and  N_4 
REMARK    2  A    between atoms: C_5  and  C_2 
REMARK    3  A    between atoms: N_4  and  C_12 
ROOT
ATOM      1  C   UNL d   1      50.143  34.304  52.271  0.00  0.00     0.067 A 
ATOM      2  C   UNL d   1      50.128  33.890  52.987  0.00  0.00     0.019 A 
ATOM      3  C   UNL d   1      50.864  34.441  51.899  0.00  0.00     0.019 A 
ATOM      4  C   UNL d   1      51.549  33.752  52.956  0.00  0.00     0.085 A 
ATOM      5  C   UNL d   1      51.564  34.166  52.240  0.00  0.00     0.021 A 
ATOM      6  C   UNL d   1      50.820  33.618  53.325  0.00  0.00     0.021 A 
ENDROOT
BRANCH   4   7
ATOM      7  N   UNL d   1      52.241  33.481  53.293  0.00  0.00    -0.208 NA
ATOM      8  C   UNL d   1      52.722  33.995  53.719  0.00  0.00     0.279 C 
ATOM      9  O   UNL d   1      52.504  34.785  53.804  0.00  0.00    -0.265 OA
BRANCH   8  10
ATOM     10  C   UNL d   1      53.415  33.723  54.056  0.00  0.00     0.060 A 
ATOM     11  C   UNL d   1      53.944  33.271  53.604  0.00  0.00     0.034 A 
ATOM     12  C   UNL d   1      54.655  32.990  53.946  0.00  0.00     0.140 A 
ATOM     13  F   UNL d   1      55.182  32.541  53.501  0.00  0.00    -0.204 F 
ATOM     14  C   UNL d   1      54.821  33.172  54.741  0.00  0.00     0.030 A 
ATOM     15  C   UNL d   1      54.285  33.625  55.187  0.00  0.00     0.003 A 
ATOM     16  C   UNL d   1      53.587  33.898  54.843  0.00  0.00     0.005 A 
ENDBRANCH   8  10
ENDBRANCH   4   7
BRANCH   1  17
ATOM     17  N   UNL d   1      49.451  34.576  51.934  0.00  0.00    -0.273 N 
ATOM     18  C   UNL d   1      48.912  35.102  52.282  0.00  0.00     0.265 A 
ATOM     19  O   UNL d   1      48.976  35.448  53.034  0.00  0.00    -0.267 OA
ATOM     20  C   UNL d   1      48.291  35.228  51.752  0.00  0.00     0.063 A 
ATOM     21  C   UNL d   1      48.445  34.781  51.076  0.00  0.00     0.024 A 
ATOM     22  C   UNL d   1      49.154  34.382  51.186  0.00  0.00     0.083 A 
ENDBRANCH   1  17
TORSDOF 3
ENDMDL
MODEL 2
REMARK VINA RESULT:      -9.2      1.996      5.131
REMARK  3 active torsions:
REMARK  status: ('A' for Active; 'I' for Inactive)
REMARK    1  A    between atoms: C_6  and  N_1 
REMARK       I    between atoms: C_2  and  N_4 
REMARK    2  A    between atoms: C_5  and  C_2 
REMARK    3  A    between atoms: N_4  and  C_12 
ROOT
ATOM      1  C   UNL d   1      52.765  33.749  53.649  0.00  0.00     0.067 A 
ATOM      2  C   UNL d   1      52.144  33.202  53.613  0.00  0.00     0.019 A 
ATOM      3  C   UNL d   1      52.722  34.437  53.199  0.00  0.00     0.019 A 
ATOM      4  C   UNL d   1      51.447  34.030  52.681  0.00  0.00     0.085 A 
ATOM      5  C   UNL d   1      52.067  34.577  52.718  0.00  0.00     0.021 A 
ATOM      6  C   UNL d   1      51.495  33.340  53.136  0.00  0.00     0.021 A 
ENDROOT
BRANCH   4   7
ATOM      7  N   UNL d   1      50.799  34.169  52.205  0.00  0.00    -0.208 NA
ATOM      8  C   UNL d   1      50.127  34.529  52.516  0.00  0.00     0.279 C 
ATOM      9  O   UNL d   1      50.111  34.749  53.310  0.00  0.00    -0.265 OA
BRANCH   8  10
ATOM     10  C   UNL d   1      49.478  34.667  52.039  0.00  0.00     0.060 A 
ATOM     11  C   UNL d   1      48.840  35.110  52.331  0.00  0.00     0.034 A 
ATOM     12  C   UNL d   1      48.172  35.255  51.845  0.00  0.00     0.140 A 
ATOM     13  F   UNL d   1      47.538  35.693  52.131  0.00  0.00    -0.204 F 
ATOM     14  C   UNL d   1      48.161  34.948  51.072  0.00  0.00     0.030 A 
ATOM     15  C   UNL d   1      48.805  34.505  50.788  0.00  0.00     0.003 A 
ATOM     16  C   UNL d   1      49.459  34.367  51.273  0.00  0.00     0.005 A 
ENDBRANCH   8  10
ENDBRANCH   4   7
BRANCH   1  17
ATOM     17  N   UNL d   1      53.413  33.611  54.125  0.00  0.00    -0.273 N 
ATOM     18  C   UNL d   1      54.067  33.139  53.933  0.00  0.00     0.265 A 
ATOM     19  O   UNL d   1      54.184  32.722  53.225  0.00  0.00    -0.267 OA
ATOM     20  C   UNL d   1      54.593  33.151  54.570  0.00  0.00     0.063 A 
ATOM     21  C   UNL d   1      54.264  33.629  55.156  0.00  0.00     0.024 A 
ATOM     22  C   UNL d   1      53.543  33.911  54.885  0.00  0.00     0.083 A 
ENDBRANCH   1  17
TORSDOF 3
ENDMDL
