MODEL 1
REMARK VINA RESULT:      -7.0      0.000      0.000
REMARK  6 active torsions:
REMARK  status: ('A' for Active; 'I' for Inactive)
REMARK    1  A    between atoms: N_2  and  S_1 
REMARK    2  A    between atoms: C_7  and  S_1 
REMARK    3  A    between atoms: C_3  and  N_2 
REMARK    4  A    between atoms: C_4  and  C_3 
REMARK    5  A    between atoms: N_5  and  C_4 
REMARK    6  A    between atoms: C_6  and  C_4 
ROOT
ATOM      1  C   UNL d   1      53.315  32.208  53.152  0.00  0.00     0.110 C 
ATOM      2  C   UNL d   1      53.834  32.257  52.511  0.00  0.00     0.023 C 
ENDROOT
BRANCH   1   3
ATOM      3  N   UNL d   1      52.974  31.491  53.348  0.00  0.00    -0.157 NA
BRANCH   3   4
ATOM      4  S   UNL d   1      53.044  30.840  52.851  0.00  0.00     0.285 S 
ATOM      5  O   UNL d   1      53.071  30.576  52.068  0.00  0.00    -0.198 OA
ATOM      6  O   UNL d   1      52.982  31.382  52.226  0.00  0.00    -0.198 OA
BRANCH   4   7
ATOM      7  C   UNL d   1      53.111  30.252  53.420  0.00  0.00     0.105 A 
ATOM      8  C   UNL d   1      52.424  29.944  53.779  0.00  0.00     0.013 A 
ATOM      9  C   UNL d   1      52.498  29.352  54.352  0.00  0.00     0.007 A 
ATOM     10  C   UNL d   1      53.239  29.069  54.568  0.00  0.00     0.035 A 
ATOM     11  C   UNL d   1      53.919  29.373  54.214  0.00  0.00     0.007 A 
ATOM     12 BR   UNL d   1      53.305  28.473  55.145  0.00  0.00    -0.049 Br
ATOM     13  C   UNL d   1      53.853  29.969  53.636  0.00  0.00     0.013 A 
ENDBRANCH   4   7
ENDBRANCH   3   4
ENDBRANCH   1   3
BRANCH   1  14
ATOM     14  C   UNL d   1      53.143  32.880  53.593  0.00  0.00     0.089 C 
BRANCH  14  15
ATOM     15  N   UNL d   1      52.473  33.322  53.425  0.00  0.00    -0.300 N 
ATOM     16  C   UNL d   1      51.759  33.155  53.802  0.00  0.00     0.100 A 
ATOM     17  C   UNL d   1      51.084  33.602  53.631  0.00  0.00     0.100 A 
ATOM     18  N   UNL d   1      51.119  34.215  53.085  0.00  0.00    -0.299 N 
ATOM     19  C   UNL d   1      51.837  34.385  52.705  0.00  0.00     0.100 A 
ATOM     20  C   UNL d   1      50.441  34.661  52.916  0.00  0.00     0.100 C 
ATOM     21  C   UNL d   1      52.506  33.943  52.874  0.00  0.00     0.100 A 
ENDBRANCH  14  15
BRANCH  14  22
ATOM     22  C   UNL d   1      53.645  33.110  54.204  0.00  0.00     0.047 A 
ATOM     23  S   UNL d   1      54.376  33.490  54.119  0.00  0.00    -0.085 SA
ATOM     24  C   UNL d   1      54.684  33.613  54.877  0.00  0.00     0.035 A 
ATOM     25  C   UNL d   1      54.159  33.316  55.428  0.00  0.00     0.007 A 
ATOM     26  C   UNL d   1      53.510  33.002  55.013  0.00  0.00     0.009 A 
ENDBRANCH  14  22
ENDBRANCH   1  14
TORSDOF 6
ENDMDL
MODEL 2
REMARK VINA RESULT:      -6.5      0.884      2.258
REMARK  6 active torsions:
REMARK  status: ('A' for Active; 'I' for Inactive)
REMARK    1  A    between atoms: N_2  and  S_1 
REMARK    2  A    between atoms: C_7  and  S_1 
REMARK    3  A    between atoms: C_3  and  N_2 
REMARK    4  A    between atoms: C_4  and  C_3 
REMARK    5  A    between atoms: N_5  and  C_4 
REMARK    6  A    between atoms: C_6  and  C_4 
ROOT
ATOM      1  C   UNL d   1      52.929  32.195  52.946  0.00  0.00     0.110 C 
ATOM      2  C   UNL d   1      53.161  32.268  52.157  0.00  0.00     0.023 C 
ENDROOT
BRANCH   1   3
ATOM      3  N   UNL d   1      52.791  31.454  53.265  0.00  0.00    -0.157 NA
BRANCH   3   4
ATOM      4  S   UNL d   1      52.856  30.777  52.804  0.00  0.00     0.285 S 
ATOM      5  O   UNL d   1      52.845  30.466  52.038  0.00  0.00    -0.198 OA
ATOM      6  O   UNL d   1      52.734  31.278  52.153  0.00  0.00    -0.198 OA
BRANCH   4   7
ATOM      7  C   UNL d   1      52.981  30.228  53.401  0.00  0.00     0.105 A 
ATOM      8  C   UNL d   1      53.758  29.985  53.582  0.00  0.00     0.013 A 
ATOM      9  C   UNL d   1      53.879  29.432  54.186  0.00  0.00     0.007 A 
ATOM     10  C   UNL d   1      53.240  29.124  54.604  0.00  0.00     0.035 A 
ATOM     11  C   UNL d   1      52.472  29.364  54.425  0.00  0.00     0.007 A 
ATOM     12 BR   UNL d   1      53.369  28.567  55.209  0.00  0.00    -0.049 Br
ATOM     13  C   UNL d   1      52.343  29.920  53.819  0.00  0.00     0.013 A 
ENDBRANCH   4   7
ENDBRANCH   3   4
ENDBRANCH   1   3
BRANCH   1  14
ATOM     14  C   UNL d   1      52.836  32.867  53.411  0.00  0.00     0.089 C 
BRANCH  14  15
ATOM     15  N   UNL d   1      53.427  33.091  53.933  0.00  0.00    -0.300 N 
ATOM     16  C   UNL d   1      53.302  33.044  54.747  0.00  0.00     0.100 A 
ATOM     17  C   UNL d   1      53.899  33.271  55.273  0.00  0.00     0.100 A 
ATOM     18  N   UNL d   1      54.620  33.544  54.989  0.00  0.00    -0.299 N 
ATOM     19  C   UNL d   1      54.748  33.592  54.171  0.00  0.00     0.100 A 
ATOM     20  C   UNL d   1      55.217  33.771  55.519  0.00  0.00     0.100 C 
ATOM     21  C   UNL d   1      54.156  33.368  53.649  0.00  0.00     0.100 A 
ENDBRANCH  14  15
BRANCH  14  22
ATOM     22  C   UNL d   1      52.148  33.316  53.349  0.00  0.00     0.047 A 
ATOM     23  S   UNL d   1      52.040  33.982  52.868  0.00  0.00    -0.085 SA
ATOM     24  C   UNL d   1      51.267  34.252  52.985  0.00  0.00     0.035 A 
ATOM     25  C   UNL d   1      50.896  33.768  53.528  0.00  0.00     0.007 A 
ATOM     26  C   UNL d   1      51.441  33.183  53.757  0.00  0.00     0.009 A 
ENDBRANCH  14  22
ENDBRANCH   1  14
TORSDOF 6
ENDMDL
MODEL 3
REMARK VINA RESULT:      -6.1      2.270      3.939
REMARK  6 active torsions:
REMARK  status: ('A' for Active; 'I' for Inactive)
REMARK    1  A    between atoms: N_2  and  S_1 
REMARK    2  A    between atoms: C_7  and  S_1 
REMARK    3  A    between atoms: C_3  and  N_2 
REMARK    4  A    between atoms: C_4  and  C_3 
REMARK    5  A    between atoms: N_5  and  C_4 
REMARK    6  A    between atoms: C_6  and  C_4 
ROOT
ATOM      1  C   UNL d   1      53.222  33.740  54.366  0.00  0.00     0.110 C 
ATOM      2  C   UNL d   1      52.969  33.964  55.120  0.00  0.00     0.023 C 
ENDROOT
BRANCH   1   3
ATOM      3  N   UNL d   1      52.869  34.065  53.703  0.00  0.00    -0.157 NA
BRANCH   3   4
ATOM      4  S   UNL d   1      52.402  34.739  53.761  0.00  0.00     0.285 S 
ATOM      5  O   UNL d   1      52.297  35.469  54.135  0.00  0.00    -0.198 OA
ATOM      6  O   UNL d   1      52.942  34.994  54.339  0.00  0.00    -0.198 OA
BRANCH   4   7
ATOM      7  C   UNL d   1      51.834  34.549  53.201  0.00  0.00     0.105 A 
ATOM      8  C   UNL d   1      51.067  34.336  53.446  0.00  0.00     0.013 A 
ATOM      9  C   UNL d   1      50.498  34.144  52.877  0.00  0.00     0.007 A 
ATOM     10  C   UNL d   1      50.686  34.163  52.076  0.00  0.00     0.035 A 
ATOM     11  C   UNL d   1      51.445  34.374  51.832  0.00  0.00     0.007 A 
ATOM     12 BR   UNL d   1      50.108  33.969  51.509  0.00  0.00    -0.049 Br
ATOM     13  C   UNL d   1      52.022  34.568  52.400  0.00  0.00     0.013 A 
ENDBRANCH   4   7
ENDBRANCH   3   4
ENDBRANCH   1   3
BRANCH   1  14
ATOM     14  C   UNL d   1      53.827  33.189  54.283  0.00  0.00     0.089 C 
BRANCH  14  15
ATOM     15  N   UNL d   1      53.657  32.422  54.050  0.00  0.00    -0.300 N 
ATOM     16  C   UNL d   1      53.390  31.870  54.602  0.00  0.00     0.100 A 
ATOM     17  C   UNL d   1      53.219  31.095  54.364  0.00  0.00     0.100 A 
ATOM     18  N   UNL d   1      53.313  30.871  53.580  0.00  0.00    -0.299 N 
ATOM     19  C   UNL d   1      53.580  31.425  53.024  0.00  0.00     0.100 A 
ATOM     20  C   UNL d   1      53.140  30.094  53.345  0.00  0.00     0.100 C 
ATOM     21  C   UNL d   1      53.751  32.193  53.257  0.00  0.00     0.100 A 
ENDBRANCH  14  15
BRANCH  14  22
ATOM     22  C   UNL d   1      54.606  33.411  54.434  0.00  0.00     0.047 A 
ATOM     23  S   UNL d   1      54.937  33.557  55.179  0.00  0.00    -0.085 SA
ATOM     24  C   UNL d   1      55.730  33.762  55.065  0.00  0.00     0.035 A 
ATOM     25  C   UNL d   1      55.896  33.746  54.265  0.00  0.00     0.007 A 
ATOM     26  C   UNL d   1      55.198  33.527  53.868  0.00  0.00     0.009 A 
ENDBRANCH  14  22
ENDBRANCH   1  14
TORSDOF 6
ENDMDL
MODEL 4
REMARK VINA RESULT:      -4.2      2.189      4.144
REMARK  6 active torsions:
REMARK  status: ('A' for Active; 'I' for Inactive)
REMARK    1  A    between atoms: N_2  and  S_1 
REMARK    2  A    between atoms: C_7  and  S_1 
REMARK    3  A    between atoms: C_3  and  N_2 
REMARK    4  A    between atoms: C_4  and  C_3 
REMARK    5  A    between atoms: N_5  and  C_4 
REMARK    6  A    between atoms: C_6  and  C_4 
ROOT
ATOM      1  C   UNL d   1      53.069  33.344  52.929  0.00  0.00     0.110 C 
ATOM      2  C   UNL d   1      53.570  33.525  52.298  0.00  0.00     0.023 C 
ENDROOT
BRANCH   1   3
ATOM      3  N   UNL d   1      52.367  33.752  53.024  0.00  0.00    -0.157 NA
BRANCH   3   4
ATOM      4  S   UNL d   1      52.247  34.477  52.656  0.00  0.00     0.285 S 
ATOM      5  O   UNL d   1      52.601  35.169  52.373  0.00  0.00    -0.198 OA
ATOM      6  O   UNL d   1      53.067  34.583  52.724  0.00  0.00    -0.198 OA
BRANCH   4   7
ATOM      7  C   UNL d   1      51.433  34.436  52.557  0.00  0.00     0.105 A 
ATOM      8  C   UNL d   1      50.930  34.611  53.198  0.00  0.00     0.013 A 
ATOM      9  C   UNL d   1      50.110  34.568  53.092  0.00  0.00     0.007 A 
ATOM     10  C   UNL d   1      49.793  34.355  52.364  0.00  0.00     0.035 A 
ATOM     11  C   UNL d   1      50.291  34.182  51.729  0.00  0.00     0.007 A 
ATOM     12 BR   UNL d   1      48.968  34.314  52.265  0.00  0.00    -0.049 Br
ATOM     13  C   UNL d   1      51.116  34.223  51.828  0.00  0.00     0.013 A 
ENDBRANCH   4   7
ENDBRANCH   3   4
ENDBRANCH   1   3
BRANCH   1  14
ATOM     14  C   UNL d   1      53.277  32.752  53.461  0.00  0.00     0.089 C 
BRANCH  14  15
ATOM     15  N   UNL d   1      53.731  32.932  54.120  0.00  0.00    -0.300 N 
ATOM     16  C   UNL d   1      53.375  33.014  54.860  0.00  0.00     0.100 A 
ATOM     17  C   UNL d   1      53.835  33.195  55.524  0.00  0.00     0.100 A 
ATOM     18  N   UNL d   1      54.648  33.295  55.451  0.00  0.00    -0.299 N 
ATOM     19  C   UNL d   1      55.006  33.213  54.708  0.00  0.00     0.100 A 
ATOM     20  C   UNL d   1      55.106  33.477  56.119  0.00  0.00     0.100 C 
ATOM     21  C   UNL d   1      54.552  33.034  54.050  0.00  0.00     0.100 A 
ENDBRANCH  14  15
BRANCH  14  22
ATOM     22  C   UNL d   1      53.029  31.978  53.331  0.00  0.00     0.047 A 
ATOM     23  S   UNL d   1      53.438  31.398  52.903  0.00  0.00    -0.085 SA
ATOM     24  C   UNL d   1      52.983  30.708  52.917  0.00  0.00     0.035 A 
ATOM     25  C   UNL d   1      52.300  30.849  53.344  0.00  0.00     0.007 A 
ATOM     26  C   UNL d   1      52.325  31.639  53.603  0.00  0.00     0.009 A 
ENDBRANCH  14  22
ENDBRANCH   1  14
TORSDOF 6
ENDMDL
