MODEL 1
REMARK VINA RESULT:      72.4      0.000      0.000
REMARK  4 active torsions:
REMARK  status: ('A' for Active; 'I' for Inactive)
REMARK    1  A    between atoms: N_14  and  C_2 
REMARK       I    between atoms: C_9  and  N_11 
REMARK    2  A    between atoms: C_13  and  C_9 
REMARK    3  A    between atoms: C_10  and  C_17 
REMARK       I    between atoms: N_12  and  C_10 
REMARK    4  A    between atoms: C_30  and  N_14 
ROOT
ATOM      1  C   UNL d   1      13.301  14.296  -5.121  0.00  0.00     0.057 A 
ATOM      2  C   UNL d   1      13.386  13.588  -5.561  0.00  0.00     0.006 A 
ATOM      3  C   UNL d   1      13.262  14.267  -4.297  0.00  0.00     0.006 A 
ATOM      4  C   UNL d   1      13.392  12.840  -4.338  0.00  0.00     0.084 A 
ATOM      5  C   UNL d   1      13.430  12.869  -5.161  0.00  0.00     0.019 A 
ATOM      6  C   UNL d   1      13.307  13.540  -3.902  0.00  0.00     0.019 A 
ENDROOT
BRANCH   1   7
ATOM      7  C   UNL d   1      13.253  15.039  -5.495  0.00  0.00     0.265 C 
ATOM      8  N   UNL d   1      13.686  15.684  -5.206  0.00  0.00    -0.270 N 
ATOM      9  C   UNL d   1      14.213  16.333  -4.798  0.00  0.00     0.096 A 
ATOM     10  C   UNL d   1      13.982  16.451  -5.146  0.00  0.00     0.096 A 
ATOM     11  C   UNL d   1      14.106  17.025  -5.228  0.00  0.00     0.077 A 
ATOM     12  N   UNL d   1      14.285  17.825  -5.333  0.00  0.00    -0.171 NA
ATOM     13  C   UNL d   1      14.211  18.545  -5.732  0.00  0.00     0.267 C 
ATOM     14  C   UNL d   1      13.883  17.142  -5.566  0.00  0.00     0.077 A 
ATOM     15  O   UNL d   1      13.725  18.606  -6.386  0.00  0.00    -0.271 OA
ATOM     16  O   UNL d   1      12.769  15.133  -6.162  0.00  0.00    -0.267 OA
BRANCH  13  17
ATOM     17  C   UNL d   1      14.631  19.200  -5.464  0.00  0.00     0.151 A 
ATOM     18  O   UNL d   1      15.441  19.255  -5.393  0.00  0.00    -0.301 OA
ATOM     19  C   UNL d   1      15.630  19.999  -5.106  0.00  0.00     0.123 A 
ATOM     20  C   UNL d   1      14.924  20.409  -4.999  0.00  0.00     0.029 A 
ATOM     21  C   UNL d   1      14.308  19.919  -5.218  0.00  0.00     0.031 A 
ENDBRANCH  13  17
ENDBRANCH   1   7
BRANCH   4  22
ATOM     22  N   UNL d   1      13.437  12.109  -3.945  0.00  0.00    -0.221 NA
BRANCH  22  23
ATOM     23  C   UNL d   1      13.683  12.078  -3.153  0.00  0.00     0.194 A 
ATOM     24  S   UNL d   1      13.210  11.871  -2.530  0.00  0.00    -0.046 SA
ATOM     25  C   UNL d   1      13.673  11.912  -1.833  0.00  0.00     0.062 A 
ATOM     26  C   UNL d   1      13.663  11.808  -1.016  0.00  0.00     0.107 A 
ATOM     27  C   UNL d   1      14.431  12.146  -2.048  0.00  0.00     0.102 A 
ATOM     28  S   UNL d   1      14.409  11.977  -0.730  0.00  0.00     0.213 S 
ATOM     29  C   UNL d   1      14.888  12.186  -1.360  0.00  0.00     0.118 A 
ATOM     30  O   UNL d   1      14.028  11.784  -0.018  0.00  0.00    -0.217 OA
ATOM     31  O   UNL d   1      15.113  12.118  -0.311  0.00  0.00    -0.217 OA
ATOM     32  N   UNL d   1      14.442  12.252  -2.872  0.00  0.00    -0.220 NA
ENDBRANCH  22  23
ENDBRANCH   4  22
TORSDOF 4
ENDMDL
