MODEL 1
REMARK VINA RESULT:      -3.6      0.000      0.000
REMARK  4 active torsions:
REMARK  status: ('A' for Active; 'I' for Inactive)
REMARK    1  A    between atoms: C_11  and  C_4 
REMARK    2  A    between atoms: C_12  and  C_5 
REMARK    3  A    between atoms: C_7  and  C_11 
REMARK    4  A    between atoms: C_8  and  C_12 
ROOT
ATOM      1  N   UNL d   1     -41.482-123.369 -51.476  0.00  0.00    -0.246 NA
ATOM      2  C   UNL d   1     -41.242-121.745 -51.506  0.00  0.00     0.003 A 
ATOM      3  C   UNL d   1     -41.481-122.114 -50.810  0.00  0.00     0.019 A 
ATOM      4  C   UNL d   1     -41.602-122.930 -50.795  0.00  0.00     0.081 A 
ATOM      5  C   UNL d   1     -41.243-123.009 -52.172  0.00  0.00     0.081 A 
ATOM      6  C   UNL d   1     -41.123-122.192 -52.187  0.00  0.00     0.019 A 
ATOM      7  C   UNL d   1     -41.123-120.941 -51.520  0.00  0.00     0.000 C 
ENDROOT
BRANCH   4   8
ATOM      8  C   UNL d   1     -41.847-123.290 -50.075  0.00  0.00     0.019 C 
BRANCH   8   9
ATOM      9  C   UNL d   1     -42.626-123.257 -49.841  0.00  0.00     0.002 C 
ATOM     10  C   UNL d   1     -42.852-123.425 -49.056  0.00  0.00     0.000 C 
ENDBRANCH   8   9
ENDBRANCH   4   8
BRANCH   5  11
ATOM     11  C   UNL d   1     -41.123-123.469 -52.865  0.00  0.00     0.019 C 
BRANCH  11  12
ATOM     12  C   UNL d   1     -41.461-123.241 -53.574  0.00  0.00     0.002 C 
ATOM     13  C   UNL d   1     -41.439-123.755 -54.225  0.00  0.00     0.000 C 
ENDBRANCH  11  12
ENDBRANCH   5  11
TORSDOF 4
ENDMDL
MODEL 2
REMARK VINA RESULT:      -3.5      0.319      2.991
REMARK  4 active torsions:
REMARK  status: ('A' for Active; 'I' for Inactive)
REMARK    1  A    between atoms: C_11  and  C_4 
REMARK    2  A    between atoms: C_12  and  C_5 
REMARK    3  A    between atoms: C_7  and  C_11 
REMARK    4  A    between atoms: C_8  and  C_12 
ROOT
ATOM      1  N   UNL d   1     -41.635-123.632 -51.652  0.00  0.00    -0.246 NA
ATOM      2  C   UNL d   1     -41.292-122.032 -51.518  0.00  0.00     0.003 A 
ATOM      3  C   UNL d   1     -41.175-122.420 -52.234  0.00  0.00     0.019 A 
ATOM      4  C   UNL d   1     -41.347-123.225 -52.301  0.00  0.00     0.081 A 
ATOM      5  C   UNL d   1     -41.755-123.252 -50.936  0.00  0.00     0.081 A 
ATOM      6  C   UNL d   1     -41.582-122.447 -50.869  0.00  0.00     0.019 A 
ATOM      7  C   UNL d   1     -41.123-121.240 -51.452  0.00  0.00     0.000 C 
ENDROOT
BRANCH   4   8
ATOM      8  C   UNL d   1     -41.220-123.605 -53.041  0.00  0.00     0.019 C 
BRANCH   8   9
ATOM      9  C   UNL d   1     -41.613-123.352 -53.709  0.00  0.00     0.002 C 
ATOM     10  C   UNL d   1     -41.387-123.608 -54.469  0.00  0.00     0.000 C 
ENDBRANCH   8   9
ENDBRANCH   4   8
BRANCH   5  11
ATOM     11  C   UNL d   1     -42.051-123.680 -50.276  0.00  0.00     0.019 C 
BRANCH  11  12
ATOM     12  C   UNL d   1     -42.694-123.398 -49.858  0.00  0.00     0.002 C 
ATOM     13  C   UNL d   1     -42.949-123.797 -49.176  0.00  0.00     0.000 C 
ENDBRANCH  11  12
ENDBRANCH   5  11
TORSDOF 4
ENDMDL
MODEL 3
REMARK VINA RESULT:      -2.4      1.436      3.864
REMARK  4 active torsions:
REMARK  status: ('A' for Active; 'I' for Inactive)
REMARK    1  A    between atoms: C_11  and  C_4 
REMARK    2  A    between atoms: C_12  and  C_5 
REMARK    3  A    between atoms: C_7  and  C_11 
REMARK    4  A    between atoms: C_8  and  C_12 
ROOT
ATOM      1  N   UNL d   1     -41.241-123.160 -49.394  0.00  0.00    -0.246 NA
ATOM      2  C   UNL d   1     -42.875-123.001 -49.440  0.00  0.00     0.003 A 
ATOM      3  C   UNL d   1     -42.419-122.751 -50.077  0.00  0.00     0.019 A 
ATOM      4  C   UNL d   1     -41.597-122.830 -50.054  0.00  0.00     0.081 A 
ATOM      5  C   UNL d   1     -41.689-123.411 -48.756  0.00  0.00     0.081 A 
ATOM      6  C   UNL d   1     -42.511-123.332 -48.779  0.00  0.00     0.019 A 
ATOM      7  C   UNL d   1     -43.684-122.923 -49.462  0.00  0.00     0.000 C 
ENDROOT
BRANCH   4   8
ATOM      8  C   UNL d   1     -41.147-122.569 -50.715  0.00  0.00     0.019 C 
BRANCH   8   9
ATOM      9  C   UNL d   1     -41.196-122.958 -51.429  0.00  0.00     0.002 C 
ATOM     10  C   UNL d   1     -41.123-122.550 -52.152  0.00  0.00     0.000 C 
ENDBRANCH   8   9
ENDBRANCH   4   8
BRANCH   5  11
ATOM     11  C   UNL d   1     -41.314-123.748 -48.084  0.00  0.00     0.019 C 
BRANCH  11  12
ATOM     12  C   UNL d   1     -41.124-123.280 -47.441  0.00  0.00     0.002 C 
ATOM     13  C   UNL d   1     -41.135-123.604 -46.677  0.00  0.00     0.000 C 
ENDBRANCH  11  12
ENDBRANCH   5  11
TORSDOF 4
ENDMDL
MODEL 4
REMARK VINA RESULT:      -2.3      1.628      2.676
REMARK  4 active torsions:
REMARK  status: ('A' for Active; 'I' for Inactive)
REMARK    1  A    between atoms: C_11  and  C_4 
REMARK    2  A    between atoms: C_12  and  C_5 
REMARK    3  A    between atoms: C_7  and  C_11 
REMARK    4  A    between atoms: C_8  and  C_12 
ROOT
ATOM      1  N   UNL d   1     -41.973-121.522 -53.431  0.00  0.00    -0.246 NA
ATOM      2  C   UNL d   1     -41.404-123.057 -53.559  0.00  0.00     0.003 A 
ATOM      3  C   UNL d   1     -41.309-122.640 -52.856  0.00  0.00     0.019 A 
ATOM      4  C   UNL d   1     -41.595-121.868 -52.792  0.00  0.00     0.081 A 
ATOM      5  C   UNL d   1     -42.071-121.932 -54.134  0.00  0.00     0.081 A 
ATOM      6  C   UNL d   1     -41.785-122.704 -54.198  0.00  0.00     0.019 A 
ATOM      7  C   UNL d   1     -41.123-123.817 -53.622  0.00  0.00     0.000 C 
ENDROOT
BRANCH   4   8
ATOM      8  C   UNL d   1     -41.489-121.456 -52.066  0.00  0.00     0.019 C 
BRANCH   8   9
ATOM      9  C   UNL d   1     -41.377-121.867 -51.371  0.00  0.00     0.002 C 
ATOM     10  C   UNL d   1     -41.411-121.485 -50.631  0.00  0.00     0.000 C 
ENDBRANCH   8   9
ENDBRANCH   4   8
BRANCH   5  11
ATOM     11  C   UNL d   1     -42.460-121.568 -54.783  0.00  0.00     0.019 C 
BRANCH  11  12
ATOM     12  C   UNL d   1     -42.624-121.998 -55.459  0.00  0.00     0.002 C 
ATOM     13  C   UNL d   1     -42.596-121.627 -56.201  0.00  0.00     0.000 C 
ENDBRANCH  11  12
ENDBRANCH   5  11
TORSDOF 4
ENDMDL
MODEL 5
REMARK VINA RESULT:      -2.2      1.533      3.789
REMARK  4 active torsions:
REMARK  status: ('A' for Active; 'I' for Inactive)
REMARK    1  A    between atoms: C_11  and  C_4 
REMARK    2  A    between atoms: C_12  and  C_5 
REMARK    3  A    between atoms: C_7  and  C_11 
REMARK    4  A    between atoms: C_8  and  C_12 
ROOT
ATOM      1  N   UNL d   1     -41.747-121.443 -53.183  0.00  0.00    -0.246 NA
ATOM      2  C   UNL d   1     -41.330-123.031 -53.187  0.00  0.00     0.003 A 
ATOM      3  C   UNL d   1     -41.650-122.687 -53.862  0.00  0.00     0.019 A 
ATOM      4  C   UNL d   1     -41.860-121.888 -53.860  0.00  0.00     0.081 A 
ATOM      5  C   UNL d   1     -41.428-121.778 -52.507  0.00  0.00     0.081 A 
ATOM      6  C   UNL d   1     -41.218-122.577 -52.509  0.00  0.00     0.019 A 
ATOM      7  C   UNL d   1     -41.123-123.817 -53.189  0.00  0.00     0.000 C 
ENDROOT
BRANCH   4   8
ATOM      8  C   UNL d   1     -42.186-121.554 -54.560  0.00  0.00     0.019 C 
BRANCH   8   9
ATOM      9  C   UNL d   1     -41.903-121.771 -55.293  0.00  0.00     0.002 C 
ATOM     10  C   UNL d   1     -42.388-121.751 -55.969  0.00  0.00     0.000 C 
ENDBRANCH   8   9
ENDBRANCH   4   8
BRANCH   5  11
ATOM     11  C   UNL d   1     -41.316-121.312 -51.817  0.00  0.00     0.019 C 
BRANCH  11  12
ATOM     12  C   UNL d   1     -41.340-121.658 -51.077  0.00  0.00     0.002 C 
ATOM     13  C   UNL d   1     -41.165-121.205 -50.404  0.00  0.00     0.000 C 
ENDBRANCH  11  12
ENDBRANCH   5  11
TORSDOF 4
ENDMDL
MODEL 6
REMARK VINA RESULT:      -1.5      1.267      1.691
REMARK  4 active torsions:
REMARK  status: ('A' for Active; 'I' for Inactive)
REMARK    1  A    between atoms: C_11  and  C_4 
REMARK    2  A    between atoms: C_12  and  C_5 
REMARK    3  A    between atoms: C_7  and  C_11 
REMARK    4  A    between atoms: C_8  and  C_12 
ROOT
ATOM      1  N   UNL d   1     -41.358-122.745 -53.011  0.00  0.00    -0.246 NA
ATOM      2  C   UNL d   1     -41.202-121.234 -52.387  0.00  0.00     0.003 A 
ATOM      3  C   UNL d   1     -41.126-121.891 -51.899  0.00  0.00     0.019 A 
ATOM      4  C   UNL d   1     -41.204-122.652 -52.212  0.00  0.00     0.081 A 
ATOM      5  C   UNL d   1     -41.436-122.095 -53.503  0.00  0.00     0.081 A 
ATOM      6  C   UNL d   1     -41.357-121.335 -53.190  0.00  0.00     0.019 A 
ATOM      7  C   UNL d   1     -41.125-120.486 -52.079  0.00  0.00     0.000 C 
ENDROOT
BRANCH   4   8
ATOM      8  C   UNL d   1     -41.123-123.312 -51.697  0.00  0.00     0.019 C 
BRANCH   8   9
ATOM      9  C   UNL d   1     -41.410-123.280 -50.935  0.00  0.00     0.002 C 
ATOM     10  C   UNL d   1     -41.154-123.815 -50.351  0.00  0.00     0.000 C 
ENDBRANCH   8   9
ENDBRANCH   4   8
BRANCH   5  11
ATOM     11  C   UNL d   1     -41.594-122.203 -54.322  0.00  0.00     0.019 C 
BRANCH  11  12
ATOM     12  C   UNL d   1     -42.092-121.689 -54.716  0.00  0.00     0.002 C 
ATOM     13  C   UNL d   1     -42.223-121.784 -55.530  0.00  0.00     0.000 C 
ENDBRANCH  11  12
ENDBRANCH   5  11
TORSDOF 4
ENDMDL
