MODEL 1
REMARK VINA RESULT:      66.7      0.000      0.000
REMARK  9 active torsions:
REMARK  status: ('A' for Active; 'I' for Inactive)
REMARK    1  A    between atoms: C_9  and  N_1 
REMARK    2  A    between atoms: C_6  and  C_2 
REMARK    3  A    between atoms: S_11  and  C_3 
REMARK    4  A    between atoms: C_7  and  C_6 
REMARK    5  A    between atoms: C_20  and  C_9 
REMARK       I    between atoms: N_10  and  C_12 
REMARK    6  A    between atoms: C_13  and  N_10 
REMARK    7  A    between atoms: C_19  and  S_11 
REMARK    8  A    between atoms: C_12  and  C_19 
REMARK    9  A    between atoms: C_23  and  C_20 
ROOT
ATOM      1  N   UNL d   1      44.435 -13.672  38.564  0.00  0.00    -0.268 N 
ATOM      2  C   UNL d   1      44.943 -13.873  37.944  0.00  0.00     0.172 A 
ATOM      3  C   UNL d   1      44.812 -13.111  39.035  0.00  0.00     0.201 A 
ATOM      4  N   UNL d   1      45.634 -13.438  38.031  0.00  0.00    -0.128 NA
ATOM      5  N   UNL d   1      45.560 -12.965  38.703  0.00  0.00    -0.121 NA
ENDROOT
BRANCH   3   6
ATOM      6  S   UNL d   1      44.509 -12.758  39.710  0.00  0.00    -0.043 SA
BRANCH   6   7
ATOM      7  C   UNL d   1      45.014 -12.400  40.254  0.00  0.00     0.101 C 
BRANCH   7   8
ATOM      8  C   UNL d   1      44.813 -12.383  41.055  0.00  0.00     0.286 C 
ATOM      9  N   UNL d   1      45.396 -12.532  41.621  0.00  0.00    -0.205 NA
ATOM     10  O   UNL d   1      44.043 -12.220  41.289  0.00  0.00    -0.265 OA
BRANCH   9  11
ATOM     11  C   UNL d   1      45.202 -12.516  42.408  0.00  0.00     0.112 A 
ATOM     12  C   UNL d   1      45.671 -12.928  42.947  0.00  0.00     0.158 A 
ATOM     13  F   UNL d   1      46.334 -13.354  42.691  0.00  0.00    -0.203 F 
ATOM     14  C   UNL d   1      45.488 -12.922  43.750  0.00  0.00     0.031 A 
ATOM     15  C   UNL d   1      44.824 -12.495  44.010  0.00  0.00     0.002 A 
ATOM     16  C   UNL d   1      44.355 -12.083  43.467  0.00  0.00     0.002 A 
ATOM     17  C   UNL d   1      44.550 -12.097  42.662  0.00  0.00     0.021 A 
ENDBRANCH   9  11
ENDBRANCH   7   8
ENDBRANCH   6   7
ENDBRANCH   3   6
BRANCH   1  18
ATOM     18  C   UNL d   1      43.680 -13.981  38.688  0.00  0.00     0.084 C 
BRANCH  18  19
ATOM     19  C   UNL d   1      43.051 -13.752  38.190  0.00  0.00     0.019 C 
BRANCH  19  20
ATOM     20  C   UNL d   1      42.588 -14.328  37.814  0.00  0.00     0.002 A 
ATOM     21  C   UNL d   1      42.336 -14.203  37.045  0.00  0.00     0.000 A 
ATOM     22  C   UNL d   1      41.876 -14.778  36.675  0.00  0.00     0.000 A 
ATOM     23  C   UNL d   1      41.675 -15.472  37.081  0.00  0.00     0.000 A 
ATOM     24  C   UNL d   1      41.933 -15.592  37.858  0.00  0.00     0.000 A 
ATOM     25  C   UNL d   1      42.393 -15.009  38.219  0.00  0.00     0.000 A 
ENDBRANCH  19  20
ENDBRANCH  18  19
ENDBRANCH   1  18
BRANCH   2  26
ATOM     26  C   UNL d   1      44.786 -14.417  37.341  0.00  0.00     0.057 C 
BRANCH  26  27
ATOM     27  C   UNL d   1      45.397 -14.851  37.005  0.00  0.00     0.067 A 
ATOM     28  N   UNL d   1      45.320 -15.538  36.553  0.00  0.00    -0.303 N 
ATOM     29  C   UNL d   1      46.076 -15.786  36.330  0.00  0.00     0.080 A 
ATOM     30  C   UNL d   1      44.610 -15.909  36.361  0.00  0.00     0.100 C 
ATOM     31  C   UNL d   1      46.623 -15.255  36.641  0.00  0.00     0.021 A 
ATOM     32  C   UNL d   1      46.209 -14.678  37.058  0.00  0.00     0.019 A 
ENDBRANCH  26  27
ENDBRANCH   2  26
TORSDOF 9
ENDMDL
MODEL 2
REMARK VINA RESULT:      69.6      1.002      2.634
REMARK  9 active torsions:
REMARK  status: ('A' for Active; 'I' for Inactive)
REMARK    1  A    between atoms: C_9  and  N_1 
REMARK    2  A    between atoms: C_6  and  C_2 
REMARK    3  A    between atoms: S_11  and  C_3 
REMARK    4  A    between atoms: C_7  and  C_6 
REMARK    5  A    between atoms: C_20  and  C_9 
REMARK       I    between atoms: N_10  and  C_12 
REMARK    6  A    between atoms: C_13  and  N_10 
REMARK    7  A    between atoms: C_19  and  S_11 
REMARK    8  A    between atoms: C_12  and  C_19 
REMARK    9  A    between atoms: C_23  and  C_20 
ROOT
ATOM      1  N   UNL d   1      44.467 -13.394  38.472  0.00  0.00    -0.268 N 
ATOM      2  C   UNL d   1      43.803 -13.833  38.252  0.00  0.00     0.172 A 
ATOM      3  C   UNL d   1      44.393 -13.197  39.270  0.00  0.00     0.201 A 
ATOM      4  N   UNL d   1      43.319 -13.909  38.911  0.00  0.00    -0.128 NA
ATOM      5  N   UNL d   1      43.678 -13.519  39.544  0.00  0.00    -0.121 NA
ENDROOT
BRANCH   3   6
ATOM      6  S   UNL d   1      44.927 -12.764  39.716  0.00  0.00    -0.043 SA
BRANCH   6   7
ATOM      7  C   UNL d   1      44.666 -12.317  40.357  0.00  0.00     0.101 C 
BRANCH   7   8
ATOM      8  C   UNL d   1      45.023 -12.408  41.097  0.00  0.00     0.286 C 
ATOM      9  N   UNL d   1      44.574 -12.286  41.779  0.00  0.00    -0.205 NA
ATOM     10  O   UNL d   1      45.815 -12.617  41.156  0.00  0.00    -0.265 OA
BRANCH   9  11
ATOM     11  C   UNL d   1      44.920 -12.375  42.507  0.00  0.00     0.112 A 
ATOM     12  C   UNL d   1      44.505 -12.759  43.107  0.00  0.00     0.158 A 
ATOM     13  F   UNL d   1      43.742 -13.053  42.972  0.00  0.00    -0.203 F 
ATOM     14  C   UNL d   1      44.843 -12.858  43.852  0.00  0.00     0.031 A 
ATOM     15  C   UNL d   1      45.609 -12.564  43.990  0.00  0.00     0.002 A 
ATOM     16  C   UNL d   1      46.022 -12.180  43.387  0.00  0.00     0.002 A 
ATOM     17  C   UNL d   1      45.671 -12.087  42.642  0.00  0.00     0.021 A 
ENDBRANCH   9  11
ENDBRANCH   7   8
ENDBRANCH   6   7
ENDBRANCH   3   6
BRANCH   1  18
ATOM     18  C   UNL d   1      45.094 -13.187  37.978  0.00  0.00     0.084 C 
BRANCH  18  19
ATOM     19  C   UNL d   1      45.841 -13.543  38.085  0.00  0.00     0.019 C 
BRANCH  19  20
ATOM     20  C   UNL d   1      46.092 -14.145  37.574  0.00  0.00     0.002 A 
ATOM     21  C   UNL d   1      46.393 -13.950  36.838  0.00  0.00     0.000 A 
ATOM     22  C   UNL d   1      46.641 -14.552  36.333  0.00  0.00     0.000 A 
ATOM     23  C   UNL d   1      46.584 -15.343  36.573  0.00  0.00     0.000 A 
ATOM     24  C   UNL d   1      46.279 -15.534  37.318  0.00  0.00     0.000 A 
ATOM     25  C   UNL d   1      46.034 -14.923  37.815  0.00  0.00     0.000 A 
ENDBRANCH  19  20
ENDBRANCH  18  19
ENDBRANCH   1  18
BRANCH   2  26
ATOM     26  C   UNL d   1      43.650 -14.143  37.501  0.00  0.00     0.057 C 
BRANCH  26  27
ATOM     27  C   UNL d   1      42.982 -14.604  37.371  0.00  0.00     0.067 A 
ATOM     28  N   UNL d   1      42.969 -15.414  37.214  0.00  0.00    -0.303 N 
ATOM     29  C   UNL d   1      42.181 -15.646  37.121  0.00  0.00     0.080 A 
ATOM     30  C   UNL d   1      43.630 -15.904  37.162  0.00  0.00     0.100 C 
ATOM     31  C   UNL d   1      41.705 -14.982  37.218  0.00  0.00     0.021 A 
ATOM     32  C   UNL d   1      42.195 -14.338  37.372  0.00  0.00     0.019 A 
ENDBRANCH  26  27
ENDBRANCH   2  26
TORSDOF 9
ENDMDL
