MODEL 1
REMARK VINA RESULT:      40.3      0.000      0.000
REMARK  4 active torsions:
REMARK  status: ('A' for Active; 'I' for Inactive)
REMARK    1  A    between atoms: N_5  and  C_1 
REMARK    2  A    between atoms: S_2  and  N_5 
REMARK    3  A    between atoms: C_7  and  S_2 
REMARK    4  A    between atoms: N_10  and  C_3 
ROOT
ATOM      1  C   UNL d   1      46.171 -17.492  43.526  0.00  0.00     0.146 A 
ATOM      2  C   UNL d   1      46.243 -17.895  42.809  0.00  0.00     0.105 A 
ATOM      3  C   UNL d   1      46.381 -18.707  42.816  0.00  0.00     0.208 A 
ATOM      4  C   UNL d   1      46.235 -17.895  44.245  0.00  0.00     0.215 A 
ATOM      5  C   UNL d   1      46.445 -19.112  43.523  0.00  0.00     0.043 A 
ATOM      6  C   UNL d   1      46.372 -18.709  44.239  0.00  0.00     0.044 A 
ATOM      7  O   UNL d   1      46.453 -19.109  42.099  0.00  0.00    -0.285 OA
ATOM      8  O   UNL d   1      46.160 -17.479  44.954  0.00  0.00    -0.285 OA
ATOM      9  C   UNL d   1      46.582 -19.923  43.530  0.00  0.00     0.003 A 
ATOM     10  C   UNL d   1      46.437 -19.115  44.946  0.00  0.00     0.003 A 
ATOM     11  C   UNL d   1      46.646 -20.328  44.246  0.00  0.00     0.000 A 
ATOM     12  C   UNL d   1      46.574 -19.926  44.954  0.00  0.00     0.000 A 
ENDROOT
BRANCH   1  13
ATOM     13  N   UNL d   1      46.032 -16.675  43.530  0.00  0.00    -0.154 NA
BRANCH  13  14
ATOM     14  S   UNL d   1      45.419 -16.355  43.980  0.00  0.00     0.291 S 
ATOM     15  O   UNL d   1      45.074 -17.102  44.039  0.00  0.00    -0.198 OA
ATOM     16  O   UNL d   1      44.805 -16.039  44.431  0.00  0.00    -0.198 OA
BRANCH  14  17
ATOM     17  C   UNL d   1      45.768 -15.610  43.919  0.00  0.00     0.135 A 
ATOM     18  S   UNL d   1      46.461 -15.321  43.585  0.00  0.00    -0.073 SA
ATOM     19  C   UNL d   1      46.485 -14.504  43.718  0.00  0.00     0.036 A 
ATOM     20  C   UNL d   1      45.809 -14.292  44.133  0.00  0.00     0.008 A 
ATOM     21  C   UNL d   1      45.360 -14.976  44.261  0.00  0.00     0.020 A 
ENDBRANCH  14  17
ENDBRANCH  13  14
ENDBRANCH   1  13
BRANCH   2  22
ATOM     22  N   UNL d   1      46.178 -17.483  42.098  0.00  0.00    -0.201 NA
ATOM     23  C   UNL d   1      46.351 -17.649  41.487  0.00  0.00     0.082 A 
ATOM     24  C   UNL d   1      46.278 -17.151  40.592  0.00  0.00     0.136 A 
ATOM     25  O   UNL d   1      46.645 -17.808  40.114  0.00  0.00    -0.301 OA
ATOM     26  C   UNL d   1      46.452 -17.594  40.721  0.00  0.00     0.136 A 
ATOM     27  C   UNL d   1      46.517 -18.104  41.695  0.00  0.00     0.082 A 
ENDBRANCH   2  22
TORSDOF 4
ENDMDL
