MODEL 1
REMARK VINA RESULT:      -2.2      0.000      0.000
REMARK  6 active torsions:
REMARK  status: ('A' for Active; 'I' for Inactive)
REMARK    1  A    between atoms: C_12  and  C_3 
REMARK    2  A    between atoms: N_16  and  C_4 
REMARK    3  A    between atoms: N_11  and  C_23 
REMARK    4  A    between atoms: C_26  and  N_16 
REMARK    5  A    between atoms: C_23  and  C_24 
REMARK    6  A    between atoms: C_24  and  C_26 
ROOT
ATOM      1  C   UNL d   1      32.931  21.480 -21.677  0.00  0.00     0.168 A 
ATOM      2  N   UNL d   1      33.003  21.116 -22.443  0.00  0.00    -0.184 N 
ATOM      3  C   UNL d   1      32.785  22.276 -21.618  0.00  0.00     0.057 A 
ATOM      4  C   UNL d   1      33.148  20.322 -22.483  0.00  0.00     0.218 A 
ATOM      5  N   UNL d   1      32.776  22.381 -23.053  0.00  0.00    -0.160 NA
ATOM      6  N   UNL d   1      33.010  21.028 -21.002  0.00  0.00    -0.227 NA
ATOM      7  C   UNL d   1      33.229  19.857 -21.807  0.00  0.00     0.071 A 
ATOM      8  C   UNL d   1      32.706  22.735 -22.311  0.00  0.00     0.124 A 
ATOM      9  C   UNL d   1      33.158  20.216 -21.054  0.00  0.00     0.087 A 
ATOM     10  C   UNL d   1      33.241  19.739 -20.343  0.00  0.00     0.021 C 
ENDROOT
BRANCH   4  11
ATOM     11  N   UNL d   1      33.222  19.950 -23.254  0.00  0.00    -0.380 NA
BRANCH  11  12
ATOM     12  C   UNL d   1      33.221  19.573 -24.026  0.00  0.00     0.164 C 
BRANCH  12  13
ATOM     13  C   UNL d   1      32.984  18.759 -24.090  0.00  0.00     0.054 C 
BRANCH  13  14
ATOM     14  C   UNL d   1      32.483  18.517 -24.738  0.00  0.00     0.084 C 
BRANCH  14  15
ATOM     15  N   UNL d   1      32.240  17.692 -24.809  0.00  0.00    -0.285 N 
ATOM     16  C   UNL d   1      32.751  17.024 -24.962  0.00  0.00     0.183 A 
ATOM     17  N   UNL d   1      32.270  16.320 -24.986  0.00  0.00    -0.222 NA
ATOM     18  C   UNL d   1      31.457  16.557 -24.848  0.00  0.00     0.120 A 
ATOM     19  C   UNL d   1      31.438  17.399 -24.739  0.00  0.00     0.102 A 
ENDBRANCH  14  15
ENDBRANCH  13  14
ENDBRANCH  12  13
ENDBRANCH  11  12
ENDBRANCH   4  11
BRANCH   3  20
ATOM     20  C   UNL d   1      32.716  22.630 -20.876  0.00  0.00     0.005 A 
ATOM     21  C   UNL d   1      32.189  22.330 -20.332  0.00  0.00     0.001 A 
ATOM     22  C   UNL d   1      32.119  22.683 -19.590  0.00  0.00     0.011 A 
ATOM     23  C   UNL d   1      32.578  23.331 -19.404  0.00  0.00     0.058 A 
ATOM     24  C   UNL d   1      33.106  23.626 -19.961  0.00  0.00     0.011 A 
ATOM     25 CL   UNL d   1      32.505  23.702 -18.626  0.00  0.00    -0.082 Cl
ATOM     26  C   UNL d   1      33.174  23.278 -20.691  0.00  0.00     0.001 A 
ENDBRANCH   3  20
TORSDOF 6
ENDMDL
MODEL 2
REMARK VINA RESULT:      -1.4      3.011      6.151
REMARK  6 active torsions:
REMARK  status: ('A' for Active; 'I' for Inactive)
REMARK    1  A    between atoms: C_12  and  C_3 
REMARK    2  A    between atoms: N_16  and  C_4 
REMARK    3  A    between atoms: N_11  and  C_23 
REMARK    4  A    between atoms: C_26  and  N_16 
REMARK    5  A    between atoms: C_23  and  C_24 
REMARK    6  A    between atoms: C_24  and  C_26 
ROOT
ATOM      1  C   UNL d   1      30.120  17.172 -24.134  0.00  0.00     0.168 A 
ATOM      2  N   UNL d   1      30.761  17.672 -24.386  0.00  0.00    -0.184 N 
ATOM      3  C   UNL d   1      29.352  17.407 -24.248  0.00  0.00     0.057 A 
ATOM      4  C   UNL d   1      31.519  17.422 -24.264  0.00  0.00     0.218 A 
ATOM      5  N   UNL d   1      29.815  18.625 -24.858  0.00  0.00    -0.160 NA
ATOM      6  N   UNL d   1      30.279  16.455 -23.777  0.00  0.00    -0.227 NA
ATOM      7  C   UNL d   1      31.690  16.701 -23.904  0.00  0.00     0.071 A 
ATOM      8  C   UNL d   1      29.194  18.140 -24.614  0.00  0.00     0.124 A 
ATOM      9  C   UNL d   1      31.059  16.208 -23.656  0.00  0.00     0.087 A 
ATOM     10  C   UNL d   1      31.227  15.453 -23.280  0.00  0.00     0.021 C 
ENDROOT
BRANCH   4  11
ATOM     11  N   UNL d   1      32.169  17.925 -24.517  0.00  0.00    -0.380 NA
BRANCH  11  12
ATOM     12  C   UNL d   1      32.865  18.375 -24.743  0.00  0.00     0.164 C 
BRANCH  12  13
ATOM     13  C   UNL d   1      33.235  18.882 -24.171  0.00  0.00     0.054 C 
BRANCH  13  14
ATOM     14  C   UNL d   1      33.208  19.729 -24.279  0.00  0.00     0.084 C 
BRANCH  14  15
ATOM     15  N   UNL d   1      33.214  20.251 -23.592  0.00  0.00    -0.285 N 
ATOM     16  C   UNL d   1      33.194  21.106 -23.605  0.00  0.00     0.183 A 
ATOM     17  N   UNL d   1      33.208  21.384 -22.799  0.00  0.00    -0.222 NA
ATOM     18  C   UNL d   1      33.237  20.696 -22.287  0.00  0.00     0.120 A 
ATOM     19  C   UNL d   1      33.240  20.000 -22.774  0.00  0.00     0.102 A 
ENDBRANCH  14  15
ENDBRANCH  13  14
ENDBRANCH  12  13
ENDBRANCH  11  12
ENDBRANCH   4  11
BRANCH   3  20
ATOM     20  C   UNL d   1      28.730  16.922 -24.004  0.00  0.00     0.005 A 
ATOM     21  C   UNL d   1      28.466  16.326 -24.492  0.00  0.00     0.001 A 
ATOM     22  C   UNL d   1      27.845  15.841 -24.248  0.00  0.00     0.011 A 
ATOM     23  C   UNL d   1      27.498  15.961 -23.520  0.00  0.00     0.058 A 
ATOM     24  C   UNL d   1      27.772  16.566 -23.036  0.00  0.00     0.011 A 
ATOM     25 CL   UNL d   1      26.846  15.453 -23.264  0.00  0.00    -0.082 Cl
ATOM     26  C   UNL d   1      28.384  17.043 -23.277  0.00  0.00     0.001 A 
ENDBRANCH   3  20
TORSDOF 6
ENDMDL
MODEL 3
REMARK VINA RESULT:      -0.1      1.109      2.225
REMARK  6 active torsions:
REMARK  status: ('A' for Active; 'I' for Inactive)
REMARK    1  A    between atoms: C_12  and  C_3 
REMARK    2  A    between atoms: N_16  and  C_4 
REMARK    3  A    between atoms: N_11  and  C_23 
REMARK    4  A    between atoms: C_26  and  N_16 
REMARK    5  A    between atoms: C_23  and  C_24 
REMARK    6  A    between atoms: C_24  and  C_26 
ROOT
ATOM      1  C   UNL d   1      33.124  20.367 -22.761  0.00  0.00     0.168 A 
ATOM      2  N   UNL d   1      33.154  19.592 -23.111  0.00  0.00    -0.184 N 
ATOM      3  C   UNL d   1      33.068  20.448 -21.956  0.00  0.00     0.057 A 
ATOM      4  C   UNL d   1      33.210  19.530 -23.914  0.00  0.00     0.218 A 
ATOM      5  N   UNL d   1      33.069  19.017 -21.812  0.00  0.00    -0.160 NA
ATOM      6  N   UNL d   1      33.152  21.030 -23.238  0.00  0.00    -0.227 NA
ATOM      7  C   UNL d   1      33.239  20.192 -24.404  0.00  0.00     0.071 A 
ATOM      8  C   UNL d   1      33.040  19.768 -21.473  0.00  0.00     0.124 A 
ATOM      9  C   UNL d   1      33.210  20.956 -24.060  0.00  0.00     0.087 A 
ATOM     10  C   UNL d   1      33.239  21.653 -24.562  0.00  0.00     0.021 C 
ENDROOT
BRANCH   4  11
ATOM     11  N   UNL d   1      33.241  18.748 -24.271  0.00  0.00    -0.380 NA
BRANCH  11  12
ATOM     12  C   UNL d   1      33.217  17.990 -24.673  0.00  0.00     0.164 C 
BRANCH  12  13
ATOM     13  C   UNL d   1      32.497  17.538 -24.664  0.00  0.00     0.054 C 
BRANCH  13  14
ATOM     14  C   UNL d   1      32.490  16.765 -24.301  0.00  0.00     0.084 C 
BRANCH  14  15
ATOM     15  N   UNL d   1      31.742  16.351 -24.182  0.00  0.00    -0.285 N 
ATOM     16  C   UNL d   1      31.170  16.153 -24.786  0.00  0.00     0.183 A 
ATOM     17  N   UNL d   1      30.519  15.747 -24.413  0.00  0.00    -0.222 NA
ATOM     18  C   UNL d   1      30.692  15.695 -23.575  0.00  0.00     0.120 A 
ATOM     19  C   UNL d   1      31.443  16.066 -23.432  0.00  0.00     0.102 A 
ENDBRANCH  14  15
ENDBRANCH  13  14
ENDBRANCH  12  13
ENDBRANCH  11  12
ENDBRANCH   4  11
BRANCH   3  20
ATOM     20  C   UNL d   1      33.039  21.200 -21.617  0.00  0.00     0.005 A 
ATOM     21  C   UNL d   1      32.809  21.839 -22.068  0.00  0.00     0.001 A 
ATOM     22  C   UNL d   1      32.780  22.590 -21.729  0.00  0.00     0.011 A 
ATOM     23  C   UNL d   1      32.981  22.690 -20.945  0.00  0.00     0.058 A 
ATOM     24  C   UNL d   1      33.211  22.039 -20.500  0.00  0.00     0.011 A 
ATOM     25 CL   UNL d   1      32.950  23.478 -20.589  0.00  0.00    -0.082 Cl
ATOM     26  C   UNL d   1      33.240  21.299 -20.834  0.00  0.00     0.001 A 
ENDBRANCH   3  20
TORSDOF 6
ENDMDL
MODEL 4
REMARK VINA RESULT:       0.4      1.018      1.878
REMARK  6 active torsions:
REMARK  status: ('A' for Active; 'I' for Inactive)
REMARK    1  A    between atoms: C_12  and  C_3 
REMARK    2  A    between atoms: N_16  and  C_4 
REMARK    3  A    between atoms: N_11  and  C_23 
REMARK    4  A    between atoms: C_26  and  N_16 
REMARK    5  A    between atoms: C_23  and  C_24 
REMARK    6  A    between atoms: C_24  and  C_26 
ROOT
ATOM      1  C   UNL d   1      33.007  21.708 -20.795  0.00  0.00     0.168 A 
ATOM      2  N   UNL d   1      33.097  21.137 -21.419  0.00  0.00    -0.184 N 
ATOM      3  C   UNL d   1      33.036  21.471 -20.019  0.00  0.00     0.057 A 
ATOM      4  C   UNL d   1      33.066  21.391 -22.185  0.00  0.00     0.218 A 
ATOM      5  N   UNL d   1      33.241  20.111 -20.443  0.00  0.00    -0.160 NA
ATOM      6  N   UNL d   1      32.892  22.495 -20.977  0.00  0.00    -0.227 NA
ATOM      7  C   UNL d   1      32.950  22.183 -22.380  0.00  0.00     0.071 A 
ATOM      8  C   UNL d   1      33.154  20.665 -19.838  0.00  0.00     0.124 A 
ATOM      9  C   UNL d   1      32.861  22.746 -21.765  0.00  0.00     0.087 A 
ATOM     10  C   UNL d   1      32.740  23.575 -21.957  0.00  0.00     0.021 C 
ENDROOT
BRANCH   4  11
ATOM     11  N   UNL d   1      33.156  20.817 -22.819  0.00  0.00    -0.380 NA
BRANCH  11  12
ATOM     12  C   UNL d   1      33.191  20.277 -23.486  0.00  0.00     0.164 C 
BRANCH  12  13
ATOM     13  C   UNL d   1      32.703  19.582 -23.483  0.00  0.00     0.054 C 
BRANCH  13  14
ATOM     14  C   UNL d   1      33.028  18.839 -23.751  0.00  0.00     0.084 C 
BRANCH  14  15
ATOM     15  N   UNL d   1      32.509  18.159 -23.868  0.00  0.00    -0.285 N 
ATOM     16  C   UNL d   1      31.945  18.054 -24.502  0.00  0.00     0.183 A 
ATOM     17  N   UNL d   1      31.559  17.302 -24.393  0.00  0.00    -0.222 NA
ATOM     18  C   UNL d   1      31.887  16.941 -23.688  0.00  0.00     0.120 A 
ATOM     19  C   UNL d   1      32.471  17.467 -23.365  0.00  0.00     0.102 A 
ENDBRANCH  14  15
ENDBRANCH  13  14
ENDBRANCH  12  13
ENDBRANCH  11  12
ENDBRANCH   4  11
BRANCH   3  20
ATOM     20  C   UNL d   1      32.948  22.024 -19.414  0.00  0.00     0.005 A 
ATOM     21  C   UNL d   1      33.240  21.861 -18.671  0.00  0.00     0.001 A 
ATOM     22  C   UNL d   1      33.153  22.415 -18.065  0.00  0.00     0.011 A 
ATOM     23  C   UNL d   1      32.775  23.122 -18.213  0.00  0.00     0.058 A 
ATOM     24  C   UNL d   1      32.484  23.276 -18.966  0.00  0.00     0.011 A 
ATOM     25 CL   UNL d   1      32.684  23.702 -17.578  0.00  0.00    -0.082 Cl
ATOM     26  C   UNL d   1      32.570  22.731 -19.562  0.00  0.00     0.001 A 
ENDBRANCH   3  20
TORSDOF 6
ENDMDL
