MODEL 1
REMARK VINA RESULT:      44.7      0.000      0.000
REMARK  8 active torsions:
REMARK  status: ('A' for Active; 'I' for Inactive)
REMARK    1  A    between atoms: C_7  and  C_1 
REMARK    2  A    between atoms: S_2  and  N_8 
REMARK    3  A    between atoms: C_11  and  S_2 
REMARK    4  A    between atoms: O_17  and  C_7 
REMARK    5  A    between atoms: N_8  and  C_13 
REMARK    6  A    between atoms: C_22  and  O_17 
REMARK    7  A    between atoms: O_19  and  C_23 
REMARK    8  A    between atoms: C_23  and  C_22 
ROOT
ATOM      1  C   UNL d   1      46.106 -18.628  42.199  0.00  0.00     0.088 A 
ATOM      2  C   UNL d   1      46.268 -18.631  41.392  0.00  0.00     0.105 A 
ATOM      3  C   UNL d   1      46.138 -17.853  42.464  0.00  0.00     0.031 A 
ATOM      4  O   UNL d   1      46.403 -17.840  41.158  0.00  0.00    -0.307 OA
ATOM      5  C   UNL d   1      46.321 -17.367  41.822  0.00  0.00     0.100 A 
ATOM      6  C   UNL d   1      46.024 -17.522  43.212  0.00  0.00     0.022 A 
ATOM      7  C   UNL d   1      46.093 -16.712  43.314  0.00  0.00     0.094 A 
ATOM      8  C   UNL d   1      46.390 -16.551  41.929  0.00  0.00     0.026 A 
ATOM      9  C   UNL d   1      46.276 -16.226  42.673  0.00  0.00     0.022 A 
ATOM     10  C   UNL d   1      46.305 -19.259  40.867  0.00  0.00     0.027 C 
ENDROOT
BRANCH   7  11
ATOM     11  N   UNL d   1      45.971 -16.374  44.105  0.00  0.00    -0.158 NA
BRANCH  11  12
ATOM     12  S   UNL d   1      45.827 -15.560  44.203  0.00  0.00     0.285 S 
ATOM     13  O   UNL d   1      46.626 -15.375  44.105  0.00  0.00    -0.198 OA
ATOM     14  O   UNL d   1      44.993 -15.719  44.309  0.00  0.00    -0.198 OA
BRANCH  12  15
ATOM     15  C   UNL d   1      45.643 -14.738  44.308  0.00  0.00     0.105 A 
ATOM     16  C   UNL d   1      46.251 -14.243  44.568  0.00  0.00     0.013 A 
ATOM     17  C   UNL d   1      46.108 -13.438  44.680  0.00  0.00     0.001 A 
ATOM     18  C   UNL d   1      45.356 -13.128  44.532  0.00  0.00     0.000 A 
ATOM     19  C   UNL d   1      44.755 -13.623  44.274  0.00  0.00     0.001 A 
ATOM     20  C   UNL d   1      44.899 -14.427  44.162  0.00  0.00     0.013 A 
ENDBRANCH  12  15
ENDBRANCH  11  12
ENDBRANCH   7  11
BRANCH   1  21
ATOM     21  C   UNL d   1      45.942 -19.334  42.628  0.00  0.00     0.302 C 
ATOM     22  O   UNL d   1      45.781 -20.049  42.239  0.00  0.00    -0.259 OA
BRANCH  21  23
ATOM     23  O   UNL d   1      45.942 -19.306  43.462  0.00  0.00    -0.269 OA
BRANCH  23  24
ATOM     24  C   UNL d   1      45.392 -19.747  43.903  0.00  0.00     0.152 C 
BRANCH  24  25
ATOM     25  C   UNL d   1      44.702 -19.401  44.187  0.00  0.00     0.143 C 
BRANCH  25  26
ATOM     26  O   UNL d   1      44.356 -19.630  44.912  0.00  0.00    -0.324 OA
ATOM     27  C   UNL d   1      43.951 -20.323  44.954  0.00  0.00     0.182 C 
ENDBRANCH  25  26
ENDBRANCH  24  25
ENDBRANCH  23  24
ENDBRANCH  21  23
ENDBRANCH   1  21
TORSDOF 8
ENDMDL
MODEL 2
REMARK VINA RESULT:      46.7      3.839      6.113
REMARK  8 active torsions:
REMARK  status: ('A' for Active; 'I' for Inactive)
REMARK    1  A    between atoms: C_7  and  C_1 
REMARK    2  A    between atoms: S_2  and  N_8 
REMARK    3  A    between atoms: C_11  and  S_2 
REMARK    4  A    between atoms: O_17  and  C_7 
REMARK    5  A    between atoms: N_8  and  C_13 
REMARK    6  A    between atoms: C_22  and  O_17 
REMARK    7  A    between atoms: O_19  and  C_23 
REMARK    8  A    between atoms: C_23  and  C_22 
ROOT
ATOM      1  C   UNL d   1      44.612 -16.376  37.831  0.00  0.00     0.088 A 
ATOM      2  C   UNL d   1      43.817 -16.165  37.866  0.00  0.00     0.105 A 
ATOM      3  C   UNL d   1      44.797 -16.792  38.512  0.00  0.00     0.031 A 
ATOM      4  O   UNL d   1      43.510 -16.459  38.585  0.00  0.00    -0.307 OA
ATOM      5  C   UNL d   1      44.118 -16.843  38.977  0.00  0.00     0.100 A 
ATOM      6  C   UNL d   1      45.503 -17.134  38.773  0.00  0.00     0.022 A 
ATOM      7  C   UNL d   1      45.524 -17.524  39.494  0.00  0.00     0.094 A 
ATOM      8  C   UNL d   1      44.144 -17.236  39.703  0.00  0.00     0.026 A 
ATOM      9  C   UNL d   1      44.845 -17.575  39.959  0.00  0.00     0.022 A 
ATOM     10  C   UNL d   1      43.361 -15.748  37.328  0.00  0.00     0.027 C 
ENDROOT
BRANCH   7  11
ATOM     11  N   UNL d   1      46.271 -17.880  39.758  0.00  0.00    -0.158 NA
BRANCH  11  12
ATOM     12  S   UNL d   1      46.318 -18.276  40.490  0.00  0.00     0.285 S 
ATOM     13  O   UNL d   1      46.004 -18.969  40.170  0.00  0.00    -0.198 OA
ATOM     14  O   UNL d   1      46.646 -17.572  40.849  0.00  0.00    -0.198 OA
BRANCH  12  15
ATOM     15  C   UNL d   1      46.381 -18.647  41.251  0.00  0.00     0.105 A 
ATOM     16  C   UNL d   1      46.549 -19.455  41.265  0.00  0.00     0.013 A 
ATOM     17  C   UNL d   1      46.617 -19.849  41.987  0.00  0.00     0.001 A 
ATOM     18  C   UNL d   1      46.518 -19.433  42.695  0.00  0.00     0.000 A 
ATOM     19  C   UNL d   1      46.352 -18.630  42.676  0.00  0.00     0.001 A 
ATOM     20  C   UNL d   1      46.284 -18.237  41.953  0.00  0.00     0.013 A 
ENDBRANCH  12  15
ENDBRANCH  11  12
ENDBRANCH   7  11
BRANCH   1  21
ATOM     21  C   UNL d   1      45.104 -16.171  37.178  0.00  0.00     0.302 C 
ATOM     22  O   UNL d   1      44.969 -16.482  36.420  0.00  0.00    -0.259 OA
BRANCH  21  23
ATOM     23  O   UNL d   1      45.738 -15.645  37.303  0.00  0.00    -0.269 OA
BRANCH  23  24
ATOM     24  C   UNL d   1      45.957 -15.095  36.719  0.00  0.00     0.152 C 
BRANCH  24  25
ATOM     25  C   UNL d   1      46.647 -14.651  36.793  0.00  0.00     0.143 C 
BRANCH  25  26
ATOM     26  O   UNL d   1      46.638 -13.859  37.057  0.00  0.00    -0.324 OA
ATOM     27  C   UNL d   1      46.484 -13.270  36.532  0.00  0.00     0.182 C 
ENDBRANCH  25  26
ENDBRANCH  24  25
ENDBRANCH  23  24
ENDBRANCH  21  23
ENDBRANCH   1  21
TORSDOF 8
ENDMDL
