MODEL 1
REMARK VINA RESULT:      69.9      0.000      0.000
REMARK  7 active torsions:
REMARK  status: ('A' for Active; 'I' for Inactive)
REMARK    1  A    between atoms: C_5  and  C_1 
REMARK    2  A    between atoms: N_6  and  C_2 
REMARK    3  A    between atoms: C_7  and  C_5 
REMARK    4  A    between atoms: C_8  and  C_5 
REMARK       I    between atoms: N_13  and  C_7 
REMARK    5  A    between atoms: C_17  and  N_13 
REMARK    6  A    between atoms: C_23  and  C_17 
REMARK    7  A    between atoms: C_18  and  C_23 
ROOT
ATOM      1  C   UNL d   1     -51.847  25.662  34.198  0.00  0.00     0.117 A 
ATOM      2  C   UNL d   1     -51.311  25.196  33.779  0.00  0.00     0.145 A 
ATOM      3  N   UNL d   1     -51.548  24.461  33.483  0.00  0.00    -0.230 NA
ATOM      4  N   UNL d   1     -52.619  25.394  34.322  0.00  0.00    -0.241 NA
ATOM      5  C   UNL d   1     -52.317  24.195  33.606  0.00  0.00     0.100 A 
ATOM      6  C   UNL d   1     -52.853  24.662  34.026  0.00  0.00     0.099 A 
ATOM      7  C   UNL d   1     -52.550  23.464  33.311  0.00  0.00     0.021 A 
ATOM      8  C   UNL d   1     -53.622  24.397  34.150  0.00  0.00     0.021 A 
ATOM      9  C   UNL d   1     -53.326  23.192  33.433  0.00  0.00     0.002 A 
ATOM     10  C   UNL d   1     -53.861  23.659  33.853  0.00  0.00     0.002 A 
ENDROOT
BRANCH   1  11
ATOM     11  C   UNL d   1     -51.458  26.352  34.420  0.00  0.00     0.099 C 
BRANCH  11  12
ATOM     12  C   UNL d   1     -51.109  26.588  35.142  0.00  0.00     0.282 C 
ATOM     13  O   UNL d   1     -50.385  26.998  35.140  0.00  0.00    -0.265 OA
ATOM     14  N   UNL d   1     -51.488  26.410  35.857  0.00  0.00    -0.206 NA
BRANCH  14  15
ATOM     15  C   UNL d   1     -51.138  26.647  36.576  0.00  0.00     0.102 C 
BRANCH  15  16
ATOM     16  C   UNL d   1     -51.504  26.848  37.290  0.00  0.00     0.021 C 
BRANCH  16  17
ATOM     17  C   UNL d   1     -51.745  26.261  37.812  0.00  0.00     0.002 A 
ATOM     18  C   UNL d   1     -51.245  26.042  38.423  0.00  0.00     0.000 A 
ATOM     19  C   UNL d   1     -51.488  25.451  38.949  0.00  0.00     0.000 A 
ATOM     20  C   UNL d   1     -52.223  25.089  38.857  0.00  0.00     0.000 A 
ATOM     21  C   UNL d   1     -52.713  25.323  38.235  0.00  0.00     0.000 A 
ATOM     22  C   UNL d   1     -52.474  25.906  37.717  0.00  0.00     0.000 A 
ENDBRANCH  16  17
ENDBRANCH  15  16
ENDBRANCH  14  15
ENDBRANCH  11  12
BRANCH  11  23
ATOM     23  C   UNL d   1     -51.378  26.938  33.857  0.00  0.00     0.129 C 
ATOM     24  N   UNL d   1     -51.889  27.325  33.337  0.00  0.00    -0.146 N 
ENDBRANCH  11  23
ENDBRANCH   1  11
BRANCH   2  25
ATOM     25  N   UNL d   1     -50.592  25.598  33.742  0.00  0.00    -0.188 NA
ATOM     26  C   UNL d   1     -49.950  25.333  33.306  0.00  0.00     0.083 A 
ATOM     27  C   UNL d   1     -49.319  26.188  33.598  0.00  0.00     0.136 A 
ATOM     28  O   UNL d   1     -48.681  26.327  33.425  0.00  0.00    -0.301 OA
ATOM     29  C   UNL d   1     -49.403  26.580  33.885  0.00  0.00     0.136 A 
ATOM     30  C   UNL d   1     -49.971  25.772  33.598  0.00  0.00     0.083 A 
ENDBRANCH   2  25
TORSDOF 7
ENDMDL
