MODEL 1
REMARK VINA RESULT:      -5.8      0.000      0.000
REMARK  4 active torsions:
REMARK  status: ('A' for Active; 'I' for Inactive)
REMARK    1  A    between atoms: C_7  and  C_3 
REMARK    2  A    between atoms: S_6  and  C_7 
REMARK    3  A    between atoms: C_9  and  S_6 
REMARK    4  A    between atoms: C_8  and  C_9 
ROOT
ATOM      1  N   UNL d   1     -41.841-121.853 -53.069  0.00  0.00    -0.225 NA
ATOM      2  N   UNL d   1     -41.217-123.054 -53.216  0.00  0.00    -0.225 NA
ATOM      3  C   UNL d   1     -41.442-122.469 -52.660  0.00  0.00     0.169 A 
ATOM      4  C   UNL d   1     -41.858-122.067 -53.877  0.00  0.00     0.101 A 
ATOM      5  C   UNL d   1     -41.476-122.804 -53.975  0.00  0.00     0.101 A 
ATOM      6  C   UNL d   1     -42.178-121.676 -54.541  0.00  0.00     0.021 A 
ATOM      7  C   UNL d   1     -41.423-123.134 -54.736  0.00  0.00     0.021 A 
ATOM      8  C   UNL d   1     -41.740-122.743 -55.381  0.00  0.00     0.002 A 
ATOM      9  C   UNL d   1     -42.118-122.014 -55.284  0.00  0.00     0.002 A 
ENDROOT
BRANCH   3  10
ATOM     10  C   UNL d   1     -41.501-122.131 -51.910  0.00  0.00     0.074 C 
BRANCH  10  11
ATOM     11  S   UNL d   1     -41.550-122.615 -51.244  0.00  0.00    -0.083 SA
BRANCH  11  12
ATOM     12  C   UNL d   1     -41.644-122.279 -50.496  0.00  0.00     0.035 C 
BRANCH  12  13
ATOM     13  C   UNL d   1     -41.873-122.749 -49.859  0.00  0.00     0.006 A 
ATOM     14  C   UNL d   1     -42.662-122.743 -49.612  0.00  0.00     0.001 A 
ATOM     15  C   UNL d   1     -42.892-123.213 -48.974  0.00  0.00     0.000 A 
ATOM     16  C   UNL d   1     -42.335-123.685 -48.590  0.00  0.00     0.000 A 
ATOM     17  C   UNL d   1     -41.548-123.686 -48.843  0.00  0.00     0.000 A 
ATOM     18  C   UNL d   1     -41.318-123.215 -49.480  0.00  0.00     0.001 A 
ENDBRANCH  12  13
ENDBRANCH  11  12
ENDBRANCH  10  11
ENDBRANCH   3  10
TORSDOF 4
ENDMDL
MODEL 2
REMARK VINA RESULT:      -5.7      1.061      4.819
REMARK  4 active torsions:
REMARK  status: ('A' for Active; 'I' for Inactive)
REMARK    1  A    between atoms: C_7  and  C_3 
REMARK    2  A    between atoms: S_6  and  C_7 
REMARK    3  A    between atoms: C_9  and  S_6 
REMARK    4  A    between atoms: C_8  and  C_9 
ROOT
ATOM      1  N   UNL d   1     -41.216-122.954 -50.329  0.00  0.00    -0.225 NA
ATOM      2  N   UNL d   1     -42.498-122.507 -50.429  0.00  0.00    -0.225 NA
ATOM      3  C   UNL d   1     -41.779-122.610 -50.848  0.00  0.00     0.169 A 
ATOM      4  C   UNL d   1     -41.596-123.061 -49.592  0.00  0.00     0.101 A 
ATOM      5  C   UNL d   1     -42.383-122.789 -49.646  0.00  0.00     0.101 A 
ATOM      6  C   UNL d   1     -41.316-123.376 -48.871  0.00  0.00     0.021 A 
ATOM      7  C   UNL d   1     -42.875-122.838 -48.977  0.00  0.00     0.021 A 
ATOM      8  C   UNL d   1     -42.593-123.148 -48.275  0.00  0.00     0.002 A 
ATOM      9  C   UNL d   1     -41.812-123.417 -48.222  0.00  0.00     0.002 A 
ENDROOT
BRANCH   3  10
ATOM     10  C   UNL d   1     -41.282-122.566 -51.504  0.00  0.00     0.074 C 
BRANCH  10  11
ATOM     11  S   UNL d   1     -41.603-122.544 -52.263  0.00  0.00    -0.083 SA
BRANCH  11  12
ATOM     12  C   UNL d   1     -41.131-122.330 -52.904  0.00  0.00     0.035 C 
BRANCH  12  13
ATOM     13  C   UNL d   1     -41.431-122.377 -53.671  0.00  0.00     0.006 A 
ATOM     14  C   UNL d   1     -41.931-121.780 -53.950  0.00  0.00     0.001 A 
ATOM     15  C   UNL d   1     -42.231-121.827 -54.717  0.00  0.00     0.000 A 
ATOM     16  C   UNL d   1     -42.032-122.467 -55.198  0.00  0.00     0.000 A 
ATOM     17  C   UNL d   1     -41.532-123.060 -54.912  0.00  0.00     0.000 A 
ATOM     18  C   UNL d   1     -41.231-123.013 -54.145  0.00  0.00     0.001 A 
ENDBRANCH  12  13
ENDBRANCH  11  12
ENDBRANCH  10  11
ENDBRANCH   3  10
TORSDOF 4
ENDMDL
MODEL 3
REMARK VINA RESULT:      -2.9      1.069      4.733
REMARK  4 active torsions:
REMARK  status: ('A' for Active; 'I' for Inactive)
REMARK    1  A    between atoms: C_7  and  C_3 
REMARK    2  A    between atoms: S_6  and  C_7 
REMARK    3  A    between atoms: C_9  and  S_6 
REMARK    4  A    between atoms: C_8  and  C_9 
ROOT
ATOM      1  N   UNL d   1     -41.746-122.413 -51.756  0.00  0.00    -0.225 NA
ATOM      2  N   UNL d   1     -41.540-123.746 -51.576  0.00  0.00    -0.225 NA
ATOM      3  C   UNL d   1     -41.423-123.105 -52.103  0.00  0.00     0.169 A 
ATOM      4  C   UNL d   1     -42.061-122.635 -51.014  0.00  0.00     0.101 A 
ATOM      5  C   UNL d   1     -41.938-123.453 -50.897  0.00  0.00     0.101 A 
ATOM      6  C   UNL d   1     -42.449-122.187 -50.426  0.00  0.00     0.021 A 
ATOM      7  C   UNL d   1     -42.205-123.806 -50.193  0.00  0.00     0.021 A 
ATOM      8  C   UNL d   1     -42.584-123.359 -49.622  0.00  0.00     0.002 A 
ATOM      9  C   UNL d   1     -42.706-122.549 -49.739  0.00  0.00     0.002 A 
ENDROOT
BRANCH   3  10
ATOM     10  C   UNL d   1     -41.162-122.744 -52.797  0.00  0.00     0.074 C 
BRANCH  10  11
ATOM     11  S   UNL d   1     -41.658-122.711 -53.455  0.00  0.00    -0.083 SA
BRANCH  11  12
ATOM     12  C   UNL d   1     -41.348-122.823 -54.211  0.00  0.00     0.035 C 
BRANCH  12  13
ATOM     13  C   UNL d   1     -41.729-122.497 -54.865  0.00  0.00     0.006 A 
ATOM     14  C   UNL d   1     -42.356-122.906 -55.218  0.00  0.00     0.001 A 
ATOM     15  C   UNL d   1     -42.737-122.580 -55.872  0.00  0.00     0.000 A 
ATOM     16  C   UNL d   1     -42.493-121.851 -56.169  0.00  0.00     0.000 A 
ATOM     17  C   UNL d   1     -41.866-121.447 -55.812  0.00  0.00     0.000 A 
ATOM     18  C   UNL d   1     -41.484-121.773 -55.157  0.00  0.00     0.001 A 
ENDBRANCH  12  13
ENDBRANCH  11  12
ENDBRANCH  10  11
ENDBRANCH   3  10
TORSDOF 4
ENDMDL
