MODEL 1
REMARK VINA RESULT:      44.1      0.000      0.000
REMARK  4 active torsions:
REMARK  status: ('A' for Active; 'I' for Inactive)
REMARK    1  A    between atoms: C_5  and  N_1 
REMARK    2  A    between atoms: C_7  and  C_3 
REMARK    3  A    between atoms: C_10  and  C_4 
REMARK    4  A    between atoms: N_11  and  C_5 
ROOT
ATOM      1  N   UNL d   1     -55.129-101.969 -37.669  0.00  0.00    -0.203 N 
ATOM      2  N   UNL d   1     -55.112-102.360 -38.401  0.00  0.00    -0.163 NA
ATOM      3  C   UNL d   1     -54.969-101.171 -37.795  0.00  0.00     0.088 A 
ATOM      4  C   UNL d   1     -54.938-101.790 -38.987  0.00  0.00     0.103 A 
ATOM      5  C   UNL d   1     -54.851-101.060 -38.611  0.00  0.00     0.040 A 
ENDROOT
BRANCH   3   6
ATOM      6  C   UNL d   1     -54.924-100.556 -37.241  0.00  0.00     0.028 A 
ATOM      7  C   UNL d   1     -54.778 -99.794 -37.491  0.00  0.00     0.059 A 
ATOM      8 CL   UNL d   1     -54.723 -99.740 -37.966  0.00  0.00    -0.082 Cl
ATOM      9  C   UNL d   1     -54.731 -99.175 -36.944  0.00  0.00     0.011 A 
ATOM     10  C   UNL d   1     -54.832 -99.325 -36.145  0.00  0.00     0.001 A 
ATOM     11  C   UNL d   1     -54.980-100.104 -35.904  0.00  0.00     0.000 A 
ATOM     12  C   UNL d   1     -55.023-100.701 -36.449  0.00  0.00     0.002 A 
ENDBRANCH   3   6
BRANCH   1  13
ATOM     13  C   UNL d   1     -55.285-102.342 -36.926  0.00  0.00     0.222 C 
ATOM     14  S   UNL d   1     -55.973-102.800 -36.845  0.00  0.00    -0.037 SA
BRANCH  13  15
ATOM     15  N   UNL d   1     -54.754-102.244 -36.293  0.00  0.00    -0.214 NA
ATOM     16  C   UNL d   1     -54.882-102.667 -35.577  0.00  0.00     0.122 C 
ENDBRANCH  13  15
ENDBRANCH   1  13
BRANCH   4  17
ATOM     17  C   UNL d   1     -54.871-101.943 -39.782  0.00  0.00     0.019 A 
ATOM     18  C   UNL d   1     -54.831-101.312 -40.312  0.00  0.00     0.002 A 
ATOM     19  C   UNL d   1     -54.763-101.454 -41.122  0.00  0.00     0.000 A 
ATOM     20  C   UNL d   1     -54.733-102.226 -41.407  0.00  0.00     0.000 A 
ATOM     21  C   UNL d   1     -54.772-102.855 -40.885  0.00  0.00     0.000 A 
ATOM     22  C   UNL d   1     -54.841-102.713 -40.075  0.00  0.00     0.002 A 
ENDBRANCH   4  17
TORSDOF 4
ENDMDL
MODEL 2
REMARK VINA RESULT:      44.3      6.210      7.488
REMARK  4 active torsions:
REMARK  status: ('A' for Active; 'I' for Inactive)
REMARK    1  A    between atoms: C_5  and  N_1 
REMARK    2  A    between atoms: C_7  and  C_3 
REMARK    3  A    between atoms: C_10  and  C_4 
REMARK    4  A    between atoms: N_11  and  C_5 
ROOT
ATOM      1  N   UNL d   1     -55.917 -99.424 -44.353  0.00  0.00    -0.203 N 
ATOM      2  N   UNL d   1     -56.602 -98.955 -44.347  0.00  0.00    -0.163 NA
ATOM      3  C   UNL d   1     -56.142-100.215 -44.313  0.00  0.00     0.088 A 
ATOM      4  C   UNL d   1     -57.259 -99.470 -44.303  0.00  0.00     0.103 A 
ATOM      5  C   UNL d   1     -56.972-100.243 -44.282  0.00  0.00     0.040 A 
ENDROOT
BRANCH   3   6
ATOM      6  C   UNL d   1     -55.663-100.892 -44.303  0.00  0.00     0.028 A 
ATOM      7  C   UNL d   1     -55.636-101.381 -44.955  0.00  0.00     0.059 A 
ATOM      8 CL   UNL d   1     -55.911-101.244 -45.326  0.00  0.00    -0.082 Cl
ATOM      9  C   UNL d   1     -55.161-102.058 -44.952  0.00  0.00     0.011 A 
ATOM     10  C   UNL d   1     -54.712-102.242 -44.292  0.00  0.00     0.001 A 
ATOM     11  C   UNL d   1     -54.748-101.736 -43.635  0.00  0.00     0.000 A 
ATOM     12  C   UNL d   1     -55.217-101.077 -43.651  0.00  0.00     0.002 A 
ENDBRANCH   3   6
BRANCH   1  13
ATOM     13  C   UNL d   1     -55.127 -99.125 -44.392  0.00  0.00     0.222 C 
ATOM     14  S   UNL d   1     -54.767 -98.851 -43.696  0.00  0.00    -0.037 SA
BRANCH  13  15
ATOM     15  N   UNL d   1     -54.725 -99.109 -45.121  0.00  0.00    -0.214 NA
ATOM     16  C   UNL d   1     -55.103 -98.778 -45.796  0.00  0.00     0.122 C 
ENDBRANCH  13  15
ENDBRANCH   1  13
BRANCH   4  17
ATOM     17  C   UNL d   1     -58.036 -99.234 -44.285  0.00  0.00     0.019 A 
ATOM     18  C   UNL d   1     -58.452 -99.161 -44.994  0.00  0.00     0.002 A 
ATOM     19  C   UNL d   1     -59.242 -98.922 -44.989  0.00  0.00     0.000 A 
ATOM     20  C   UNL d   1     -59.620 -98.755 -44.277  0.00  0.00     0.000 A 
ATOM     21  C   UNL d   1     -59.213 -98.826 -43.572  0.00  0.00     0.000 A 
ATOM     22  C   UNL d   1     -58.422 -99.065 -43.576  0.00  0.00     0.002 A 
ENDBRANCH   4  17
TORSDOF 4
ENDMDL
