MODEL 1
REMARK VINA RESULT:      88.3      0.000      0.000
REMARK  3 active torsions:
REMARK  status: ('A' for Active; 'I' for Inactive)
REMARK    1  A    between atoms: C_6  and  N_1 
REMARK       I    between atoms: C_2  and  N_4 
REMARK    2  A    between atoms: C_5  and  C_2 
REMARK    3  A    between atoms: N_4  and  C_12 
ROOT
ATOM      1  C   UNL d   1      58.085  49.130  50.566  0.00  0.00     0.067 A 
ATOM      2  C   UNL d   1      58.292  48.329  50.539  0.00  0.00     0.019 A 
ATOM      3  C   UNL d   1      58.669  49.701  50.460  0.00  0.00     0.019 A 
ATOM      4  C   UNL d   1      59.658  48.673  50.300  0.00  0.00     0.085 A 
ATOM      5  C   UNL d   1      59.451  49.473  50.328  0.00  0.00     0.021 A 
ATOM      6  C   UNL d   1      59.066  48.103  50.408  0.00  0.00     0.021 A 
ENDROOT
BRANCH   4   7
ATOM      7  N   UNL d   1      60.431  48.448  50.170  0.00  0.00    -0.208 NA
ATOM      8  C   UNL d   1      60.665  47.671  50.312  0.00  0.00     0.279 C 
ATOM      9  O   UNL d   1      60.116  47.122  50.587  0.00  0.00    -0.265 OA
BRANCH   8  10
ATOM     10  C   UNL d   1      61.439  47.446  50.182  0.00  0.00     0.060 A 
ATOM     11  C   UNL d   1      61.600  46.732  49.791  0.00  0.00     0.034 A 
ATOM     12  C   UNL d   1      62.393  46.497  49.655  0.00  0.00     0.140 A 
ATOM     13  F   UNL d   1      62.557  45.790  49.268  0.00  0.00    -0.204 F 
ATOM     14  C   UNL d   1      63.011  46.989  49.916  0.00  0.00     0.030 A 
ATOM     15  C   UNL d   1      62.840  47.703  50.307  0.00  0.00     0.003 A 
ATOM     16  C   UNL d   1      62.057  47.927  50.437  0.00  0.00     0.005 A 
ENDBRANCH   8  10
ENDBRANCH   4   7
BRANCH   1  17
ATOM     17  N   UNL d   1      57.312  49.355  50.696  0.00  0.00    -0.273 N 
ATOM     18  C   UNL d   1      56.738  49.490  50.113  0.00  0.00     0.265 A 
ATOM     19  O   UNL d   1      56.843  49.422  49.292  0.00  0.00    -0.267 OA
ATOM     20  C   UNL d   1      56.033  49.707  50.485  0.00  0.00     0.063 A 
ATOM     21  C   UNL d   1      56.170  49.706  51.299  0.00  0.00     0.024 A 
ATOM     22  C   UNL d   1      56.952  49.491  51.429  0.00  0.00     0.083 A 
ENDBRANCH   1  17
TORSDOF 3
ENDMDL
MODEL 2
REMARK VINA RESULT:      88.4      2.833      5.459
REMARK  3 active torsions:
REMARK  status: ('A' for Active; 'I' for Inactive)
REMARK    1  A    between atoms: C_6  and  N_1 
REMARK       I    between atoms: C_2  and  N_4 
REMARK    2  A    between atoms: C_5  and  C_2 
REMARK    3  A    between atoms: N_4  and  C_12 
ROOT
ATOM      1  C   UNL d   1      61.670  44.481  50.536  0.00  0.00     0.067 A 
ATOM      2  C   UNL d   1      61.273  44.726  51.220  0.00  0.00     0.019 A 
ATOM      3  C   UNL d   1      61.753  45.007  49.908  0.00  0.00     0.019 A 
ATOM      4  C   UNL d   1      61.045  46.014  50.646  0.00  0.00     0.085 A 
ATOM      5  C   UNL d   1      61.442  45.769  49.963  0.00  0.00     0.021 A 
ATOM      6  C   UNL d   1      60.965  45.480  51.274  0.00  0.00     0.021 A 
ENDROOT
BRANCH   4   7
ATOM      7  N   UNL d   1      60.737  46.768  50.700  0.00  0.00    -0.208 NA
ATOM      8  C   UNL d   1      61.233  47.421  50.638  0.00  0.00     0.279 C 
ATOM      9  O   UNL d   1      62.042  47.313  50.521  0.00  0.00    -0.265 OA
BRANCH   8  10
ATOM     10  C   UNL d   1      60.925  48.176  50.692  0.00  0.00     0.060 A 
ATOM     11  C   UNL d   1      60.854  48.540  51.434  0.00  0.00     0.034 A 
ATOM     12  C   UNL d   1      60.538  49.314  51.494  0.00  0.00     0.140 A 
ATOM     13  F   UNL d   1      60.466  49.678  52.229  0.00  0.00    -0.204 F 
ATOM     14  C   UNL d   1      60.300  49.708  50.802  0.00  0.00     0.030 A 
ATOM     15  C   UNL d   1      60.375  49.336  50.062  0.00  0.00     0.003 A 
ATOM     16  C   UNL d   1      60.687  48.574  50.011  0.00  0.00     0.005 A 
ENDBRANCH   8  10
ENDBRANCH   4   7
BRANCH   1  17
ATOM     17  N   UNL d   1      61.978  43.727  50.482  0.00  0.00    -0.273 N 
ATOM     18  C   UNL d   1      61.986  43.159  51.087  0.00  0.00     0.265 A 
ATOM     19  O   UNL d   1      61.684  43.251  51.855  0.00  0.00    -0.267 OA
ATOM     20  C   UNL d   1      62.348  42.476  50.797  0.00  0.00     0.063 A 
ATOM     21  C   UNL d   1      62.564  42.620  50.014  0.00  0.00     0.024 A 
ATOM     22  C   UNL d   1      62.338  43.385  49.821  0.00  0.00     0.083 A 
ENDBRANCH   1  17
TORSDOF 3
ENDMDL
MODEL 3
REMARK VINA RESULT:      89.0      2.510      3.753
REMARK  3 active torsions:
REMARK  status: ('A' for Active; 'I' for Inactive)
REMARK    1  A    between atoms: C_6  and  N_1 
REMARK       I    between atoms: C_2  and  N_4 
REMARK    2  A    between atoms: C_5  and  C_2 
REMARK    3  A    between atoms: N_4  and  C_12 
ROOT
ATOM      1  C   UNL d   1      60.919  47.694  50.711  0.00  0.00     0.067 A 
ATOM      2  C   UNL d   1      61.579  47.477  50.261  0.00  0.00     0.019 A 
ATOM      3  C   UNL d   1      60.462  47.107  51.064  0.00  0.00     0.019 A 
ATOM      4  C   UNL d   1      61.321  46.095  50.520  0.00  0.00     0.085 A 
ATOM      5  C   UNL d   1      60.662  46.313  50.969  0.00  0.00     0.021 A 
ATOM      6  C   UNL d   1      61.778  46.690  50.167  0.00  0.00     0.021 A 
ENDROOT
BRANCH   4   7
ATOM      7  N   UNL d   1      61.519  45.309  50.426  0.00  0.00    -0.208 NA
ATOM      8  C   UNL d   1      61.671  45.009  49.675  0.00  0.00     0.279 C 
ATOM      9  O   UNL d   1      61.622  45.504  49.018  0.00  0.00    -0.265 OA
BRANCH   8  10
ATOM     10  C   UNL d   1      61.869  44.222  49.581  0.00  0.00     0.060 A 
ATOM     11  C   UNL d   1      62.387  43.860  50.119  0.00  0.00     0.034 A 
ATOM     12  C   UNL d   1      62.593  43.053  50.026  0.00  0.00     0.140 A 
ATOM     13  F   UNL d   1      63.107  42.691  50.557  0.00  0.00    -0.204 F 
ATOM     14  C   UNL d   1      62.271  42.624  49.390  0.00  0.00     0.030 A 
ATOM     15  C   UNL d   1      61.753  42.995  48.856  0.00  0.00     0.003 A 
ATOM     16  C   UNL d   1      61.555  43.790  48.954  0.00  0.00     0.005 A 
ENDBRANCH   8  10
ENDBRANCH   4   7
BRANCH   1  17
ATOM     17  N   UNL d   1      60.721  48.480  50.805  0.00  0.00    -0.273 N 
ATOM     18  C   UNL d   1      60.890  48.950  51.467  0.00  0.00     0.265 A 
ATOM     19  O   UNL d   1      61.290  48.709  52.154  0.00  0.00    -0.267 OA
ATOM     20  C   UNL d   1      60.592  49.708  51.332  0.00  0.00     0.063 A 
ATOM     21  C   UNL d   1      60.239  49.708  50.586  0.00  0.00     0.024 A 
ATOM     22  C   UNL d   1      60.317  48.957  50.264  0.00  0.00     0.083 A 
ENDBRANCH   1  17
TORSDOF 3
ENDMDL
