MODEL 1
REMARK VINA RESULT:      23.3      0.000      0.000
REMARK  2 active torsions:
REMARK  status: ('A' for Active; 'I' for Inactive)
REMARK    1  A    between atoms: C_6  and  N_1 
REMARK    2  A    between atoms: C_7  and  C_6 
ROOT
ATOM      1  N   UNL d   1     -51.680  25.306  33.316  0.00  0.00    -0.287 N 
ATOM      2  N   UNL d   1     -52.157  26.564  33.316  0.00  0.00    -0.224 NA
ATOM      3  C   UNL d   1     -52.362  25.780  33.307  0.00  0.00     0.183 A 
ATOM      4  C   UNL d   1     -51.022  25.815  33.332  0.00  0.00     0.083 A 
ATOM      5  C   UNL d   1     -51.325  26.614  33.332  0.00  0.00     0.099 A 
ATOM      6  C   UNL d   1     -50.219  25.709  33.346  0.00  0.00     0.019 A 
ATOM      7  C   UNL d   1     -50.793  27.225  33.346  0.00  0.00     0.021 A 
ATOM      8  C   UNL d   1     -49.711  26.311  33.360  0.00  0.00     0.002 A 
ATOM      9  C   UNL d   1     -50.014  27.111  33.360  0.00  0.00     0.002 A 
ENDROOT
BRANCH   1  10
ATOM     10  C   UNL d   1     -51.783  24.495  33.308  0.00  0.00     0.082 C 
BRANCH  10  11
ATOM     11  C   UNL d   1     -52.379  24.120  33.693  0.00  0.00     0.018 A 
ATOM     12  C   UNL d   1     -53.043  23.843  33.321  0.00  0.00     0.002 A 
ATOM     13  C   UNL d   1     -53.648  23.463  33.706  0.00  0.00     0.000 A 
ATOM     14  C   UNL d   1     -54.319  23.188  33.306  0.00  0.00     0.000 C 
ATOM     15  C   UNL d   1     -53.582  23.352  34.521  0.00  0.00     0.000 A 
ATOM     16  C   UNL d   1     -52.914  23.625  34.922  0.00  0.00     0.000 A 
ATOM     17  C   UNL d   1     -52.313  24.009  34.508  0.00  0.00     0.002 A 
ENDBRANCH  10  11
ENDBRANCH   1  10
TORSDOF 2
ENDMDL
