MODEL 1
REMARK VINA RESULT:      69.8      0.000      0.000
REMARK  8 active torsions:
REMARK  status: ('A' for Active; 'I' for Inactive)
REMARK    1  A    between atoms: C_7  and  C_1 
REMARK    2  A    between atoms: S_2  and  N_8 
REMARK    3  A    between atoms: C_11  and  S_2 
REMARK    4  A    between atoms: O_17  and  C_7 
REMARK    5  A    between atoms: N_8  and  C_13 
REMARK    6  A    between atoms: C_22  and  O_17 
REMARK    7  A    between atoms: O_19  and  C_23 
REMARK    8  A    between atoms: C_23  and  C_22 
ROOT
ATOM      1  C   UNL d   1     -55.685-101.222 -42.910  0.00  0.00     0.088 A 
ATOM      2  C   UNL d   1     -55.913-101.870 -43.363  0.00  0.00     0.105 A 
ATOM      3  C   UNL d   1     -55.460-101.492 -42.170  0.00  0.00     0.031 A 
ATOM      4  O   UNL d   1     -55.824-102.553 -42.889  0.00  0.00    -0.307 OA
ATOM      5  C   UNL d   1     -55.545-102.313 -42.157  0.00  0.00     0.100 A 
ATOM      6  C   UNL d   1     -55.185-101.095 -41.499  0.00  0.00     0.022 A 
ATOM      7  C   UNL d   1     -54.999-101.519 -40.823  0.00  0.00     0.094 A 
ATOM      8  C   UNL d   1     -55.356-102.736 -41.473  0.00  0.00     0.026 A 
ATOM      9  C   UNL d   1     -55.084-102.340 -40.810  0.00  0.00     0.022 A 
ATOM     10  C   UNL d   1     -56.182-101.901 -44.136  0.00  0.00     0.027 C 
ENDROOT
BRANCH   7  11
ATOM     11  N   UNL d   1     -54.711-101.092 -40.123  0.00  0.00    -0.158 NA
BRANCH  11  12
ATOM     12  S   UNL d   1     -54.832-101.398 -39.358  0.00  0.00     0.285 S 
ATOM     13  O   UNL d   1     -54.722-100.657 -39.010  0.00  0.00    -0.198 OA
ATOM     14  O   UNL d   1     -54.950-102.179 -39.689  0.00  0.00    -0.198 OA
BRANCH  12  15
ATOM     15  C   UNL d   1     -54.960-101.745 -38.594  0.00  0.00     0.105 A 
ATOM     16  C   UNL d   1     -55.280-102.507 -38.573  0.00  0.00     0.013 A 
ATOM     17  C   UNL d   1     -55.418-102.875 -37.848  0.00  0.00     0.001 A 
ATOM     18  C   UNL d   1     -55.236-102.482 -37.143  0.00  0.00     0.000 A 
ATOM     19  C   UNL d   1     -54.919-101.727 -37.169  0.00  0.00     0.001 A 
ATOM     20  C   UNL d   1     -54.781-101.358 -37.894  0.00  0.00     0.013 A 
ENDBRANCH  12  15
ENDBRANCH  11  12
ENDBRANCH   7  11
BRANCH   1  21
ATOM     21  C   UNL d   1     -55.702-100.435 -43.209  0.00  0.00     0.302 C 
ATOM     22  O   UNL d   1     -55.436 -99.793 -42.755  0.00  0.00    -0.259 OA
BRANCH  21  23
ATOM     23  O   UNL d   1     -55.994-100.305 -43.980  0.00  0.00    -0.269 OA
BRANCH  23  24
ATOM     24  C   UNL d   1     -55.907 -99.565 -44.349  0.00  0.00     0.152 C 
BRANCH  24  25
ATOM     25  C   UNL d   1     -56.484 -99.277 -44.862  0.00  0.00     0.143 C 
BRANCH  25  26
ATOM     26  O   UNL d   1     -57.284 -99.504 -44.800  0.00  0.00    -0.324 OA
ATOM     27  C   UNL d   1     -57.838 -98.951 -44.616  0.00  0.00     0.182 C 
ENDBRANCH  25  26
ENDBRANCH  24  25
ENDBRANCH  23  24
ENDBRANCH  21  23
ENDBRANCH   1  21
TORSDOF 8
ENDMDL
