MODEL 1
REMARK VINA RESULT:      -8.1      0.000      0.000
REMARK  4 active torsions:
REMARK  status: ('A' for Active; 'I' for Inactive)
REMARK    1  A    between atoms: C_9  and  N_1 
REMARK    2  A    between atoms: C_2  and  N_5 
REMARK    3  A    between atoms: N_5  and  O_12 
REMARK    4  A    between atoms: O_12  and  C_16 
ROOT
ATOM      1  N   UNL d   1     -48.320  13.470  22.426  0.00  0.00    -0.126 NA
ENDROOT
BRANCH   1   2
ATOM      2  C   UNL d   1     -49.010  13.919  22.362  0.00  0.00     0.108 A 
ATOM      3  C   UNL d   1     -49.737  13.534  22.217  0.00  0.00     0.023 A 
ATOM      4  C   UNL d   1     -50.409  13.971  22.154  0.00  0.00     0.044 A 
ATOM      5  C   UNL d   1     -49.771  12.666  22.135  0.00  0.00     0.002 C 
ATOM      6  C   UNL d   1     -50.375  14.807  22.234  0.00  0.00     0.196 A 
ATOM      7  C   UNL d   1     -49.657  15.159  22.374  0.00  0.00     0.044 A 
ATOM      8  O   UNL d   1     -51.064  15.256  22.170  0.00  0.00    -0.287 OA
ATOM      9  C   UNL d   1     -48.967  14.710  22.439  0.00  0.00     0.023 A 
ATOM     10  C   UNL d   1     -48.303  15.067  22.571  0.00  0.00     0.002 C 
ENDBRANCH   1   2
BRANCH   1  11
ATOM     11  O   UNL d   1     -47.968  13.342  23.147  0.00  0.00    -0.211 OA
BRANCH  11  12
ATOM     12  C   UNL d   1     -47.348  12.828  23.224  0.00  0.00     0.125 A 
ATOM     13  C   UNL d   1     -46.600  13.021  22.907  0.00  0.00     0.029 A 
ATOM     14  C   UNL d   1     -45.967  12.497  22.985  0.00  0.00     0.026 A 
ATOM     15  C   UNL d   1     -46.075  11.773  23.383  0.00  0.00     0.127 A 
ATOM     16  C   UNL d   1     -46.813  11.583  23.696  0.00  0.00     0.026 A 
ATOM     17  C   UNL d   1     -47.459  12.118  23.615  0.00  0.00     0.029 A 
BRANCH  15  18
ATOM     18  N   UNL d   1     -45.451  11.256  23.461  0.00  0.00    -0.114 N 
ATOM     19  O   UNL d   1     -44.660  11.433  23.314  0.00  0.00    -0.532 OA
ATOM     20  O   UNL d   1     -45.530  10.484  23.698  0.00  0.00    -0.532 OA
ENDBRANCH  15  18
ENDBRANCH  11  12
ENDBRANCH   1  11
TORSDOF 4
ENDMDL
MODEL 2
REMARK VINA RESULT:      -7.8      0.954      4.609
REMARK  4 active torsions:
REMARK  status: ('A' for Active; 'I' for Inactive)
REMARK    1  A    between atoms: C_9  and  N_1 
REMARK    2  A    between atoms: C_2  and  N_5 
REMARK    3  A    between atoms: N_5  and  O_12 
REMARK    4  A    between atoms: O_12  and  C_16 
ROOT
ATOM      1  N   UNL d   1     -47.642  12.955  22.805  0.00  0.00    -0.126 NA
ENDROOT
BRANCH   1   2
ATOM      2  C   UNL d   1     -46.997  12.491  23.029  0.00  0.00     0.108 A 
ATOM      3  C   UNL d   1     -47.127  11.795  23.472  0.00  0.00     0.023 A 
ATOM      4  C   UNL d   1     -46.498  11.344  23.690  0.00  0.00     0.044 A 
ATOM      5  C   UNL d   1     -47.935  11.558  23.698  0.00  0.00     0.002 C 
ATOM      6  C   UNL d   1     -45.720  11.573  23.472  0.00  0.00     0.196 A 
ATOM      7  C   UNL d   1     -45.618  12.254  23.041  0.00  0.00     0.044 A 
ATOM      8  O   UNL d   1     -45.075  11.110  23.697  0.00  0.00    -0.287 OA
ATOM      9  C   UNL d   1     -46.263  12.718  22.817  0.00  0.00     0.023 A 
ATOM     10  C   UNL d   1     -46.140  13.355  22.411  0.00  0.00     0.002 C 
ENDBRANCH   1   2
BRANCH   1  11
ATOM     11  O   UNL d   1     -47.859  13.608  23.235  0.00  0.00    -0.211 OA
BRANCH  11  12
ATOM     12  C   UNL d   1     -48.536  14.017  23.063  0.00  0.00     0.125 A 
ATOM     13  C   UNL d   1     -49.280  13.711  23.288  0.00  0.00     0.029 A 
ATOM     14  C   UNL d   1     -49.971  14.128  23.112  0.00  0.00     0.026 A 
ATOM     15  C   UNL d   1     -49.925  14.855  22.709  0.00  0.00     0.127 A 
ATOM     16  C   UNL d   1     -49.191  15.157  22.487  0.00  0.00     0.026 A 
ATOM     17  C   UNL d   1     -48.486  14.731  22.667  0.00  0.00     0.029 A 
BRANCH  15  18
ATOM     18  N   UNL d   1     -50.606  15.266  22.536  0.00  0.00    -0.114 N 
ATOM     19  O   UNL d   1     -50.940  15.860  22.999  0.00  0.00    -0.532 OA
ATOM     20  O   UNL d   1     -51.054  15.141  21.870  0.00  0.00    -0.532 OA
ENDBRANCH  15  18
ENDBRANCH  11  12
ENDBRANCH   1  11
TORSDOF 4
ENDMDL
MODEL 3
REMARK VINA RESULT:      -6.3      8.568      9.930
REMARK  4 active torsions:
REMARK  status: ('A' for Active; 'I' for Inactive)
REMARK    1  A    between atoms: C_9  and  N_1 
REMARK    2  A    between atoms: C_2  and  N_5 
REMARK    3  A    between atoms: N_5  and  O_12 
REMARK    4  A    between atoms: O_12  and  C_16 
ROOT
ATOM      1  N   UNL d   1     -39.385  14.496  20.158  0.00  0.00    -0.126 NA
ENDROOT
BRANCH   1   2
ATOM      2  C   UNL d   1     -39.093  14.107  20.824  0.00  0.00     0.108 A 
ATOM      3  C   UNL d   1     -38.377  13.679  20.768  0.00  0.00     0.023 A 
ATOM      4  C   UNL d   1     -38.092  13.300  21.417  0.00  0.00     0.044 A 
ATOM      5  C   UNL d   1     -37.940  13.643  20.013  0.00  0.00     0.002 C 
ATOM      6  C   UNL d   1     -38.514  13.335  22.143  0.00  0.00     0.196 A 
ATOM      7  C   UNL d   1     -39.208  13.756  22.173  0.00  0.00     0.044 A 
ATOM      8  O   UNL d   1     -38.222  12.945  22.809  0.00  0.00    -0.287 OA
ATOM      9  C   UNL d   1     -39.500  14.146  21.507  0.00  0.00     0.023 A 
ATOM     10  C   UNL d   1     -40.156  14.536  21.563  0.00  0.00     0.002 C 
ENDBRANCH   1   2
BRANCH   1  11
ATOM     11  O   UNL d   1     -40.004  14.190  19.730  0.00  0.00    -0.211 OA
BRANCH  11  12
ATOM     12  C   UNL d   1     -40.233  14.522  19.029  0.00  0.00     0.125 A 
ATOM     13  C   UNL d   1     -40.319  14.047  18.347  0.00  0.00     0.029 A 
ATOM     14  C   UNL d   1     -40.552  14.386  17.631  0.00  0.00     0.026 A 
ATOM     15  C   UNL d   1     -40.702  15.204  17.589  0.00  0.00     0.127 A 
ATOM     16  C   UNL d   1     -40.617  15.673  18.261  0.00  0.00     0.026 A 
ATOM     17  C   UNL d   1     -40.379  15.327  18.991  0.00  0.00     0.029 A 
BRANCH  15  18
ATOM     18  N   UNL d   1     -40.931  15.538  16.883  0.00  0.00    -0.114 N 
ATOM     19  O   UNL d   1     -41.697  15.540  16.579  0.00  0.00    -0.532 OA
ATOM     20  O   UNL d   1     -40.425  15.920  16.376  0.00  0.00    -0.532 OA
ENDBRANCH  15  18
ENDBRANCH  11  12
ENDBRANCH   1  11
TORSDOF 4
ENDMDL
MODEL 4
REMARK VINA RESULT:      -5.6      8.729     10.571
REMARK  4 active torsions:
REMARK  status: ('A' for Active; 'I' for Inactive)
REMARK    1  A    between atoms: C_9  and  N_1 
REMARK    2  A    between atoms: C_2  and  N_5 
REMARK    3  A    between atoms: N_5  and  O_12 
REMARK    4  A    between atoms: O_12  and  C_16 
ROOT
ATOM      1  N   UNL d   1     -38.942  14.652  17.787  0.00  0.00    -0.126 NA
ENDROOT
BRANCH   1   2
ATOM      2  C   UNL d   1     -38.690  14.361  17.058  0.00  0.00     0.108 A 
ATOM      3  C   UNL d   1     -38.435  13.568  16.999  0.00  0.00     0.023 A 
ATOM      4  C   UNL d   1     -38.190  13.284  16.287  0.00  0.00     0.044 A 
ATOM      5  C   UNL d   1     -38.434  13.049  17.700  0.00  0.00     0.002 C 
ATOM      6  C   UNL d   1     -38.191  13.785  15.612  0.00  0.00     0.196 A 
ATOM      7  C   UNL d   1     -38.443  14.552  15.694  0.00  0.00     0.044 A 
ATOM      8  O   UNL d   1     -37.940  13.494  14.883  0.00  0.00    -0.287 OA
ATOM      9  C   UNL d   1     -38.695  14.844  16.424  0.00  0.00     0.023 A 
ATOM     10  C   UNL d   1     -38.927  15.571  16.474  0.00  0.00     0.002 C 
ENDBRANCH   1   2
BRANCH   1  11
ATOM     11  O   UNL d   1     -39.731  14.750  17.951  0.00  0.00    -0.211 OA
BRANCH  11  12
ATOM     12  C   UNL d   1     -39.981  14.977  18.686  0.00  0.00     0.125 A 
ATOM     13  C   UNL d   1     -40.538  14.514  19.103  0.00  0.00     0.029 A 
ATOM     14  C   UNL d   1     -40.793  14.746  19.853  0.00  0.00     0.026 A 
ATOM     15  C   UNL d   1     -40.494  15.443  20.195  0.00  0.00     0.127 A 
ATOM     16  C   UNL d   1     -39.945  15.900  19.785  0.00  0.00     0.026 A 
ATOM     17  C   UNL d   1     -39.685  15.663  19.020  0.00  0.00     0.029 A 
BRANCH  15  18
ATOM     18  N   UNL d   1     -40.746  15.672  20.935  0.00  0.00    -0.114 N 
ATOM     19  O   UNL d   1     -40.280  15.699  21.613  0.00  0.00    -0.532 OA
ATOM     20  O   UNL d   1     -41.505  15.908  21.103  0.00  0.00    -0.532 OA
ENDBRANCH  15  18
ENDBRANCH  11  12
ENDBRANCH   1  11
TORSDOF 4
ENDMDL
