MODEL 1
REMARK VINA RESULT:      24.8      0.000      0.000
REMARK  4 active torsions:
REMARK  status: ('A' for Active; 'I' for Inactive)
REMARK    1  A    between atoms: C_9  and  N_1 
REMARK    2  A    between atoms: C_2  and  C_9 
REMARK    3  A    between atoms: S_13  and  C_5 
REMARK    4  A    between atoms: C_17  and  S_13 
ROOT
ATOM      1  N   UNL d   1      14.120  13.221  -1.728  0.00  0.00    -0.265 N 
ATOM      2  C   UNL d   1      14.181  12.462  -1.406  0.00  0.00     0.296 A 
ATOM      3  S   UNL d   1      14.648  12.516  -0.731  0.00  0.00    -0.025 SA
ATOM      4  C   UNL d   1      14.543  13.743  -1.260  0.00  0.00     0.074 A 
ATOM      5  C   UNL d   1      14.873  13.314  -0.641  0.00  0.00     0.050 A 
ATOM      6  O   UNL d   1      13.837  11.779  -1.708  0.00  0.00    -0.259 OA
ATOM      7  C   UNL d   1      14.677  14.560  -1.310  0.00  0.00     0.018 A 
ATOM      8  C   UNL d   1      15.335  13.694  -0.071  0.00  0.00     0.008 A 
ATOM      9  C   UNL d   1      15.138  14.943  -0.743  0.00  0.00     0.002 A 
ATOM     10  C   UNL d   1      15.466  14.499  -0.123  0.00  0.00     0.001 A 
ENDROOT
BRANCH   1  11
ATOM     11  C   UNL d   1      13.702  13.426  -2.409  0.00  0.00     0.123 C 
BRANCH  11  12
ATOM     12  C   UNL d   1      13.563  12.872  -2.991  0.00  0.00     0.189 A 
ATOM     13  N   UNL d   1      13.362  13.114  -3.746  0.00  0.00    -0.265 N 
ATOM     14  C   UNL d   1      13.256  12.442  -4.209  0.00  0.00     0.201 A 
ATOM     15  C   UNL d   1      13.277  13.890  -4.012  0.00  0.00     0.103 C 
ATOM     16  N   UNL d   1      13.393  11.783  -3.736  0.00  0.00    -0.121 NA
ATOM     17  N   UNL d   1      13.582  12.053  -2.983  0.00  0.00    -0.126 NA
BRANCH  14  18
ATOM     18  S   UNL d   1      13.050  12.427  -5.006  0.00  0.00    -0.048 SA
BRANCH  18  19
ATOM     19  C   UNL d   1      13.279  11.798  -5.487  0.00  0.00     0.038 C 
ATOM     20  C   UNL d   1      13.619  11.940  -6.226  0.00  0.00     0.008 C 
ENDBRANCH  18  19
ENDBRANCH  14  18
ENDBRANCH  11  12
ENDBRANCH   1  11
TORSDOF 4
ENDMDL
MODEL 2
REMARK VINA RESULT:      27.5      1.430      4.026
REMARK  4 active torsions:
REMARK  status: ('A' for Active; 'I' for Inactive)
REMARK    1  A    between atoms: C_9  and  N_1 
REMARK    2  A    between atoms: C_2  and  C_9 
REMARK    3  A    between atoms: S_13  and  C_5 
REMARK    4  A    between atoms: C_17  and  S_13 
ROOT
ATOM      1  N   UNL d   1      14.011  12.256  -1.935  0.00  0.00    -0.265 N 
ATOM      2  C   UNL d   1      13.347  11.960  -1.538  0.00  0.00     0.296 A 
ATOM      3  S   UNL d   1      12.780  11.779  -2.105  0.00  0.00    -0.025 SA
ATOM      4  C   UNL d   1      13.859  12.259  -2.739  0.00  0.00     0.074 A 
ATOM      5  C   UNL d   1      13.100  11.966  -2.852  0.00  0.00     0.050 A 
ATOM      6  O   UNL d   1      13.273  11.866  -0.725  0.00  0.00    -0.259 OA
ATOM      7  C   UNL d   1      14.312  12.492  -3.394  0.00  0.00     0.018 A 
ATOM      8  C   UNL d   1      12.787  11.902  -3.615  0.00  0.00     0.008 A 
ATOM      9  C   UNL d   1      14.004  12.430  -4.157  0.00  0.00     0.002 A 
ATOM     10  C   UNL d   1      13.235  12.132  -4.259  0.00  0.00     0.001 A 
ENDROOT
BRANCH   1  11
ATOM     11  C   UNL d   1      14.714  12.507  -1.583  0.00  0.00     0.123 C 
BRANCH  11  12
ATOM     12  C   UNL d   1      14.705  13.094  -1.016  0.00  0.00     0.189 A 
ATOM     13  N   UNL d   1      15.315  13.637  -0.981  0.00  0.00    -0.265 N 
ATOM     14  C   UNL d   1      15.158  14.156  -0.362  0.00  0.00     0.201 A 
ATOM     15  C   UNL d   1      15.977  13.673  -1.472  0.00  0.00     0.103 C 
ATOM     16  N   UNL d   1      14.449  13.930  -0.014  0.00  0.00    -0.121 NA
ATOM     17  N   UNL d   1      14.171  13.273  -0.421  0.00  0.00    -0.126 NA
BRANCH  14  18
ATOM     18  S   UNL d   1      15.628  14.791  -0.128  0.00  0.00    -0.048 SA
BRANCH  18  19
ATOM     19  C   UNL d   1      15.342  15.563  -0.172  0.00  0.00     0.038 C 
ATOM     20  C   UNL d   1      15.842  16.182  -0.392  0.00  0.00     0.008 C 
ENDBRANCH  18  19
ENDBRANCH  14  18
ENDBRANCH  11  12
ENDBRANCH   1  11
TORSDOF 4
ENDMDL
