MODEL 1
REMARK VINA RESULT:      66.0      0.000      0.000
REMARK  2 active torsions:
REMARK  status: ('A' for Active; 'I' for Inactive)
REMARK    1  A    between atoms: C_3  and  N_1 
REMARK    2  A    between atoms: C_12  and  C_9 
ROOT
ATOM      1  C   UNL d   1      59.077  49.404  50.424  0.00  0.00     0.187 A 
ATOM      2  N   UNL d   1      58.938  49.352  51.242  0.00  0.00    -0.129 NA
ATOM      3  N   UNL d   1      59.572  49.402  51.768  0.00  0.00    -0.147 NA
ATOM      4  C   UNL d   1      59.841  49.504  50.140  0.00  0.00     0.039 A 
ATOM      5  C   UNL d   1      60.344  49.503  51.476  0.00  0.00     0.103 A 
ATOM      6  C   UNL d   1      60.475  49.554  50.666  0.00  0.00     0.022 A 
ATOM      7  C   UNL d   1      59.976  49.555  49.326  0.00  0.00     0.003 A 
ATOM      8  C   UNL d   1      61.243  49.655  50.378  0.00  0.00     0.002 A 
ATOM      9  C   UNL d   1      61.373  49.706  49.569  0.00  0.00     0.000 A 
ATOM     10  C   UNL d   1      60.740  49.656  49.043  0.00  0.00     0.000 A 
ENDROOT
BRANCH   1  11
ATOM     11  N   UNL d   1      58.443  49.354  49.898  0.00  0.00    -0.191 N 
ATOM     12  N   UNL d   1      58.382  49.212  49.077  0.00  0.00    -0.058 NA
ATOM     13  N   UNL d   1      57.601  49.225  48.848  0.00  0.00    -0.129 NA
ATOM     14  C   UNL d   1      57.142  49.376  49.522  0.00  0.00     0.122 A 
ATOM     15  C   UNL d   1      57.666  49.457  50.177  0.00  0.00     0.105 A 
ATOM     16  C   UNL d   1      56.329  49.452  49.631  0.00  0.00     0.022 A 
ATOM     17  C   UNL d   1      57.356  49.611  50.923  0.00  0.00     0.021 A 
ATOM     18  C   UNL d   1      56.513  49.685  51.014  0.00  0.00     0.002 A 
ATOM     19  C   UNL d   1      56.038  49.600  50.356  0.00  0.00     0.002 A 
ENDBRANCH   1  11
BRANCH   5  20
ATOM     20  C   UNL d   1      60.978  49.553  52.002  0.00  0.00     0.020 A 
ATOM     21  C   UNL d   1      61.757  49.527  51.712  0.00  0.00     0.004 A 
ATOM     22  C   UNL d   1      62.390  49.577  52.238  0.00  0.00     0.030 A 
ATOM     23  C   UNL d   1      62.245  49.653  53.053  0.00  0.00     0.140 A 
ATOM     24  C   UNL d   1      61.473  49.679  53.334  0.00  0.00     0.030 A 
ATOM     25  F   UNL d   1      62.879  49.703  53.579  0.00  0.00    -0.204 F 
ATOM     26  C   UNL d   1      60.839  49.629  52.808  0.00  0.00     0.004 A 
ENDBRANCH   5  20
TORSDOF 2
ENDMDL
