MODEL 1
REMARK VINA RESULT:      -7.2      0.000      0.000
REMARK  4 active torsions:
REMARK  status: ('A' for Active; 'I' for Inactive)
REMARK    1  A    between atoms: C_8  and  C_1 
REMARK    2  A    between atoms: C_10  and  C_7 
REMARK    3  A    between atoms: N_9  and  C_10 
REMARK    4  A    between atoms: O_23  and  C_15 
ROOT
ATOM      1  C   UNL d   1      53.256  31.551  53.529  0.00  0.00     0.064 A 
ATOM      2  C   UNL d   1      52.959  33.174  53.403  0.00  0.00     0.107 A 
ATOM      3  C   UNL d   1      53.435  32.055  54.157  0.00  0.00     0.199 A 
ATOM      4  C   UNL d   1      53.287  32.869  54.098  0.00  0.00     0.062 A 
ATOM      5  C   UNL d   1      52.924  31.859  52.826  0.00  0.00     0.103 A 
ATOM      6  O   UNL d   1      52.775  32.676  52.764  0.00  0.00    -0.307 OA
ATOM      7  C   UNL d   1      52.810  33.984  53.337  0.00  0.00     0.079 A 
ATOM      8  C   UNL d   1      53.464  33.375  54.723  0.00  0.00     0.009 A 
ATOM      9  C   UNL d   1      52.988  34.479  53.962  0.00  0.00     0.199 A 
ATOM     10  O   UNL d   1      53.759  31.753  54.844  0.00  0.00    -0.286 OA
ATOM     11  C   UNL d   1      53.316  34.174  54.657  0.00  0.00     0.042 A 
ATOM     12  C   UNL d   1      52.745  31.355  52.198  0.00  0.00     0.027 C 
ATOM     13  O   UNL d   1      52.839  35.295  53.899  0.00  0.00    -0.286 OA
ENDROOT
BRANCH   1  14
ATOM     14  C   UNL d   1      53.405  30.742  53.595  0.00  0.00     0.027 A 
ATOM     15  C   UNL d   1      52.782  30.216  53.732  0.00  0.00     0.094 A 
ATOM     16  C   UNL d   1      52.940  29.410  53.797  0.00  0.00     0.024 A 
ATOM     17  C   UNL d   1      53.712  29.127  53.725  0.00  0.00     0.002 A 
ATOM     18  C   UNL d   1      54.332  29.656  53.588  0.00  0.00     0.000 A 
ATOM     19  C   UNL d   1      54.183  30.465  53.522  0.00  0.00     0.002 A 
BRANCH  15  20
ATOM     20  O   UNL d   1      52.011  30.499  53.804  0.00  0.00    -0.328 OA
ATOM     21  C   UNL d   1      51.386  29.967  53.908  0.00  0.00     0.181 C 
ENDBRANCH  15  20
ENDBRANCH   1  14
BRANCH   7  22
ATOM     22  C   UNL d   1      52.481  34.289  52.642  0.00  0.00     0.086 C 
BRANCH  22  23
ATOM     23  N   UNL d   1      51.664  34.365  52.570  0.00  0.00    -0.300 N 
ATOM     24  C   UNL d   1      51.303  34.244  51.838  0.00  0.00     0.100 A 
ATOM     25  C   UNL d   1      50.474  34.319  51.758  0.00  0.00     0.100 A 
ATOM     26  N   UNL d   1      50.021  34.515  52.412  0.00  0.00    -0.299 N 
ATOM     27  C   UNL d   1      50.393  34.636  53.151  0.00  0.00     0.100 A 
ATOM     28  C   UNL d   1      49.205  34.593  52.350  0.00  0.00     0.100 C 
ATOM     29  C   UNL d   1      51.211  34.560  53.224  0.00  0.00     0.100 A 
ENDBRANCH  22  23
ENDBRANCH   7  22
TORSDOF 4
ENDMDL
MODEL 2
REMARK VINA RESULT:      -6.8      1.675      4.477
REMARK  4 active torsions:
REMARK  status: ('A' for Active; 'I' for Inactive)
REMARK    1  A    between atoms: C_8  and  C_1 
REMARK    2  A    between atoms: C_10  and  C_7 
REMARK    3  A    between atoms: N_9  and  C_10 
REMARK    4  A    between atoms: O_23  and  C_15 
ROOT
ATOM      1  C   UNL d   1      51.214  33.780  52.978  0.00  0.00     0.064 A 
ATOM      2  C   UNL d   1      52.566  32.839  53.140  0.00  0.00     0.107 A 
ATOM      3  C   UNL d   1      51.143  32.961  53.047  0.00  0.00     0.199 A 
ATOM      4  C   UNL d   1      51.818  32.486  53.128  0.00  0.00     0.062 A 
ATOM      5  C   UNL d   1      51.970  34.137  52.990  0.00  0.00     0.103 A 
ATOM      6  O   UNL d   1      52.649  33.662  53.071  0.00  0.00    -0.307 OA
ATOM      7  C   UNL d   1      53.242  32.372  53.220  0.00  0.00     0.079 A 
ATOM      8  C   UNL d   1      51.751  31.668  53.197  0.00  0.00     0.009 A 
ATOM      9  C   UNL d   1      53.167  31.561  53.288  0.00  0.00     0.199 A 
ATOM     10  O   UNL d   1      50.403  32.612  53.036  0.00  0.00    -0.286 OA
ATOM     11  C   UNL d   1      52.419  31.208  53.277  0.00  0.00     0.042 A 
ATOM     12  C   UNL d   1      52.041  34.956  52.921  0.00  0.00     0.027 C 
ATOM     13  O   UNL d   1      53.846  31.088  53.369  0.00  0.00    -0.286 OA
ENDROOT
BRANCH   1  14
ATOM     14  C   UNL d   1      50.538  34.246  52.898  0.00  0.00     0.027 A 
ATOM     15  C   UNL d   1      50.230  34.403  52.146  0.00  0.00     0.094 A 
ATOM     16  C   UNL d   1      49.555  34.870  52.075  0.00  0.00     0.024 A 
ATOM     17  C   UNL d   1      49.187  35.179  52.746  0.00  0.00     0.002 A 
ATOM     18  C   UNL d   1      49.498  35.021  53.495  0.00  0.00     0.000 A 
ATOM     19  C   UNL d   1      50.174  34.555  53.576  0.00  0.00     0.002 A 
BRANCH  15  20
ATOM     20  O   UNL d   1      50.598  34.092  51.476  0.00  0.00    -0.328 OA
ATOM     21  C   UNL d   1      50.297  34.266  50.726  0.00  0.00     0.181 C 
ENDBRANCH  15  20
ENDBRANCH   1  14
BRANCH   7  22
ATOM     22  C   UNL d   1      53.990  32.725  53.231  0.00  0.00     0.086 C 
BRANCH  22  23
ATOM     23  N   UNL d   1      54.317  32.977  53.945  0.00  0.00    -0.300 N 
ATOM     24  C   UNL d   1      54.887  33.573  53.947  0.00  0.00     0.100 A 
ATOM     25  C   UNL d   1      55.223  33.834  54.667  0.00  0.00     0.100 A 
ATOM     26  N   UNL d   1      54.982  33.494  55.372  0.00  0.00    -0.299 N 
ATOM     27  C   UNL d   1      54.403  32.890  55.363  0.00  0.00     0.100 A 
ATOM     28  C   UNL d   1      55.302  33.739  56.089  0.00  0.00     0.100 C 
ATOM     29  C   UNL d   1      54.076  32.637  54.650  0.00  0.00     0.100 A 
ENDBRANCH  22  23
ENDBRANCH   7  22
TORSDOF 4
ENDMDL
MODEL 3
REMARK VINA RESULT:      -5.9      1.847      3.050
REMARK  4 active torsions:
REMARK  status: ('A' for Active; 'I' for Inactive)
REMARK    1  A    between atoms: C_8  and  C_1 
REMARK    2  A    between atoms: C_10  and  C_7 
REMARK    3  A    between atoms: N_9  and  C_10 
REMARK    4  A    between atoms: O_23  and  C_15 
ROOT
ATOM      1  C   UNL d   1      53.059  33.796  54.073  0.00  0.00     0.064 A 
ATOM      2  C   UNL d   1      51.646  33.847  53.212  0.00  0.00     0.107 A 
ATOM      3  C   UNL d   1      52.613  33.110  53.967  0.00  0.00     0.199 A 
ATOM      4  C   UNL d   1      51.904  33.132  53.536  0.00  0.00     0.062 A 
ATOM      5  C   UNL d   1      52.798  34.519  53.745  0.00  0.00     0.103 A 
ATOM      6  O   UNL d   1      52.087  34.544  53.312  0.00  0.00    -0.307 OA
ATOM      7  C   UNL d   1      50.942  33.876  52.782  0.00  0.00     0.079 A 
ATOM      8  C   UNL d   1      51.456  32.449  53.428  0.00  0.00     0.009 A 
ATOM      9  C   UNL d   1      50.503  33.194  52.680  0.00  0.00     0.199 A 
ATOM     10  O   UNL d   1      52.868  32.402  54.288  0.00  0.00    -0.286 OA
ATOM     11  C   UNL d   1      50.761  32.479  53.004  0.00  0.00     0.042 A 
ATOM     12  C   UNL d   1      53.244  35.205  53.851  0.00  0.00     0.027 C 
ATOM     13  O   UNL d   1      49.793  33.220  52.247  0.00  0.00    -0.286 OA
ENDROOT
BRANCH   1  14
ATOM     14  C   UNL d   1      53.762  33.766  54.502  0.00  0.00     0.027 A 
ATOM     15  C   UNL d   1      54.458  33.503  54.141  0.00  0.00     0.094 A 
ATOM     16  C   UNL d   1      55.157  33.477  54.577  0.00  0.00     0.024 A 
ATOM     17  C   UNL d   1      55.165  33.711  55.368  0.00  0.00     0.002 A 
ATOM     18  C   UNL d   1      54.468  33.974  55.726  0.00  0.00     0.000 A 
ATOM     19  C   UNL d   1      53.764  34.003  55.297  0.00  0.00     0.002 A 
BRANCH  15  20
ATOM     20  O   UNL d   1      54.449  33.270  53.350  0.00  0.00    -0.328 OA
ATOM     21  C   UNL d   1      55.141  32.982  52.999  0.00  0.00     0.181 C 
ENDBRANCH  15  20
ENDBRANCH   1  14
BRANCH   7  22
ATOM     22  C   UNL d   1      50.684  34.592  52.457  0.00  0.00     0.086 C 
BRANCH  22  23
ATOM     23  N   UNL d   1      49.968  34.920  52.698  0.00  0.00    -0.300 N 
ATOM     24  C   UNL d   1      49.350  35.001  52.158  0.00  0.00     0.100 A 
ATOM     25  C   UNL d   1      48.621  35.333  52.396  0.00  0.00     0.100 A 
ATOM     26  N   UNL d   1      48.522  35.579  53.171  0.00  0.00    -0.299 N 
ATOM     27  C   UNL d   1      49.152  35.495  53.714  0.00  0.00     0.100 A 
ATOM     28  C   UNL d   1      47.811  35.908  53.421  0.00  0.00     0.100 C 
ATOM     29  C   UNL d   1      49.869  35.166  53.473  0.00  0.00     0.100 A 
ENDBRANCH  22  23
ENDBRANCH   7  22
TORSDOF 4
ENDMDL
MODEL 4
REMARK VINA RESULT:      -5.6      1.630      4.345
REMARK  4 active torsions:
REMARK  status: ('A' for Active; 'I' for Inactive)
REMARK    1  A    between atoms: C_8  and  C_1 
REMARK    2  A    between atoms: C_10  and  C_7 
REMARK    3  A    between atoms: N_9  and  C_10 
REMARK    4  A    between atoms: O_23  and  C_15 
ROOT
ATOM      1  C   UNL d   1      51.503  33.631  53.099  0.00  0.00     0.064 A 
ATOM      2  C   UNL d   1      52.901  32.753  53.206  0.00  0.00     0.107 A 
ATOM      3  C   UNL d   1      52.180  33.969  53.428  0.00  0.00     0.199 A 
ATOM      4  C   UNL d   1      52.883  33.531  53.483  0.00  0.00     0.062 A 
ATOM      5  C   UNL d   1      51.521  32.844  52.819  0.00  0.00     0.103 A 
ATOM      6  O   UNL d   1      52.225  32.403  52.873  0.00  0.00    -0.307 OA
ATOM      7  C   UNL d   1      53.598  32.312  53.258  0.00  0.00     0.079 A 
ATOM      8  C   UNL d   1      53.561  33.865  53.811  0.00  0.00     0.009 A 
ATOM      9  C   UNL d   1      54.266  32.650  53.585  0.00  0.00     0.199 A 
ATOM     10  O   UNL d   1      52.161  34.739  53.702  0.00  0.00    -0.286 OA
ATOM     11  C   UNL d   1      54.247  33.429  53.862  0.00  0.00     0.042 A 
ATOM     12  C   UNL d   1      50.844  32.506  52.490  0.00  0.00     0.027 C 
ATOM     13  O   UNL d   1      54.969  32.209  53.639  0.00  0.00    -0.286 OA
ENDROOT
BRANCH   1  14
ATOM     14  C   UNL d   1      50.807  34.072  53.047  0.00  0.00     0.027 A 
ATOM     15  C   UNL d   1      50.581  34.405  52.325  0.00  0.00     0.094 A 
ATOM     16  C   UNL d   1      49.884  34.844  52.282  0.00  0.00     0.024 A 
ATOM     17  C   UNL d   1      49.415  34.951  52.952  0.00  0.00     0.002 A 
ATOM     18  C   UNL d   1      49.644  34.617  53.672  0.00  0.00     0.000 A 
ATOM     19  C   UNL d   1      50.340  34.176  53.725  0.00  0.00     0.002 A 
BRANCH  15  20
ATOM     20  O   UNL d   1      51.050  34.297  51.655  0.00  0.00    -0.328 OA
ATOM     21  C   UNL d   1      50.785  34.566  50.920  0.00  0.00     0.181 C 
ENDBRANCH  15  20
ENDBRANCH   1  14
BRANCH   7  22
ATOM     22  C   UNL d   1      53.616  31.533  52.981  0.00  0.00     0.086 C 
BRANCH  22  23
ATOM     23  N   UNL d   1      53.494  30.906  53.502  0.00  0.00    -0.300 N 
ATOM     24  C   UNL d   1      53.229  30.180  53.215  0.00  0.00     0.100 A 
ATOM     25  C   UNL d   1      53.103  29.540  53.738  0.00  0.00     0.100 A 
ATOM     26  N   UNL d   1      53.244  29.638  54.539  0.00  0.00    -0.299 N 
ATOM     27  C   UNL d   1      53.513  30.376  54.823  0.00  0.00     0.100 A 
ATOM     28  C   UNL d   1      53.126  29.018  55.066  0.00  0.00     0.100 C 
ATOM     29  C   UNL d   1      53.636  31.004  54.302  0.00  0.00     0.100 A 
ENDBRANCH  22  23
ENDBRANCH   7  22
TORSDOF 4
ENDMDL
MODEL 5
REMARK VINA RESULT:      -5.2      2.530      4.790
REMARK  4 active torsions:
REMARK  status: ('A' for Active; 'I' for Inactive)
REMARK    1  A    between atoms: C_8  and  C_1 
REMARK    2  A    between atoms: C_10  and  C_7 
REMARK    3  A    between atoms: N_9  and  C_10 
REMARK    4  A    between atoms: O_23  and  C_15 
ROOT
ATOM      1  C   UNL d   1      50.259  34.222  52.765  0.00  0.00     0.064 A 
ATOM      2  C   UNL d   1      48.980  35.233  52.479  0.00  0.00     0.107 A 
ATOM      3  C   UNL d   1      49.837  34.167  52.058  0.00  0.00     0.199 A 
ATOM      4  C   UNL d   1      49.195  34.672  51.912  0.00  0.00     0.062 A 
ATOM      5  C   UNL d   1      50.042  34.790  53.339  0.00  0.00     0.103 A 
ATOM      6  O   UNL d   1      49.398  35.298  53.194  0.00  0.00    -0.307 OA
ATOM      7  C   UNL d   1      48.343  35.739  52.339  0.00  0.00     0.079 A 
ATOM      8  C   UNL d   1      48.771  34.619  51.207  0.00  0.00     0.009 A 
ATOM      9  C   UNL d   1      47.927  35.680  51.638  0.00  0.00     0.199 A 
ATOM     10  O   UNL d   1      50.050  33.611  51.497  0.00  0.00    -0.286 OA
ATOM     11  C   UNL d   1      48.142  35.118  51.071  0.00  0.00     0.042 A 
ATOM     12  C   UNL d   1      50.464  34.846  54.045  0.00  0.00     0.027 C 
ATOM     13  O   UNL d   1      47.284  36.188  51.494  0.00  0.00    -0.286 OA
ENDROOT
BRANCH   1  14
ATOM     14  C   UNL d   1      50.896  33.717  52.904  0.00  0.00     0.027 A 
ATOM     15  C   UNL d   1      51.665  33.959  52.717  0.00  0.00     0.094 A 
ATOM     16  C   UNL d   1      52.296  33.448  52.859  0.00  0.00     0.024 A 
ATOM     17  C   UNL d   1      52.164  32.701  53.186  0.00  0.00     0.002 A 
ATOM     18  C   UNL d   1      51.395  32.464  53.372  0.00  0.00     0.000 A 
ATOM     19  C   UNL d   1      50.757  32.968  53.232  0.00  0.00     0.002 A 
BRANCH  15  20
ATOM     20  O   UNL d   1      51.796  34.705  52.391  0.00  0.00    -0.328 OA
ATOM     21  C   UNL d   1      52.567  34.950  52.221  0.00  0.00     0.181 C 
ENDBRANCH  15  20
ENDBRANCH   1  14
BRANCH   7  22
ATOM     22  C   UNL d   1      48.128  36.300  52.907  0.00  0.00     0.086 C 
BRANCH  22  23
ATOM     23  N   UNL d   1      47.467  36.174  53.383  0.00  0.00    -0.300 N 
ATOM     24  C   UNL d   1      47.553  36.137  54.203  0.00  0.00     0.100 A 
ATOM     25  C   UNL d   1      46.886  36.010  54.692  0.00  0.00     0.100 A 
ATOM     26  N   UNL d   1      46.146  35.922  54.352  0.00  0.00    -0.299 N 
ATOM     27  C   UNL d   1      46.066  35.960  53.521  0.00  0.00     0.100 A 
ATOM     28  C   UNL d   1      45.481  35.796  54.819  0.00  0.00     0.100 C 
ATOM     29  C   UNL d   1      46.727  36.086  53.044  0.00  0.00     0.100 A 
ENDBRANCH  22  23
ENDBRANCH   7  22
TORSDOF 4
ENDMDL
MODEL 6
REMARK VINA RESULT:      -4.8      1.295      2.277
REMARK  4 active torsions:
REMARK  status: ('A' for Active; 'I' for Inactive)
REMARK    1  A    between atoms: C_8  and  C_1 
REMARK    2  A    between atoms: C_10  and  C_7 
REMARK    3  A    between atoms: N_9  and  C_10 
REMARK    4  A    between atoms: O_23  and  C_15 
ROOT
ATOM      1  C   UNL d   1      52.700  31.509  53.211  0.00  0.00     0.064 A 
ATOM      2  C   UNL d   1      52.134  33.046  52.979  0.00  0.00     0.107 A 
ATOM      3  C   UNL d   1      51.890  31.659  53.235  0.00  0.00     0.199 A 
ATOM      4  C   UNL d   1      51.602  32.429  53.119  0.00  0.00     0.062 A 
ATOM      5  C   UNL d   1      53.238  32.133  53.070  0.00  0.00     0.103 A 
ATOM      6  O   UNL d   1      52.952  32.906  52.953  0.00  0.00    -0.307 OA
ATOM      7  C   UNL d   1      51.854  33.814  52.862  0.00  0.00     0.079 A 
ATOM      8  C   UNL d   1      50.793  32.583  53.142  0.00  0.00     0.009 A 
ATOM      9  C   UNL d   1      51.050  33.959  52.887  0.00  0.00     0.199 A 
ATOM     10  O   UNL d   1      51.364  31.049  53.374  0.00  0.00    -0.286 OA
ATOM     11  C   UNL d   1      50.518  33.342  53.027  0.00  0.00     0.042 A 
ATOM     12  C   UNL d   1      54.049  31.983  53.046  0.00  0.00     0.027 C 
ATOM     13  O   UNL d   1      50.764  34.732  52.770  0.00  0.00    -0.286 OA
ENDROOT
BRANCH   1  14
ATOM     14  C   UNL d   1      52.980  30.742  53.328  0.00  0.00     0.027 A 
ATOM     15  C   UNL d   1      53.259  30.511  54.071  0.00  0.00     0.094 A 
ATOM     16  C   UNL d   1      53.537  29.742  54.179  0.00  0.00     0.024 A 
ATOM     17  C   UNL d   1      53.537  29.205  53.552  0.00  0.00     0.002 A 
ATOM     18  C   UNL d   1      53.257  29.439  52.811  0.00  0.00     0.000 A 
ATOM     19  C   UNL d   1      52.977  30.207  52.694  0.00  0.00     0.002 A 
BRANCH  15  20
ATOM     20  O   UNL d   1      53.259  31.048  54.697  0.00  0.00    -0.328 OA
ATOM     21  C   UNL d   1      53.530  30.810  55.442  0.00  0.00     0.181 C 
ENDBRANCH  15  20
ENDBRANCH   1  14
BRANCH   7  22
ATOM     22  C   UNL d   1      52.386  34.432  52.722  0.00  0.00     0.086 C 
BRANCH  22  23
ATOM     23  N   UNL d   1      52.642  34.905  53.346  0.00  0.00    -0.300 N 
ATOM     24  C   UNL d   1      53.422  35.174  53.363  0.00  0.00     0.100 A 
ATOM     25  C   UNL d   1      53.689  35.655  53.993  0.00  0.00     0.100 A 
ATOM     26  N   UNL d   1      53.171  35.858  54.595  0.00  0.00    -0.299 N 
ATOM     27  C   UNL d   1      52.382  35.582  54.571  0.00  0.00     0.100 A 
ATOM     28  C   UNL d   1      53.418  36.330  55.221  0.00  0.00     0.100 C 
ATOM     29  C   UNL d   1      52.125  35.108  53.947  0.00  0.00     0.100 A 
ENDBRANCH  22  23
ENDBRANCH   7  22
TORSDOF 4
ENDMDL
