MODEL 1
REMARK VINA RESULT:      -3.9      0.000      0.000
REMARK  7 active torsions:
REMARK  status: ('A' for Active; 'I' for Inactive)
REMARK    1  A    between atoms: N_7  and  C_1 
REMARK    2  A    between atoms: N_8  and  C_4 
REMARK    3  A    between atoms: N_9  and  C_5 
REMARK    4  A    between atoms: C_14  and  N_8 
REMARK    5  A    between atoms: C_13  and  N_9 
REMARK    6  A    between atoms: C_20  and  C_14 
REMARK    7  A    between atoms: O_21  and  C_15 
ROOT
ATOM      1  C   UNL d   1      59.864  -0.532  29.413  0.00  0.00     0.201 A 
ATOM      2  N   UNL d   1      58.487  -0.687  29.571  0.00  0.00    -0.038 NA
ATOM      3  N   UNL d   1      59.108   0.520  30.056  0.00  0.00    -0.036 NA
ATOM      4  C   UNL d   1      59.192  -0.997  29.300  0.00  0.00     0.206 A 
ATOM      5  C   UNL d   1      58.445   0.074  29.951  0.00  0.00     0.753 A 
ATOM      6  C   UNL d   1      59.822   0.230  29.793  0.00  0.00     0.227 A 
ATOM      7  N   UNL d   1      60.499   0.682  29.898  0.00  0.00    -0.125 N 
ENDROOT
BRANCH   5   8
ATOM      8  N   UNL d   1      57.732   0.370  30.217  0.00  0.00    -0.059 NA
BRANCH   8   9
ATOM      9  C   UNL d   1      57.403   0.101  30.955  0.00  0.00     0.100 A 
ATOM     10  C   UNL d   1      57.354   0.612  31.609  0.00  0.00     0.022 A 
ATOM     11  C   UNL d   1      57.029   0.352  32.340  0.00  0.00     0.026 A 
ATOM     12  C   UNL d   1      56.747  -0.422  32.437  0.00  0.00     0.094 A 
ATOM     13  C   UNL d   1      56.800  -0.922  31.784  0.00  0.00     0.026 A 
ATOM     14  C   UNL d   1      57.128  -0.658  31.043  0.00  0.00     0.022 A 
BRANCH  12  15
ATOM     15  O   UNL d   1      56.421  -0.684  33.173  0.00  0.00    -0.328 OA
ATOM     16  C   UNL d   1      55.610  -0.748  33.278  0.00  0.00     0.181 C 
ENDBRANCH  12  15
ENDBRANCH   8   9
ENDBRANCH   5   8
BRANCH   4  17
ATOM     17  N   UNL d   1      59.238  -1.730  28.933  0.00  0.00    -0.223 NA
BRANCH  17  18
ATOM     18  C   UNL d   1      58.627  -2.270  29.032  0.00  0.00     0.101 C 
BRANCH  18  19
ATOM     19  C   UNL d   1      58.744  -3.058  28.840  0.00  0.00     0.019 A 
ATOM     20  C   UNL d   1      58.100  -3.566  28.768  0.00  0.00     0.002 A 
ATOM     21  C   UNL d   1      58.216  -4.345  28.578  0.00  0.00     0.000 A 
ATOM     22  C   UNL d   1      58.978  -4.631  28.456  0.00  0.00     0.000 A 
ATOM     23  C   UNL d   1      59.624  -4.134  28.526  0.00  0.00     0.000 A 
ATOM     24  C   UNL d   1      59.505  -3.335  28.721  0.00  0.00     0.002 A 
ENDBRANCH  18  19
ENDBRANCH  17  18
ENDBRANCH   4  17
BRANCH   1  25
ATOM     25  N   UNL d   1      60.598  -0.839  29.138  0.00  0.00    -0.107 N 
ATOM     26  O   UNL d   1      60.917  -0.490  28.455  0.00  0.00    -0.531 OA
ATOM     27  O   UNL d   1      60.989  -1.480  29.549  0.00  0.00    -0.531 OA
ENDBRANCH   1  25
TORSDOF 7
ENDMDL
MODEL 2
REMARK VINA RESULT:      -1.6      2.636      5.662
REMARK  7 active torsions:
REMARK  status: ('A' for Active; 'I' for Inactive)
REMARK    1  A    between atoms: N_7  and  C_1 
REMARK    2  A    between atoms: N_8  and  C_4 
REMARK    3  A    between atoms: N_9  and  C_5 
REMARK    4  A    between atoms: C_14  and  N_8 
REMARK    5  A    between atoms: C_13  and  N_9 
REMARK    6  A    between atoms: C_20  and  C_14 
REMARK    7  A    between atoms: O_21  and  C_15 
ROOT
ATOM      1  C   UNL d   1      56.509  -1.014  32.394  0.00  0.00     0.201 A 
ATOM      2  N   UNL d   1      56.712   0.329  32.078  0.00  0.00    -0.038 NA
ATOM      3  N   UNL d   1      57.045  -0.671  31.095  0.00  0.00    -0.036 NA
ATOM      4  C   UNL d   1      56.463  -0.224  32.625  0.00  0.00     0.206 A 
ATOM      5  C   UNL d   1      57.004   0.104  31.310  0.00  0.00     0.753 A 
ATOM      6  C   UNL d   1      56.801  -1.238  31.626  0.00  0.00     0.227 A 
ATOM      7  N   UNL d   1      56.841  -2.030  31.409  0.00  0.00    -0.125 N 
ENDROOT
BRANCH   5   8
ATOM      8  N   UNL d   1      57.250   0.670  30.774  0.00  0.00    -0.059 NA
BRANCH   8   9
ATOM      9  C   UNL d   1      58.032   0.636  30.440  0.00  0.00     0.100 A 
ATOM     10  C   UNL d   1      58.701   0.593  30.932  0.00  0.00     0.022 A 
ATOM     11  C   UNL d   1      59.477   0.559  30.608  0.00  0.00     0.026 A 
ATOM     12  C   UNL d   1      59.604   0.567  29.789  0.00  0.00     0.094 A 
ATOM     13  C   UNL d   1      58.934   0.609  29.308  0.00  0.00     0.026 A 
ATOM     14  C   UNL d   1      58.149   0.643  29.637  0.00  0.00     0.022 A 
BRANCH  12  15
ATOM     15  O   UNL d   1      60.384   0.532  29.462  0.00  0.00    -0.328 OA
ATOM     16  C   UNL d   1      61.011   0.232  29.895  0.00  0.00     0.181 C 
ENDBRANCH  12  15
ENDBRANCH   8   9
ENDBRANCH   5   8
BRANCH   4  17
ATOM     17  N   UNL d   1      56.181  -0.012  33.367  0.00  0.00    -0.223 NA
BRANCH  17  18
ATOM     18  C   UNL d   1      55.673   0.628  33.438  0.00  0.00     0.101 C 
BRANCH  18  19
ATOM     19  C   UNL d   1      55.122   0.646  34.045  0.00  0.00     0.019 A 
ATOM     20  C   UNL d   1      55.371   0.664  34.829  0.00  0.00     0.002 A 
ATOM     21  C   UNL d   1      54.827   0.681  35.428  0.00  0.00     0.000 A 
ATOM     22  C   UNL d   1      54.022   0.682  35.256  0.00  0.00     0.000 A 
ATOM     23  C   UNL d   1      53.765   0.664  34.480  0.00  0.00     0.000 A 
ATOM     24  C   UNL d   1      54.324   0.646  33.865  0.00  0.00     0.002 A 
ENDBRANCH  18  19
ENDBRANCH  17  18
ENDBRANCH   4  17
BRANCH   1  25
ATOM     25  N   UNL d   1      56.256  -1.595  32.948  0.00  0.00    -0.107 N 
ATOM     26  O   UNL d   1      55.566  -2.016  32.759  0.00  0.00    -0.531 OA
ATOM     27  O   UNL d   1      56.696  -1.738  33.669  0.00  0.00    -0.531 OA
ENDBRANCH   1  25
TORSDOF 7
ENDMDL
