MODEL 1
REMARK VINA RESULT:      54.1      0.000      0.000
REMARK  6 active torsions:
REMARK  status: ('A' for Active; 'I' for Inactive)
REMARK    1  A    between atoms: S_12  and  C_1 
REMARK    2  A    between atoms: C_2  and  S_11 
REMARK    3  A    between atoms: S_11  and  C_15 
REMARK    4  A    between atoms: C_16  and  S_12 
REMARK    5  A    between atoms: C_13  and  C_16 
REMARK    6  A    between atoms: C_15  and  C_13 
ROOT
ATOM      1  C   UNL d   1      60.983  49.219  51.619  0.00  0.00     0.209 C 
ATOM      2  O   UNL d   1      61.583  49.684  51.966  0.00  0.00    -0.285 OA
ENDROOT
BRANCH   1   3
ATOM      3  C   UNL d   1      61.153  48.441  51.381  0.00  0.00     0.080 C 
BRANCH   3   4
ATOM      4  S   UNL d   1      60.879  48.150  50.656  0.00  0.00    -0.058 SA
BRANCH   4   5
ATOM      5  C   UNL d   1      61.150  47.429  50.366  0.00  0.00     0.141 A 
ATOM      6  N   UNL d   1      61.701  47.317  49.753  0.00  0.00    -0.232 NA
ATOM      7  C   UNL d   1      61.807  46.504  49.649  0.00  0.00     0.088 A 
ATOM      8  C   UNL d   1      62.281  46.075  49.127  0.00  0.00     0.020 A 
ATOM      9  C   UNL d   1      61.323  46.102  50.196  0.00  0.00     0.049 A 
ATOM     10  C   UNL d   1      62.281  45.251  49.142  0.00  0.00     0.002 A 
ATOM     11  C   UNL d   1      61.797  44.849  49.689  0.00  0.00     0.001 A 
ATOM     12  C   UNL d   1      61.321  45.280  50.213  0.00  0.00     0.008 A 
ATOM     13  S   UNL d   1      60.917  46.671  50.640  0.00  0.00    -0.060 SA
ENDBRANCH   4   5
ENDBRANCH   3   4
ENDBRANCH   1   3
BRANCH   1  14
ATOM     14  C   UNL d   1      60.229  49.533  51.515  0.00  0.00     0.080 C 
BRANCH  14  15
ATOM     15  S   UNL d   1      59.946  49.703  50.756  0.00  0.00    -0.058 SA
BRANCH  15  16
ATOM     16  C   UNL d   1      59.137  49.698  50.601  0.00  0.00     0.141 A 
ATOM     17  N   UNL d   1      58.780  49.686  49.848  0.00  0.00    -0.232 NA
ATOM     18  C   UNL d   1      57.953  49.686  49.958  0.00  0.00     0.088 A 
ATOM     19  C   UNL d   1      57.332  49.676  49.424  0.00  0.00     0.020 A 
ATOM     20  C   UNL d   1      57.800  49.698  50.768  0.00  0.00     0.049 A 
ATOM     21  C   UNL d   1      56.551  49.679  49.689  0.00  0.00     0.002 A 
ATOM     22  C   UNL d   1      56.398  49.691  50.511  0.00  0.00     0.001 A 
ATOM     23  C   UNL d   1      57.023  49.700  51.048  0.00  0.00     0.008 A 
ATOM     24  S   UNL d   1      58.533  49.706  51.170  0.00  0.00    -0.060 SA
ENDBRANCH  15  16
ENDBRANCH  14  15
ENDBRANCH   1  14
TORSDOF 6
ENDMDL
