MODEL 1
REMARK VINA RESULT:      -5.1      0.000      0.000
REMARK  2 active torsions:
REMARK  status: ('A' for Active; 'I' for Inactive)
REMARK    1  A    between atoms: S_2  and  N_1 
REMARK    2  A    between atoms: C_8  and  S_2 
ROOT
ATOM      1  S   UNL d   1      57.374   0.041  31.200  0.00  0.00     0.273 S 
ATOM      2  O   UNL d   1      57.051  -0.594  30.794  0.00  0.00    -0.200 OA
ATOM      3  O   UNL d   1      57.705   0.682  31.601  0.00  0.00    -0.200 OA
ENDROOT
BRANCH   1   4
ATOM      4  N   UNL d   1      57.891   0.159  30.568  0.00  0.00    -0.207 N 
ATOM      5  C   UNL d   1      57.541   0.494  29.895  0.00  0.00     0.148 A 
ATOM      6  N   UNL d   1      57.903   0.682  29.170  0.00  0.00    -0.198 NA
ATOM      7  C   UNL d   1      58.676   0.586  28.946  0.00  0.00     0.066 A 
ATOM      8  C   UNL d   1      58.316   0.282  29.977  0.00  0.00     0.169 A 
ATOM      9  C   UNL d   1      59.301   0.278  29.377  0.00  0.00     0.066 A 
ATOM     10  N   UNL d   1      59.300  -0.013  30.151  0.00  0.00    -0.198 NA
ATOM     11  C   UNL d   1      58.672  -0.064  30.677  0.00  0.00     0.148 A 
ENDBRANCH   1   4
BRANCH   1  12
ATOM     12  C   UNL d   1      56.854  -0.083  31.827  0.00  0.00     0.104 A 
ATOM     13  C   UNL d   1      56.550   0.560  32.245  0.00  0.00     0.014 A 
ATOM     14  C   UNL d   1      56.030   0.436  32.872  0.00  0.00     0.012 A 
ATOM     15  C   UNL d   1      55.813  -0.331  33.081  0.00  0.00     0.058 A 
ATOM     16  C   UNL d   1      56.116  -0.975  32.664  0.00  0.00     0.012 A 
ATOM     17 CL   UNL d   1      55.292  -0.446  33.710  0.00  0.00    -0.082 Cl
ATOM     18  C   UNL d   1      56.636  -0.851  32.037  0.00  0.00     0.014 A 
ENDBRANCH   1  12
TORSDOF 2
ENDMDL
MODEL 2
REMARK VINA RESULT:      -4.8      1.263      1.769
REMARK  2 active torsions:
REMARK  status: ('A' for Active; 'I' for Inactive)
REMARK    1  A    between atoms: S_2  and  N_1 
REMARK    2  A    between atoms: C_8  and  S_2 
ROOT
ATOM      1  S   UNL d   1      56.605   0.085  32.450  0.00  0.00     0.273 S 
ATOM      2  O   UNL d   1      57.013  -0.509  32.842  0.00  0.00    -0.200 OA
ATOM      3  O   UNL d   1      56.199   0.681  32.049  0.00  0.00    -0.200 OA
ENDROOT
BRANCH   1   4
ATOM      4  N   UNL d   1      57.058  -0.070  31.779  0.00  0.00    -0.207 N 
ATOM      5  C   UNL d   1      57.512   0.572  31.515  0.00  0.00     0.148 A 
ATOM      6  N   UNL d   1      58.025   0.600  30.860  0.00  0.00    -0.198 NA
ATOM      7  C   UNL d   1      58.205   0.018  30.328  0.00  0.00     0.066 A 
ATOM      8  C   UNL d   1      57.481  -0.163  31.181  0.00  0.00     0.169 A 
ATOM      9  C   UNL d   1      57.927  -0.753  30.296  0.00  0.00     0.066 A 
ATOM     10  N   UNL d   1      57.393  -1.129  30.802  0.00  0.00    -0.198 NA
ATOM     11  C   UNL d   1      57.008  -0.823  31.460  0.00  0.00     0.148 A 
ENDBRANCH   1   4
BRANCH   1  12
ATOM     12  C   UNL d   1      56.156   0.233  33.125  0.00  0.00     0.104 A 
ATOM     13  C   UNL d   1      56.519   0.523  33.807  0.00  0.00     0.014 A 
ATOM     14  C   UNL d   1      56.070   0.672  34.482  0.00  0.00     0.012 A 
ATOM     15  C   UNL d   1      55.258   0.531  34.476  0.00  0.00     0.058 A 
ATOM     16  C   UNL d   1      54.894   0.241  33.795  0.00  0.00     0.012 A 
ATOM     17 CL   UNL d   1      54.816   0.682  35.156  0.00  0.00    -0.082 Cl
ATOM     18  C   UNL d   1      55.342   0.092  33.120  0.00  0.00     0.014 A 
ENDBRANCH   1  12
TORSDOF 2
ENDMDL
MODEL 3
REMARK VINA RESULT:      -4.7      1.972      3.703
REMARK  2 active torsions:
REMARK  status: ('A' for Active; 'I' for Inactive)
REMARK    1  A    between atoms: S_2  and  N_1 
REMARK    2  A    between atoms: C_8  and  S_2 
ROOT
ATOM      1  S   UNL d   1      57.308   0.083  31.585  0.00  0.00     0.273 S 
ATOM      2  O   UNL d   1      57.747   0.418  32.191  0.00  0.00    -0.200 OA
ATOM      3  O   UNL d   1      56.859  -0.255  30.981  0.00  0.00    -0.200 OA
ENDROOT
BRANCH   1   4
ATOM      4  N   UNL d   1      56.697  -0.049  32.124  0.00  0.00    -0.207 N 
ATOM      5  C   UNL d   1      56.589  -0.844  32.333  0.00  0.00     0.148 A 
ATOM      6  N   UNL d   1      56.028  -1.163  32.858  0.00  0.00    -0.198 NA
ATOM      7  C   UNL d   1      55.457  -0.782  33.288  0.00  0.00     0.066 A 
ATOM      8  C   UNL d   1      56.162  -0.215  32.605  0.00  0.00     0.169 A 
ATOM      9  C   UNL d   1      55.285   0.019  33.317  0.00  0.00     0.066 A 
ATOM     10  N   UNL d   1      55.653   0.640  32.913  0.00  0.00    -0.198 NA
ATOM     11  C   UNL d   1      56.280   0.606  32.384  0.00  0.00     0.148 A 
ENDBRANCH   1   4
BRANCH   1  12
ATOM     12  C   UNL d   1      57.922   0.219  31.053  0.00  0.00     0.104 A 
ATOM     13  C   UNL d   1      58.632   0.546  31.316  0.00  0.00     0.014 A 
ATOM     14  C   UNL d   1      59.246   0.682  30.784  0.00  0.00     0.012 A 
ATOM     15  C   UNL d   1      59.152   0.490  29.988  0.00  0.00     0.058 A 
ATOM     16  C   UNL d   1      58.442   0.163  29.723  0.00  0.00     0.012 A 
ATOM     17 CL   UNL d   1      59.772   0.629  29.462  0.00  0.00    -0.082 Cl
ATOM     18  C   UNL d   1      57.828   0.027  30.255  0.00  0.00     0.014 A 
ENDBRANCH   1  12
TORSDOF 2
ENDMDL
MODEL 4
REMARK VINA RESULT:      -4.7      2.379      3.998
REMARK  2 active torsions:
REMARK  status: ('A' for Active; 'I' for Inactive)
REMARK    1  A    between atoms: S_2  and  N_1 
REMARK    2  A    between atoms: C_8  and  S_2 
ROOT
ATOM      1  S   UNL d   1      56.452   0.023  32.608  0.00  0.00     0.273 S 
ATOM      2  O   UNL d   1      56.767  -0.630  32.991  0.00  0.00    -0.200 OA
ATOM      3  O   UNL d   1      56.130   0.682  32.229  0.00  0.00    -0.200 OA
ENDROOT
BRANCH   1   4
ATOM      4  N   UNL d   1      56.019   0.192  33.289  0.00  0.00    -0.207 N 
ATOM      5  C   UNL d   1      55.204   0.051  33.222  0.00  0.00     0.148 A 
ATOM      6  N   UNL d   1      54.617   0.163  33.801  0.00  0.00    -0.198 NA
ATOM      7  C   UNL d   1      54.694   0.432  34.561  0.00  0.00     0.066 A 
ATOM      8  C   UNL d   1      55.590   0.329  33.875  0.00  0.00     0.169 A 
ATOM      9  C   UNL d   1      55.373   0.664  34.957  0.00  0.00     0.066 A 
ATOM     10  N   UNL d   1      56.151   0.682  34.678  0.00  0.00    -0.198 NA
ATOM     11  C   UNL d   1      56.434   0.472  33.937  0.00  0.00     0.148 A 
ENDBRANCH   1   4
BRANCH   1  12
ATOM     12  C   UNL d   1      56.888  -0.152  31.931  0.00  0.00     0.104 A 
ATOM     13  C   UNL d   1      56.955  -0.933  31.674  0.00  0.00     0.014 A 
ATOM     14  C   UNL d   1      57.391  -1.109  30.997  0.00  0.00     0.012 A 
ATOM     15  C   UNL d   1      57.761  -0.504  30.577  0.00  0.00     0.058 A 
ATOM     16  C   UNL d   1      57.696   0.278  30.834  0.00  0.00     0.012 A 
ATOM     17 CL   UNL d   1      58.196  -0.688  29.901  0.00  0.00    -0.082 Cl
ATOM     18  C   UNL d   1      57.259   0.453  31.510  0.00  0.00     0.014 A 
ENDBRANCH   1  12
TORSDOF 2
ENDMDL
