MODEL 1
REMARK VINA RESULT:      60.8      0.000      0.000
REMARK  6 active torsions:
REMARK  status: ('A' for Active; 'I' for Inactive)
REMARK    1  A    between atoms: N_2  and  S_1 
REMARK    2  A    between atoms: C_6  and  S_1 
REMARK    3  A    between atoms: C_3  and  N_2 
REMARK       I    between atoms: C_7  and  N_13 
REMARK    4  A    between atoms: C_10  and  C_7 
REMARK    5  A    between atoms: C_12  and  C_10 
REMARK    6  A    between atoms: C_11  and  C_12 
ROOT
ATOM      1  C   UNL d   1     -55.344-102.290 -40.195  0.00  0.00     0.105 A 
ATOM      2  C   UNL d   1     -54.902-100.959 -43.267  0.00  0.00     0.280 C 
ATOM      3  N   UNL d   1     -54.767-101.712 -42.955  0.00  0.00    -0.208 NA
ATOM      4  O   UNL d   1     -54.739-100.790 -44.054  0.00  0.00    -0.265 OA
ATOM      5  C   UNL d   1     -55.042-102.880 -40.675  0.00  0.00     0.015 A 
ATOM      6  C   UNL d   1     -55.484-101.544 -40.480  0.00  0.00     0.015 A 
ATOM      7  C   UNL d   1     -55.012-101.965 -41.773  0.00  0.00     0.085 A 
ATOM      8  C   UNL d   1     -54.874-102.717 -41.473  0.00  0.00     0.020 A 
ATOM      9  C   UNL d   1     -55.317-101.378 -41.277  0.00  0.00     0.020 A 
ENDROOT
BRANCH   1  10
ATOM     10  S   UNL d   1     -55.515-102.466 -39.372  0.00  0.00     0.285 S 
ATOM     11  O   UNL d   1     -54.711-102.529 -39.209  0.00  0.00    -0.198 OA
ATOM     12  O   UNL d   1     -56.338-102.400 -39.547  0.00  0.00    -0.198 OA
BRANCH  10  13
ATOM     13  N   UNL d   1     -55.703-102.638 -38.568  0.00  0.00    -0.158 NA
BRANCH  13  14
ATOM     14  C   UNL d   1     -55.468-102.123 -37.974  0.00  0.00     0.094 A 
ATOM     15  C   UNL d   1     -54.980-101.489 -38.152  0.00  0.00     0.018 A 
ATOM     16  C   UNL d   1     -54.753-100.982 -37.546  0.00  0.00     0.002 A 
ATOM     17  C   UNL d   1     -54.717-101.364 -38.957  0.00  0.00     0.002 C 
ATOM     18  C   UNL d   1     -55.005-101.107 -36.795  0.00  0.00     0.000 A 
ATOM     19  C   UNL d   1     -55.496-101.740 -36.597  0.00  0.00     0.002 A 
ATOM     20  C   UNL d   1     -54.756-100.569 -36.190  0.00  0.00     0.000 C 
ATOM     21  C   UNL d   1     -55.729-102.250 -37.186  0.00  0.00     0.018 A 
ATOM     22  C   UNL d   1     -56.219-102.880 -36.985  0.00  0.00     0.002 C 
ENDBRANCH  13  14
ENDBRANCH  10  13
ENDBRANCH   1  10
BRANCH   2  23
ATOM     23  C   UNL d   1     -55.210-100.375 -42.760  0.00  0.00     0.069 C 
BRANCH  23  24
ATOM     24  C   UNL d   1     -55.327 -99.600 -43.063  0.00  0.00     0.075 C 
BRANCH  24  25
ATOM     25  C   UNL d   1     -55.850 -99.480 -43.687  0.00  0.00     0.211 C 
ATOM     26  O   UNL d   1     -55.872-100.002 -44.346  0.00  0.00    -0.644 OA
ATOM     27  O   UNL d   1     -56.374 -98.838 -43.683  0.00  0.00    -0.644 OA
ENDBRANCH  24  25
ENDBRANCH  23  24
ENDBRANCH   2  23
TORSDOF 6
ENDMDL
