MODEL 1
REMARK VINA RESULT:      -8.8      0.000      0.000
REMARK  3 active torsions:
REMARK  status: ('A' for Active; 'I' for Inactive)
REMARK    1  A    between atoms: C_4  and  C_1 
REMARK    2  A    between atoms: N_7  and  C_4 
REMARK    3  A    between atoms: C_9  and  N_7 
ROOT
ATOM      1  C   UNL d   1      52.916  32.526  53.136  0.00  0.00     0.171 C 
ATOM      2  S   UNL d   1      53.466  32.752  53.723  0.00  0.00    -0.054 SA
ENDROOT
BRANCH   1   3
ATOM      3  C   UNL d   1      52.266  33.002  52.974  0.00  0.00     0.191 A 
ATOM      4  N   UNL d   1      51.679  33.226  53.518  0.00  0.00    -0.223 NA
ATOM      5  C   UNL d   1      51.135  33.704  53.120  0.00  0.00     0.101 A 
ATOM      6  C   UNL d   1      50.445  34.081  53.377  0.00  0.00     0.021 A 
ATOM      7  C   UNL d   1      51.383  33.775  52.334  0.00  0.00     0.101 A 
ATOM      8  C   UNL d   1      50.008  34.530  52.839  0.00  0.00     0.002 A 
ATOM      9  C   UNL d   1      50.256  34.602  52.054  0.00  0.00     0.002 A 
ATOM     10  C   UNL d   1      50.942  34.225  51.803  0.00  0.00     0.021 A 
ATOM     11  N   UNL d   1      52.079  33.341  52.252  0.00  0.00    -0.223 NA
ENDBRANCH   1   3
BRANCH   1  12
ATOM     12  N   UNL d   1      53.033  31.822  52.723  0.00  0.00    -0.232 NA
BRANCH  12  13
ATOM     13  C   UNL d   1      53.119  31.106  53.127  0.00  0.00     0.082 A 
ATOM     14  C   UNL d   1      52.621  30.470  52.947  0.00  0.00     0.019 A 
ATOM     15  C   UNL d   1      52.706  29.757  53.349  0.00  0.00     0.002 A 
ATOM     16  C   UNL d   1      53.291  29.674  53.936  0.00  0.00     0.000 A 
ATOM     17  C   UNL d   1      53.785  30.316  54.109  0.00  0.00     0.002 A 
ATOM     18  C   UNL d   1      53.377  28.962  54.338  0.00  0.00     0.000 C 
ATOM     19  C   UNL d   1      53.696  31.027  53.705  0.00  0.00     0.019 A 
ENDBRANCH  12  13
ENDBRANCH   1  12
TORSDOF 3
ENDMDL
MODEL 2
REMARK VINA RESULT:      -8.5      1.596      4.319
REMARK  3 active torsions:
REMARK  status: ('A' for Active; 'I' for Inactive)
REMARK    1  A    between atoms: C_4  and  C_1 
REMARK    2  A    between atoms: N_7  and  C_4 
REMARK    3  A    between atoms: C_9  and  N_7 
ROOT
ATOM      1  C   UNL d   1      53.475  32.590  53.379  0.00  0.00     0.171 C 
ATOM      2  S   UNL d   1      54.252  32.895  53.339  0.00  0.00    -0.054 SA
ENDROOT
BRANCH   1   3
ATOM      3  C   UNL d   1      53.352  31.779  53.430  0.00  0.00     0.191 A 
ATOM      4  N   UNL d   1      52.873  31.327  52.923  0.00  0.00    -0.223 NA
ATOM      5  C   UNL d   1      52.911  30.541  53.176  0.00  0.00     0.101 A 
ATOM      6  C   UNL d   1      52.551  29.854  52.886  0.00  0.00     0.021 A 
ATOM      7  C   UNL d   1      53.410  30.506  53.835  0.00  0.00     0.101 A 
ATOM      8  C   UNL d   1      52.698  29.135  53.264  0.00  0.00     0.002 A 
ATOM      9  C   UNL d   1      53.196  29.100  53.923  0.00  0.00     0.002 A 
ATOM     10  C   UNL d   1      53.551  29.784  54.206  0.00  0.00     0.021 A 
ATOM     11  N   UNL d   1      53.677  31.272  53.985  0.00  0.00    -0.223 NA
ENDBRANCH   1   3
BRANCH   1  12
ATOM     12  N   UNL d   1      52.836  33.112  53.367  0.00  0.00    -0.232 NA
BRANCH  12  13
ATOM     13  C   UNL d   1      52.901  33.863  53.704  0.00  0.00     0.082 A 
ATOM     14  C   UNL d   1      52.820  34.535  53.226  0.00  0.00     0.019 A 
ATOM     15  C   UNL d   1      52.884  35.284  53.561  0.00  0.00     0.002 A 
ATOM     16  C   UNL d   1      53.030  35.369  54.377  0.00  0.00     0.000 A 
ATOM     17  C   UNL d   1      53.110  34.691  54.846  0.00  0.00     0.002 A 
ATOM     18  C   UNL d   1      53.095  36.117  54.711  0.00  0.00     0.000 C 
ATOM     19  C   UNL d   1      53.045  33.943  54.507  0.00  0.00     0.019 A 
ENDBRANCH  12  13
ENDBRANCH   1  12
TORSDOF 3
ENDMDL
MODEL 3
REMARK VINA RESULT:      -8.5      2.088      4.502
REMARK  3 active torsions:
REMARK  status: ('A' for Active; 'I' for Inactive)
REMARK    1  A    between atoms: C_4  and  C_1 
REMARK    2  A    between atoms: N_7  and  C_4 
REMARK    3  A    between atoms: C_9  and  N_7 
ROOT
ATOM      1  C   UNL d   1      51.707  33.637  53.307  0.00  0.00     0.171 C 
ATOM      2  S   UNL d   1      51.170  32.996  53.306  0.00  0.00    -0.054 SA
ENDROOT
BRANCH   1   3
ATOM      3  C   UNL d   1      52.456  33.548  53.633  0.00  0.00     0.191 A 
ATOM      4  N   UNL d   1      53.084  33.121  53.298  0.00  0.00    -0.223 NA
ATOM      5  C   UNL d   1      53.730  33.179  53.811  0.00  0.00     0.101 A 
ATOM      6  C   UNL d   1      54.496  32.868  53.766  0.00  0.00     0.021 A 
ATOM      7  C   UNL d   1      53.503  33.638  54.460  0.00  0.00     0.101 A 
ATOM      8  C   UNL d   1      55.029  33.024  54.376  0.00  0.00     0.002 A 
ATOM      9  C   UNL d   1      54.802  33.484  55.025  0.00  0.00     0.002 A 
ATOM     10  C   UNL d   1      54.041  33.790  55.065  0.00  0.00     0.021 A 
ATOM     11  N   UNL d   1      52.718  33.862  54.343  0.00  0.00    -0.223 NA
ENDBRANCH   1   3
BRANCH   1  12
ATOM     12  N   UNL d   1      51.475  34.357  52.977  0.00  0.00    -0.232 NA
BRANCH  12  13
ATOM     13  C   UNL d   1      50.777  34.414  52.539  0.00  0.00     0.082 A 
ATOM     14  C   UNL d   1      50.076  34.647  52.913  0.00  0.00     0.019 A 
ATOM     15  C   UNL d   1      49.380  34.703  52.476  0.00  0.00     0.002 A 
ATOM     16  C   UNL d   1      49.380  34.528  51.662  0.00  0.00     0.000 A 
ATOM     17  C   UNL d   1      50.086  34.296  51.298  0.00  0.00     0.002 A 
ATOM     18  C   UNL d   1      48.685  34.584  51.227  0.00  0.00     0.000 C 
ATOM     19  C   UNL d   1      50.780  34.241  51.738  0.00  0.00     0.019 A 
ENDBRANCH  12  13
ENDBRANCH   1  12
TORSDOF 3
ENDMDL
MODEL 4
REMARK VINA RESULT:      -7.9      2.163      2.688
REMARK  3 active torsions:
REMARK  status: ('A' for Active; 'I' for Inactive)
REMARK    1  A    between atoms: C_4  and  C_1 
REMARK    2  A    between atoms: N_7  and  C_4 
REMARK    3  A    between atoms: C_9  and  N_7 
ROOT
ATOM      1  C   UNL d   1      52.005  33.548  53.052  0.00  0.00     0.171 C 
ATOM      2  S   UNL d   1      52.040  32.754  53.311  0.00  0.00    -0.054 SA
ENDROOT
BRANCH   1   3
ATOM      3  C   UNL d   1      51.299  33.859  52.770  0.00  0.00     0.191 A 
ATOM      4  N   UNL d   1      51.049  33.858  51.978  0.00  0.00    -0.223 NA
ATOM      5  C   UNL d   1      50.310  34.227  51.947  0.00  0.00     0.101 A 
ATOM      6  C   UNL d   1      49.801  34.382  51.312  0.00  0.00     0.021 A 
ATOM      7  C   UNL d   1      50.103  34.455  52.714  0.00  0.00     0.101 A 
ATOM      8  C   UNL d   1      49.085  34.767  51.457  0.00  0.00     0.002 A 
ATOM      9  C   UNL d   1      48.879  34.995  52.224  0.00  0.00     0.002 A 
ATOM     10  C   UNL d   1      49.387  34.838  52.850  0.00  0.00     0.021 A 
ATOM     11  N   UNL d   1      50.716  34.225  53.216  0.00  0.00    -0.223 NA
ENDBRANCH   1   3
BRANCH   1  12
ATOM     12  N   UNL d   1      52.686  34.012  53.084  0.00  0.00    -0.232 NA
BRANCH  12  13
ATOM     13  C   UNL d   1      53.260  33.877  53.662  0.00  0.00     0.082 A 
ATOM     14  C   UNL d   1      53.833  33.292  53.543  0.00  0.00     0.019 A 
ATOM     15  C   UNL d   1      54.406  33.157  54.119  0.00  0.00     0.002 A 
ATOM     16  C   UNL d   1      54.410  33.607  54.820  0.00  0.00     0.000 A 
ATOM     17  C   UNL d   1      53.833  34.191  54.930  0.00  0.00     0.002 A 
ATOM     18  C   UNL d   1      54.982  33.473  55.395  0.00  0.00     0.000 C 
ATOM     19  C   UNL d   1      53.262  34.322  54.352  0.00  0.00     0.019 A 
ENDBRANCH  12  13
ENDBRANCH   1  12
TORSDOF 3
ENDMDL
