MODEL 1
REMARK VINA RESULT:      -3.2      0.000      0.000
REMARK  4 active torsions:
REMARK  status: ('A' for Active; 'I' for Inactive)
REMARK    1  A    between atoms: N_2  and  C_1 
REMARK       I    between atoms: C_3  and  N_2 
REMARK    2  A    between atoms: C_6  and  C_3 
REMARK    3  A    between atoms: C_11  and  C_7 
REMARK    4  A    between atoms: C_10  and  C_11 
ROOT
ATOM      1  C   UNL d   1      33.015  19.418 -22.687  0.00  0.00     0.197 A 
ATOM      2  N   UNL d   1      33.241  19.618 -23.435  0.00  0.00    -0.219 NA
ATOM      3  S   UNL d   1      32.864  18.598 -22.669  0.00  0.00    -0.047 SA
ATOM      4  C   UNL d   1      33.006  18.310 -23.428  0.00  0.00     0.051 A 
ATOM      5  C   UNL d   1      33.239  18.927 -23.912  0.00  0.00     0.108 A 
ENDROOT
BRANCH   1   6
ATOM      6  N   UNL d   1      32.945  19.948 -22.044  0.00  0.00    -0.182 NA
ATOM      7  C   UNL d   1      33.051  20.753 -22.148  0.00  0.00     0.287 C 
ATOM      8  O   UNL d   1      33.226  21.032 -22.890  0.00  0.00    -0.265 OA
BRANCH   7   9
ATOM      9  C   UNL d   1      32.983  21.262 -21.524  0.00  0.00     0.087 A 
ATOM     10  S   UNL d   1      32.899  22.053 -21.654  0.00  0.00    -0.082 SA
ATOM     11  C   UNL d   1      32.844  22.423 -20.906  0.00  0.00     0.036 A 
ATOM     12  C   UNL d   1      32.893  21.878 -20.350  0.00  0.00     0.008 A 
ATOM     13  C   UNL d   1      32.982  21.132 -20.708  0.00  0.00     0.012 A 
ENDBRANCH   7   9
ENDBRANCH   1   6
BRANCH   4  14
ATOM     14  C   UNL d   1      32.958  17.570 -23.758  0.00  0.00     0.009 C 
BRANCH  14  15
ATOM     15  C   UNL d   1      32.211  17.192 -23.823  0.00  0.00     0.011 A 
ATOM     16  C   UNL d   1      32.133  16.404 -23.606  0.00  0.00     0.058 A 
ATOM     17 CL   UNL d   1      32.785  15.973 -23.323  0.00  0.00    -0.082 Cl
ATOM     18  C   UNL d   1      31.383  16.023 -23.670  0.00  0.00     0.011 A 
ATOM     19  C   UNL d   1      30.739  16.426 -23.944  0.00  0.00     0.001 A 
ATOM     20  C   UNL d   1      30.802  17.222 -24.166  0.00  0.00     0.000 A 
ATOM     21  C   UNL d   1      31.550  17.600 -24.102  0.00  0.00     0.001 A 
ENDBRANCH  14  15
ENDBRANCH   4  14
TORSDOF 4
ENDMDL
MODEL 2
REMARK VINA RESULT:      -3.2      0.967      1.222
REMARK  4 active torsions:
REMARK  status: ('A' for Active; 'I' for Inactive)
REMARK    1  A    between atoms: N_2  and  C_1 
REMARK       I    between atoms: C_3  and  N_2 
REMARK    2  A    between atoms: C_6  and  C_3 
REMARK    3  A    between atoms: C_11  and  C_7 
REMARK    4  A    between atoms: C_10  and  C_11 
ROOT
ATOM      1  C   UNL d   1      33.228  19.978 -22.239  0.00  0.00     0.197 A 
ATOM      2  N   UNL d   1      33.238  19.401 -21.675  0.00  0.00    -0.219 NA
ATOM      3  S   UNL d   1      33.223  19.612 -22.988  0.00  0.00    -0.047 SA
ATOM      4  C   UNL d   1      33.232  18.799 -22.858  0.00  0.00     0.051 A 
ATOM      5  C   UNL d   1      33.241  18.653 -22.053  0.00  0.00     0.108 A 
ENDROOT
BRANCH   1   6
ATOM      6  N   UNL d   1      33.222  20.801 -22.090  0.00  0.00    -0.182 NA
ATOM      7  C   UNL d   1      32.673  21.134 -21.583  0.00  0.00     0.287 C 
ATOM      8  O   UNL d   1      32.129  20.650 -21.223  0.00  0.00    -0.265 OA
BRANCH   7   9
ATOM      9  C   UNL d   1      32.671  21.929 -21.441  0.00  0.00     0.087 A 
ATOM     10  S   UNL d   1      32.268  22.228 -20.810  0.00  0.00    -0.082 SA
ATOM     11  C   UNL d   1      32.374  23.057 -20.818  0.00  0.00     0.036 A 
ATOM     12  C   UNL d   1      32.821  23.250 -21.428  0.00  0.00     0.008 A 
ATOM     13  C   UNL d   1      33.026  22.558 -21.843  0.00  0.00     0.012 A 
ENDBRANCH   7   9
ENDBRANCH   1   6
BRANCH   4  14
ATOM     14  C   UNL d   1      33.232  18.157 -23.357  0.00  0.00     0.009 C 
BRANCH  14  15
ATOM     15  C   UNL d   1      32.529  17.949 -23.764  0.00  0.00     0.011 A 
ATOM     16  C   UNL d   1      32.335  17.157 -23.865  0.00  0.00     0.058 A 
ATOM     17 CL   UNL d   1      32.829  16.556 -23.568  0.00  0.00    -0.082 Cl
ATOM     18  C   UNL d   1      31.629  16.945 -24.273  0.00  0.00     0.011 A 
ATOM     19  C   UNL d   1      31.138  17.514 -24.569  0.00  0.00     0.001 A 
ATOM     20  C   UNL d   1      31.319  18.317 -24.476  0.00  0.00     0.000 A 
ATOM     21  C   UNL d   1      32.023  18.527 -24.068  0.00  0.00     0.001 A 
ENDBRANCH  14  15
ENDBRANCH   4  14
TORSDOF 4
ENDMDL
MODEL 3
REMARK VINA RESULT:      -2.2      1.905      4.726
REMARK  4 active torsions:
REMARK  status: ('A' for Active; 'I' for Inactive)
REMARK    1  A    between atoms: N_2  and  C_1 
REMARK       I    between atoms: C_3  and  N_2 
REMARK    2  A    between atoms: C_6  and  C_3 
REMARK    3  A    between atoms: C_11  and  C_7 
REMARK    4  A    between atoms: C_10  and  C_11 
ROOT
ATOM      1  C   UNL d   1      32.840  18.830 -23.613  0.00  0.00     0.197 A 
ATOM      2  N   UNL d   1      33.051  19.207 -24.294  0.00  0.00    -0.219 NA
ATOM      3  S   UNL d   1      32.872  19.382 -22.988  0.00  0.00    -0.047 SA
ATOM      4  C   UNL d   1      33.108  20.101 -23.314  0.00  0.00     0.051 A 
ATOM      5  C   UNL d   1      33.222  20.009 -24.119  0.00  0.00     0.108 A 
ENDROOT
BRANCH   1   6
ATOM      6  N   UNL d   1      32.627  18.024 -23.551  0.00  0.00    -0.182 NA
ATOM      7  C   UNL d   1      31.989  17.723 -23.964  0.00  0.00     0.287 C 
ATOM      8  O   UNL d   1      31.560  18.223 -24.440  0.00  0.00    -0.265 OA
BRANCH   7   9
ATOM      9  C   UNL d   1      31.786  16.944 -23.902  0.00  0.00     0.087 A 
ATOM     10  S   UNL d   1      31.047  16.698 -24.110  0.00  0.00    -0.082 SA
ATOM     11  C   UNL d   1      31.014  15.873 -23.983  0.00  0.00     0.036 A 
ATOM     12  C   UNL d   1      31.703  15.631 -23.709  0.00  0.00     0.008 A 
ATOM     13  C   UNL d   1      32.215  16.285 -23.646  0.00  0.00     0.012 A 
ENDBRANCH   7   9
ENDBRANCH   1   6
BRANCH   4  14
ATOM     14  C   UNL d   1      33.238  20.837 -22.997  0.00  0.00     0.009 C 
BRANCH  14  15
ATOM     15  C   UNL d   1      33.053  20.980 -22.190  0.00  0.00     0.011 A 
ATOM     16  C   UNL d   1      32.730  21.701 -21.967  0.00  0.00     0.058 A 
ATOM     17 CL   UNL d   1      32.582  22.295 -22.531  0.00  0.00    -0.082 Cl
ATOM     18  C   UNL d   1      32.544  21.846 -21.158  0.00  0.00     0.011 A 
ATOM     19  C   UNL d   1      32.680  21.281 -20.597  0.00  0.00     0.001 A 
ATOM     20  C   UNL d   1      33.006  20.548 -20.806  0.00  0.00     0.000 A 
ATOM     21  C   UNL d   1      33.191  20.405 -21.613  0.00  0.00     0.001 A 
ENDBRANCH  14  15
ENDBRANCH   4  14
TORSDOF 4
ENDMDL
