MODEL 1
REMARK VINA RESULT:      -6.6      0.000      0.000
REMARK  3 active torsions:
REMARK  status: ('A' for Active; 'I' for Inactive)
REMARK    1  A    between atoms: N_2  and  S_1 
REMARK    2  A    between atoms: N_3  and  S_1 
REMARK    3  A    between atoms: C_6  and  N_2 
ROOT
ATOM      1  C   UNL d   1     -47.895  12.626  23.305  0.00  0.00     0.095 A 
ATOM      2  C   UNL d   1     -46.482  13.385  22.833  0.00  0.00     0.000 A 
ATOM      3  C   UNL d   1     -47.164  12.257  23.432  0.00  0.00     0.020 A 
ATOM      4  C   UNL d   1     -47.921  13.364  22.947  0.00  0.00     0.020 A 
ATOM      5  C   UNL d   1     -46.446  12.643  23.192  0.00  0.00     0.002 A 
ATOM      6  C   UNL d   1     -47.203  13.750  22.707  0.00  0.00     0.002 A 
ATOM      7  C   UNL d   1     -45.784  13.760  22.599  0.00  0.00     0.000 C 
ENDROOT
BRANCH   1   8
ATOM      8  N   UNL d   1     -48.591  12.252  23.538  0.00  0.00    -0.144 NA
BRANCH   8   9
ATOM      9  S   UNL d   1     -49.023  11.813  22.989  0.00  0.00     0.351 S 
ATOM     10  O   UNL d   1     -48.381  11.314  22.875  0.00  0.00    -0.180 OA
ATOM     11  O   UNL d   1     -49.077  11.185  22.457  0.00  0.00    -0.180 OA
BRANCH   9  12
ATOM     12  N   UNL d   1     -49.799  12.029  22.812  0.00  0.00    -0.212 N 
ATOM     13  C   UNL d   1     -50.366  12.045  23.413  0.00  0.00     0.113 C 
ATOM     14  C   UNL d   1     -50.004  12.227  22.040  0.00  0.00     0.113 C 
ENDBRANCH   9  12
ENDBRANCH   8   9
ENDBRANCH   1   8
TORSDOF 3
ENDMDL
MODEL 2
REMARK VINA RESULT:      -6.4      1.664      3.191
REMARK  3 active torsions:
REMARK  status: ('A' for Active; 'I' for Inactive)
REMARK    1  A    between atoms: N_2  and  S_1 
REMARK    2  A    between atoms: N_3  and  S_1 
REMARK    3  A    between atoms: C_6  and  N_2 
ROOT
ATOM      1  C   UNL d   1     -47.890  12.290  22.774  0.00  0.00     0.095 A 
ATOM      2  C   UNL d   1     -49.512  12.201  23.172  0.00  0.00     0.000 A 
ATOM      3  C   UNL d   1     -48.447  12.722  22.340  0.00  0.00     0.020 A 
ATOM      4  C   UNL d   1     -48.138  11.818  23.399  0.00  0.00     0.020 A 
ATOM      5  C   UNL d   1     -49.272  12.677  22.542  0.00  0.00     0.002 A 
ATOM      6  C   UNL d   1     -48.962  11.773  23.601  0.00  0.00     0.002 A 
ATOM      7  C   UNL d   1     -50.313  12.157  23.368  0.00  0.00     0.000 C 
ENDROOT
BRANCH   1   8
ATOM      8  N   UNL d   1     -47.091  12.334  22.578  0.00  0.00    -0.144 NA
BRANCH   8   9
ATOM      9  S   UNL d   1     -46.596  12.847  22.992  0.00  0.00     0.351 S 
ATOM     10  O   UNL d   1     -46.727  12.424  23.684  0.00  0.00    -0.180 OA
ATOM     11  O   UNL d   1     -46.233  13.081  23.695  0.00  0.00    -0.180 OA
BRANCH   9  12
ATOM     12  N   UNL d   1     -46.233  13.474  22.596  0.00  0.00    -0.212 N 
ATOM     13  C   UNL d   1     -45.674  13.318  22.010  0.00  0.00     0.113 C 
ATOM     14  C   UNL d   1     -46.432  14.249  22.789  0.00  0.00     0.113 C 
ENDBRANCH   9  12
ENDBRANCH   8   9
ENDBRANCH   1   8
TORSDOF 3
ENDMDL
MODEL 3
REMARK VINA RESULT:      -6.0      1.475      1.824
REMARK  3 active torsions:
REMARK  status: ('A' for Active; 'I' for Inactive)
REMARK    1  A    between atoms: N_2  and  S_1 
REMARK    2  A    between atoms: N_3  and  S_1 
REMARK    3  A    between atoms: C_6  and  N_2 
ROOT
ATOM      1  C   UNL d   1     -48.016  13.104  22.830  0.00  0.00     0.095 A 
ATOM      2  C   UNL d   1     -46.930  11.973  23.411  0.00  0.00     0.000 A 
ATOM      3  C   UNL d   1     -47.206  13.194  22.684  0.00  0.00     0.020 A 
ATOM      4  C   UNL d   1     -48.282  12.458  23.261  0.00  0.00     0.020 A 
ATOM      5  C   UNL d   1     -46.654  12.619  22.979  0.00  0.00     0.002 A 
ATOM      6  C   UNL d   1     -47.730  11.883  23.556  0.00  0.00     0.002 A 
ATOM      7  C   UNL d   1     -46.394  11.414  23.698  0.00  0.00     0.000 C 
ENDROOT
BRANCH   1   8
ATOM      8  N   UNL d   1     -48.551  13.662  22.544  0.00  0.00    -0.144 NA
BRANCH   8   9
ATOM      9  S   UNL d   1     -49.001  13.490  21.874  0.00  0.00     0.351 S 
ATOM     10  O   UNL d   1     -48.316  13.347  21.445  0.00  0.00    -0.180 OA
ATOM     11  O   UNL d   1     -49.049  13.271  21.080  0.00  0.00    -0.180 OA
BRANCH   9  12
ATOM     12  N   UNL d   1     -49.824  13.530  21.913  0.00  0.00    -0.212 N 
ATOM     13  C   UNL d   1     -50.188  14.219  22.187  0.00  0.00     0.113 C 
ATOM     14  C   UNL d   1     -50.276  12.884  21.679  0.00  0.00     0.113 C 
ENDBRANCH   9  12
ENDBRANCH   8   9
ENDBRANCH   1   8
TORSDOF 3
ENDMDL
MODEL 4
REMARK VINA RESULT:      -5.9      2.261      2.475
REMARK  3 active torsions:
REMARK  status: ('A' for Active; 'I' for Inactive)
REMARK    1  A    between atoms: N_2  and  S_1 
REMARK    2  A    between atoms: N_3  and  S_1 
REMARK    3  A    between atoms: C_6  and  N_2 
ROOT
ATOM      1  C   UNL d   1     -48.199  13.646  22.554  0.00  0.00     0.095 A 
ATOM      2  C   UNL d   1     -47.101  12.644  23.319  0.00  0.00     0.000 A 
ATOM      3  C   UNL d   1     -48.460  12.956  22.930  0.00  0.00     0.020 A 
ATOM      4  C   UNL d   1     -47.400  13.834  22.559  0.00  0.00     0.020 A 
ATOM      5  C   UNL d   1     -47.902  12.447  23.319  0.00  0.00     0.002 A 
ATOM      6  C   UNL d   1     -46.842  13.325  22.948  0.00  0.00     0.002 A 
ATOM      7  C   UNL d   1     -46.558  12.149  23.698  0.00  0.00     0.000 C 
ENDROOT
BRANCH   1   8
ATOM      8  N   UNL d   1     -48.740  14.139  22.177  0.00  0.00    -0.144 NA
BRANCH   8   9
ATOM      9  S   UNL d   1     -49.009  14.820  22.559  0.00  0.00     0.351 S 
ATOM     10  O   UNL d   1     -48.257  15.147  22.515  0.00  0.00    -0.180 OA
ATOM     11  O   UNL d   1     -48.867  15.572  22.868  0.00  0.00    -0.180 OA
BRANCH   9  12
ATOM     12  N   UNL d   1     -49.799  14.874  22.790  0.00  0.00    -0.212 N 
ATOM     13  C   UNL d   1     -49.986  15.105  23.560  0.00  0.00     0.113 C 
ATOM     14  C   UNL d   1     -50.395  14.699  22.250  0.00  0.00     0.113 C 
ENDBRANCH   9  12
ENDBRANCH   8   9
ENDBRANCH   1   8
TORSDOF 3
ENDMDL
MODEL 5
REMARK VINA RESULT:      -5.9      2.181      3.248
REMARK  3 active torsions:
REMARK  status: ('A' for Active; 'I' for Inactive)
REMARK    1  A    between atoms: N_2  and  S_1 
REMARK    2  A    between atoms: N_3  and  S_1 
REMARK    3  A    between atoms: C_6  and  N_2 
ROOT
ATOM      1  C   UNL d   1     -47.862  14.010  22.580  0.00  0.00     0.095 A 
ATOM      2  C   UNL d   1     -49.352  14.682  22.929  0.00  0.00     0.000 A 
ATOM      3  C   UNL d   1     -47.952  14.833  22.594  0.00  0.00     0.020 A 
ATOM      4  C   UNL d   1     -48.507  13.527  22.738  0.00  0.00     0.020 A 
ATOM      5  C   UNL d   1     -48.709  15.175  22.772  0.00  0.00     0.002 A 
ATOM      6  C   UNL d   1     -49.265  13.869  22.915  0.00  0.00     0.002 A 
ATOM      7  C   UNL d   1     -50.089  15.014  23.101  0.00  0.00     0.000 C 
ENDROOT
BRANCH   1   8
ATOM      8  N   UNL d   1     -47.127  13.679  22.408  0.00  0.00    -0.144 NA
BRANCH   8   9
ATOM      9  S   UNL d   1     -46.616  13.476  23.024  0.00  0.00     0.351 S 
ATOM     10  O   UNL d   1     -46.641  14.247  23.305  0.00  0.00    -0.180 OA
ATOM     11  O   UNL d   1     -46.186  13.684  23.696  0.00  0.00    -0.180 OA
BRANCH   9  12
ATOM     12  N   UNL d   1     -46.338  12.702  23.086  0.00  0.00    -0.212 N 
ATOM     13  C   UNL d   1     -45.796  12.416  22.532  0.00  0.00     0.113 C 
ATOM     14  C   UNL d   1     -46.602  12.220  23.698  0.00  0.00     0.113 C 
ENDBRANCH   9  12
ENDBRANCH   8   9
ENDBRANCH   1   8
TORSDOF 3
ENDMDL
