MODEL 1
REMARK VINA RESULT:      -4.1      0.000      0.000
REMARK  3 active torsions:
REMARK  status: ('A' for Active; 'I' for Inactive)
REMARK    1  A    between atoms: C_11  and  C_3 
REMARK       I    between atoms: C_7  and  N_9 
REMARK    2  A    between atoms: C_8  and  C_7 
REMARK    3  A    between atoms: N_9  and  C_13 
ROOT
ATOM      1  C   UNL d   1      31.761  17.231 -23.980  0.00  0.00     0.021 A 
ATOM      2  C   UNL d   1      32.554  18.359 -23.603  0.00  0.00     0.085 A 
ATOM      3  C   UNL d   1      31.814  18.014 -23.726  0.00  0.00     0.021 A 
ATOM      4  C   UNL d   1      32.449  16.793 -24.112  0.00  0.00     0.002 A 
ATOM      5  C   UNL d   1      33.188  17.138 -23.989  0.00  0.00     0.002 A 
ATOM      6  C   UNL d   1      33.241  17.922 -23.735  0.00  0.00     0.019 A 
ENDROOT
BRANCH   2   7
ATOM      7  N   UNL d   1      32.606  19.138 -23.350  0.00  0.00    -0.207 NA
ATOM      8  C   UNL d   1      32.919  19.313 -22.615  0.00  0.00     0.297 C 
ATOM      9  O   UNL d   1      33.186  18.700 -22.119  0.00  0.00    -0.264 OA
BRANCH   8  10
ATOM     10  C   UNL d   1      32.971  20.096 -22.361  0.00  0.00     0.139 A 
ATOM     11  N   UNL d   1      32.811  20.289 -21.583  0.00  0.00    -0.241 NA
ATOM     12  C   UNL d   1      32.864  21.072 -21.328  0.00  0.00     0.082 A 
ATOM     13  C   UNL d   1      32.701  21.262 -20.542  0.00  0.00     0.019 A 
ATOM     14  C   UNL d   1      33.076  21.662 -21.853  0.00  0.00     0.018 A 
ATOM     15  C   UNL d   1      32.754  22.045 -20.288  0.00  0.00     0.002 A 
ATOM     16  C   UNL d   1      32.969  22.638 -20.820  0.00  0.00     0.000 A 
ATOM     17  C   UNL d   1      33.129  22.445 -21.599  0.00  0.00     0.002 A 
ATOM     18  C   UNL d   1      33.241  21.475 -22.648  0.00  0.00     0.003 A 
ATOM     19  C   UNL d   1      33.188  20.692 -22.902  0.00  0.00     0.024 A 
ENDBRANCH   8  10
ENDBRANCH   2   7
BRANCH   1  20
ATOM     20  C   UNL d   1      31.022  16.886 -24.103  0.00  0.00     0.101 A 
ATOM     21  N   UNL d   1      30.604  16.373 -23.605  0.00  0.00    -0.221 NA
ATOM     22  C   UNL d   1      29.905  16.191 -23.978  0.00  0.00     0.179 A 
ATOM     23  N   UNL d   1      29.879  16.582 -24.702  0.00  0.00    -0.282 N 
ATOM     24  S   UNL d   1      29.213  15.760 -23.902  0.00  0.00    -0.048 SA
ATOM     25  C   UNL d   1      30.576  17.015 -24.780  0.00  0.00     0.101 A 
ATOM     26  C   UNL d   1      29.159  16.384 -25.070  0.00  0.00     0.089 A 
ATOM     27  C   UNL d   1      28.756  15.881 -24.575  0.00  0.00     0.057 A 
ENDBRANCH   1  20
TORSDOF 3
ENDMDL
MODEL 2
REMARK VINA RESULT:      -2.6      0.977      1.425
REMARK  3 active torsions:
REMARK  status: ('A' for Active; 'I' for Inactive)
REMARK    1  A    between atoms: C_11  and  C_3 
REMARK       I    between atoms: C_7  and  N_9 
REMARK    2  A    between atoms: C_8  and  C_7 
REMARK    3  A    between atoms: N_9  and  C_13 
ROOT
ATOM      1  C   UNL d   1      32.114  18.162 -24.215  0.00  0.00     0.021 A 
ATOM      2  C   UNL d   1      32.817  19.164 -23.477  0.00  0.00     0.085 A 
ATOM      3  C   UNL d   1      32.254  18.562 -23.506  0.00  0.00     0.021 A 
ATOM      4  C   UNL d   1      32.538  18.365 -24.894  0.00  0.00     0.002 A 
ATOM      5  C   UNL d   1      33.102  18.968 -24.863  0.00  0.00     0.002 A 
ATOM      6  C   UNL d   1      33.241  19.367 -24.155  0.00  0.00     0.019 A 
ENDROOT
BRANCH   2   7
ATOM      7  N   UNL d   1      32.955  19.562 -22.772  0.00  0.00    -0.207 NA
ATOM      8  C   UNL d   1      32.683  20.325 -22.670  0.00  0.00     0.297 C 
ATOM      9  O   UNL d   1      32.263  20.705 -23.281  0.00  0.00    -0.264 OA
BRANCH   8  10
ATOM     10  C   UNL d   1      32.823  20.725 -21.962  0.00  0.00     0.139 A 
ATOM     11  N   UNL d   1      32.770  21.541 -21.930  0.00  0.00    -0.241 NA
ATOM     12  C   UNL d   1      32.909  21.940 -21.222  0.00  0.00     0.082 A 
ATOM     13  C   UNL d   1      32.854  22.763 -21.196  0.00  0.00     0.019 A 
ATOM     14  C   UNL d   1      33.101  21.524 -20.545  0.00  0.00     0.018 A 
ATOM     15  C   UNL d   1      32.994  23.163 -20.488  0.00  0.00     0.002 A 
ATOM     16  C   UNL d   1      33.188  22.739 -19.806  0.00  0.00     0.000 A 
ATOM     17  C   UNL d   1      33.241  21.924 -19.837  0.00  0.00     0.002 A 
ATOM     18  C   UNL d   1      33.158  20.693 -20.568  0.00  0.00     0.003 A 
ATOM     19  C   UNL d   1      33.018  20.294 -21.276  0.00  0.00     0.024 A 
ENDBRANCH   8  10
ENDBRANCH   2   7
BRANCH   1  20
ATOM     20  C   UNL d   1      31.551  17.559 -24.245  0.00  0.00     0.101 A 
ATOM     21  N   UNL d   1      30.755  17.608 -24.466  0.00  0.00    -0.221 NA
ATOM     22  C   UNL d   1      30.439  16.863 -24.402  0.00  0.00     0.179 A 
ATOM     23  N   UNL d   1      31.026  16.346 -24.144  0.00  0.00    -0.282 N 
ATOM     24  S   UNL d   1      29.751  16.430 -24.499  0.00  0.00    -0.048 SA
ATOM     25  C   UNL d   1      31.720  16.781 -24.046  0.00  0.00     0.101 A 
ATOM     26  C   UNL d   1      30.687  15.588 -24.084  0.00  0.00     0.089 A 
ATOM     27  C   UNL d   1      29.907  15.647 -24.302  0.00  0.00     0.057 A 
ENDBRANCH   1  20
TORSDOF 3
ENDMDL
MODEL 3
REMARK VINA RESULT:      -1.2      2.369      5.818
REMARK  3 active torsions:
REMARK  status: ('A' for Active; 'I' for Inactive)
REMARK    1  A    between atoms: C_11  and  C_3 
REMARK       I    between atoms: C_7  and  N_9 
REMARK    2  A    between atoms: C_8  and  C_7 
REMARK    3  A    between atoms: N_9  and  C_13 
ROOT
ATOM      1  C   UNL d   1      33.196  21.678 -22.120  0.00  0.00     0.021 A 
ATOM      2  C   UNL d   1      33.229  20.564 -23.015  0.00  0.00     0.085 A 
ATOM      3  C   UNL d   1      33.206  20.863 -22.246  0.00  0.00     0.021 A 
ATOM      4  C   UNL d   1      33.208  22.195 -22.764  0.00  0.00     0.002 A 
ATOM      5  C   UNL d   1      33.230  21.896 -23.533  0.00  0.00     0.002 A 
ATOM      6  C   UNL d   1      33.241  21.080 -23.659  0.00  0.00     0.019 A 
ENDROOT
BRANCH   2   7
ATOM      7  N   UNL d   1      33.239  19.753 -23.140  0.00  0.00    -0.207 NA
ATOM      8  C   UNL d   1      32.783  19.421 -23.731  0.00  0.00     0.297 C 
ATOM      9  O   UNL d   1      32.304  19.906 -24.211  0.00  0.00    -0.264 OA
BRANCH   8  10
ATOM     10  C   UNL d   1      32.793  18.606 -23.857  0.00  0.00     0.139 A 
ATOM     11  N   UNL d   1      32.402  18.104 -23.343  0.00  0.00    -0.241 NA
ATOM     12  C   UNL d   1      32.412  17.289 -23.468  0.00  0.00     0.082 A 
ATOM     13  C   UNL d   1      32.016  16.786 -22.947  0.00  0.00     0.019 A 
ATOM     14  C   UNL d   1      32.814  16.975 -24.108  0.00  0.00     0.018 A 
ATOM     15  C   UNL d   1      32.026  15.971 -23.073  0.00  0.00     0.002 A 
ATOM     16  C   UNL d   1      32.433  15.658 -23.719  0.00  0.00     0.000 A 
ATOM     17  C   UNL d   1      32.824  16.160 -24.233  0.00  0.00     0.002 A 
ATOM     18  C   UNL d   1      33.215  17.479 -24.636  0.00  0.00     0.003 A 
ATOM     19  C   UNL d   1      33.205  18.294 -24.511  0.00  0.00     0.024 A 
ENDBRANCH   8  10
ENDBRANCH   2   7
BRANCH   1  20
ATOM     20  C   UNL d   1      33.173  21.977 -21.351  0.00  0.00     0.101 A 
ATOM     21  N   UNL d   1      33.158  21.560 -20.636  0.00  0.00    -0.221 NA
ATOM     22  C   UNL d   1      33.138  22.108 -20.037  0.00  0.00     0.179 A 
ATOM     23  N   UNL d   1      33.139  22.863 -20.366  0.00  0.00    -0.282 N 
ATOM     24  S   UNL d   1      33.116  22.191 -19.222  0.00  0.00    -0.048 SA
ATOM     25  C   UNL d   1      33.161  22.781 -21.186  0.00  0.00     0.101 A 
ATOM     26  C   UNL d   1      33.118  23.411 -19.739  0.00  0.00     0.089 A 
ATOM     27  C   UNL d   1      33.104  22.993 -19.043  0.00  0.00     0.057 A 
ENDBRANCH   1  20
TORSDOF 3
ENDMDL
