MODEL 1
REMARK VINA RESULT:      -9.5      0.000      0.000
REMARK  4 active torsions:
REMARK  status: ('A' for Active; 'I' for Inactive)
REMARK    1  A    between atoms: C_2  and  C_1 
REMARK    2  A    between atoms: C_6  and  C_2 
REMARK    3  A    between atoms: C_9  and  C_6 
REMARK    4  A    between atoms: O_18  and  C_12 
ROOT
ATOM      1  C   UNL d   1      52.638  32.898  53.422  0.00  0.00     0.199 C 
ATOM      2  O   UNL d   1      51.883  32.674  53.425  0.00  0.00    -0.286 OA
ENDROOT
BRANCH   1   3
ATOM      3  C   UNL d   1      52.774  33.740  53.730  0.00  0.00     0.078 A 
ATOM      4  C   UNL d   1      52.495  34.357  53.259  0.00  0.00     0.202 A 
ATOM      5  C   UNL d   1      52.615  35.183  53.538  0.00  0.00     0.084 A 
ATOM      6  O   UNL d   1      52.114  34.204  52.546  0.00  0.00    -0.286 OA
ATOM      7  C   UNL d   1      53.008  35.326  54.273  0.00  0.00     0.199 A 
ATOM      8  C   UNL d   1      53.273  34.693  54.717  0.00  0.00     0.042 A 
ATOM      9  O   UNL d   1      53.118  36.134  54.531  0.00  0.00    -0.286 OA
ATOM     10  C   UNL d   1      53.158  33.880  54.448  0.00  0.00     0.010 A 
ENDBRANCH   1   3
BRANCH   1  11
ATOM     11  C   UNL d   1      53.201  32.500  53.203  0.00  0.00     0.042 C 
BRANCH  11  12
ATOM     12  C   UNL d   1      53.187  31.704  53.319  0.00  0.00     0.003 A 
ATOM     13  C   UNL d   1      53.640  31.369  53.889  0.00  0.00     0.002 A 
ATOM     14  C   UNL d   1      53.627  30.534  54.012  0.00  0.00     0.024 A 
ATOM     15  C   UNL d   1      53.153  30.044  53.557  0.00  0.00     0.094 A 
ATOM     16  C   UNL d   1      52.693  30.378  52.979  0.00  0.00     0.024 A 
ATOM     17  C   UNL d   1      52.694  31.188  52.847  0.00  0.00     0.002 A 
BRANCH  15  18
ATOM     18  O   UNL d   1      53.138  29.198  53.679  0.00  0.00    -0.328 OA
ATOM     19  C   UNL d   1      53.293  28.879  54.420  0.00  0.00     0.181 C 
ENDBRANCH  15  18
ENDBRANCH  11  12
ENDBRANCH   1  11
TORSDOF 4
ENDMDL
MODEL 2
REMARK VINA RESULT:      -8.9      2.107      3.803
REMARK  4 active torsions:
REMARK  status: ('A' for Active; 'I' for Inactive)
REMARK    1  A    between atoms: C_2  and  C_1 
REMARK    2  A    between atoms: C_6  and  C_2 
REMARK    3  A    between atoms: C_9  and  C_6 
REMARK    4  A    between atoms: O_18  and  C_12 
ROOT
ATOM      1  C   UNL d   1      52.414  33.598  53.403  0.00  0.00     0.199 C 
ATOM      2  O   UNL d   1      52.026  32.912  53.384  0.00  0.00    -0.286 OA
ENDROOT
BRANCH   1   3
ATOM      3  C   UNL d   1      53.152  33.589  53.930  0.00  0.00     0.078 A 
ATOM      4  C   UNL d   1      53.737  33.039  53.739  0.00  0.00     0.202 A 
ATOM      5  C   UNL d   1      54.463  33.012  54.236  0.00  0.00     0.084 A 
ATOM      6  O   UNL d   1      53.644  32.530  53.100  0.00  0.00    -0.286 OA
ATOM      7  C   UNL d   1      54.545  33.542  54.890  0.00  0.00     0.199 A 
ATOM      8  C   UNL d   1      53.948  34.074  55.053  0.00  0.00     0.042 A 
ATOM      9  O   UNL d   1      55.256  33.503  55.363  0.00  0.00    -0.286 OA
ATOM     10  C   UNL d   1      53.233  34.106  54.568  0.00  0.00     0.010 A 
ENDBRANCH   1   3
BRANCH   1  11
ATOM     11  C   UNL d   1      52.231  34.201  53.049  0.00  0.00     0.042 C 
BRANCH  11  12
ATOM     12  C   UNL d   1      51.494  34.263  52.735  0.00  0.00     0.003 A 
ATOM     13  C   UNL d   1      51.380  34.167  51.947  0.00  0.00     0.002 A 
ATOM     14  C   UNL d   1      50.607  34.231  51.614  0.00  0.00     0.024 A 
ATOM     15  C   UNL d   1      49.953  34.394  52.083  0.00  0.00     0.094 A 
ATOM     16  C   UNL d   1      50.064  34.492  52.880  0.00  0.00     0.024 A 
ATOM     17  C   UNL d   1      50.809  34.433  53.219  0.00  0.00     0.002 A 
BRANCH  15  18
ATOM     18  O   UNL d   1      49.170  34.460  51.749  0.00  0.00    -0.328 OA
ATOM     19  C   UNL d   1      49.064  34.523  50.937  0.00  0.00     0.181 C 
ENDBRANCH  15  18
ENDBRANCH  11  12
ENDBRANCH   1  11
TORSDOF 4
ENDMDL
MODEL 3
REMARK VINA RESULT:      -8.7      0.846      4.367
REMARK  4 active torsions:
REMARK  status: ('A' for Active; 'I' for Inactive)
REMARK    1  A    between atoms: C_2  and  C_1 
REMARK    2  A    between atoms: C_6  and  C_2 
REMARK    3  A    between atoms: C_9  and  C_6 
REMARK    4  A    between atoms: O_18  and  C_12 
ROOT
ATOM      1  C   UNL d   1      53.266  32.273  53.452  0.00  0.00     0.199 C 
ATOM      2  O   UNL d   1      53.929  32.519  53.105  0.00  0.00    -0.286 OA
ENDROOT
BRANCH   1   3
ATOM      3  C   UNL d   1      53.199  31.371  53.521  0.00  0.00     0.078 A 
ATOM      4  C   UNL d   1      52.849  30.976  52.887  0.00  0.00     0.202 A 
ATOM      5  C   UNL d   1      52.773  30.100  52.933  0.00  0.00     0.084 A 
ATOM      6  O   UNL d   1      52.578  31.389  52.230  0.00  0.00    -0.286 OA
ATOM      7  C   UNL d   1      53.056  29.688  53.615  0.00  0.00     0.199 A 
ATOM      8  C   UNL d   1      53.397  30.109  54.226  0.00  0.00     0.042 A 
ATOM      9  O   UNL d   1      52.975  28.837  53.645  0.00  0.00    -0.286 OA
ATOM     10  C   UNL d   1      53.475  30.969  54.187  0.00  0.00     0.010 A 
ENDBRANCH   1   3
BRANCH   1  11
ATOM     11  C   UNL d   1      52.735  32.694  53.705  0.00  0.00     0.042 C 
BRANCH  11  12
ATOM     12  C   UNL d   1      52.895  33.463  53.881  0.00  0.00     0.003 A 
ATOM     13  C   UNL d   1      52.655  34.049  53.389  0.00  0.00     0.002 A 
ATOM     14  C   UNL d   1      52.822  34.857  53.572  0.00  0.00     0.024 A 
ATOM     15  C   UNL d   1      53.231  35.064  54.251  0.00  0.00     0.094 A 
ATOM     16  C   UNL d   1      53.476  34.474  54.751  0.00  0.00     0.024 A 
ATOM     17  C   UNL d   1      53.322  33.685  54.588  0.00  0.00     0.002 A 
BRANCH  15  18
ATOM     18  O   UNL d   1      53.401  35.880  54.438  0.00  0.00    -0.328 OA
ATOM     19  C   UNL d   1      52.871  36.329  54.876  0.00  0.00     0.181 C 
ENDBRANCH  15  18
ENDBRANCH  11  12
ENDBRANCH   1  11
TORSDOF 4
ENDMDL
MODEL 4
REMARK VINA RESULT:      -8.3      1.463      4.352
REMARK  4 active torsions:
REMARK  status: ('A' for Active; 'I' for Inactive)
REMARK    1  A    between atoms: C_2  and  C_1 
REMARK    2  A    between atoms: C_6  and  C_2 
REMARK    3  A    between atoms: C_9  and  C_6 
REMARK    4  A    between atoms: O_18  and  C_12 
ROOT
ATOM      1  C   UNL d   1      52.660  32.059  52.987  0.00  0.00     0.199 C 
ATOM      2  O   UNL d   1      52.738  32.169  52.211  0.00  0.00    -0.286 OA
ENDROOT
BRANCH   1   3
ATOM      3  C   UNL d   1      52.857  31.218  53.262  0.00  0.00     0.078 A 
ATOM      4  C   UNL d   1      53.595  31.105  53.613  0.00  0.00     0.202 A 
ATOM      5  C   UNL d   1      53.807  30.296  53.888  0.00  0.00     0.084 A 
ATOM      6  O   UNL d   1      54.118  31.733  53.705  0.00  0.00    -0.286 OA
ATOM      7  C   UNL d   1      53.260  29.660  53.788  0.00  0.00     0.199 A 
ATOM      8  C   UNL d   1      52.536  29.804  53.436  0.00  0.00     0.042 A 
ATOM      9  O   UNL d   1      53.480  28.880  54.059  0.00  0.00    -0.286 OA
ATOM     10  C   UNL d   1      52.322  30.596  53.164  0.00  0.00     0.010 A 
ENDBRANCH   1   3
BRANCH   1  11
ATOM     11  C   UNL d   1      52.454  32.557  53.470  0.00  0.00     0.042 C 
BRANCH  11  12
ATOM     12  C   UNL d   1      51.924  33.120  53.250  0.00  0.00     0.003 A 
ATOM     13  C   UNL d   1      51.140  33.011  53.380  0.00  0.00     0.002 A 
ATOM     14  C   UNL d   1      50.581  33.601  53.150  0.00  0.00     0.024 A 
ATOM     15  C   UNL d   1      50.821  34.297  52.789  0.00  0.00     0.094 A 
ATOM     16  C   UNL d   1      51.612  34.411  52.656  0.00  0.00     0.024 A 
ATOM     17  C   UNL d   1      52.168  33.848  52.873  0.00  0.00     0.002 A 
BRANCH  15  18
ATOM     18  O   UNL d   1      50.258  34.896  52.556  0.00  0.00    -0.328 OA
ATOM     19  C   UNL d   1      49.451  34.746  52.583  0.00  0.00     0.181 C 
ENDBRANCH  15  18
ENDBRANCH  11  12
ENDBRANCH   1  11
TORSDOF 4
ENDMDL
MODEL 5
REMARK VINA RESULT:      -8.1      2.085      3.243
REMARK  4 active torsions:
REMARK  status: ('A' for Active; 'I' for Inactive)
REMARK    1  A    between atoms: C_2  and  C_1 
REMARK    2  A    between atoms: C_6  and  C_2 
REMARK    3  A    between atoms: C_9  and  C_6 
REMARK    4  A    between atoms: O_18  and  C_12 
ROOT
ATOM      1  C   UNL d   1      51.980  34.082  53.063  0.00  0.00     0.199 C 
ATOM      2  O   UNL d   1      52.507  34.646  52.904  0.00  0.00    -0.286 OA
ENDROOT
BRANCH   1   3
ATOM      3  C   UNL d   1      51.163  34.227  52.697  0.00  0.00     0.078 A 
ATOM      4  C   UNL d   1      51.117  34.214  51.873  0.00  0.00     0.202 A 
ATOM      5  C   UNL d   1      50.334  34.353  51.496  0.00  0.00     0.084 A 
ATOM      6  O   UNL d   1      51.787  34.074  51.416  0.00  0.00    -0.286 OA
ATOM      7  C   UNL d   1      49.654  34.495  51.978  0.00  0.00     0.199 A 
ATOM      8  C   UNL d   1      49.732  34.502  52.791  0.00  0.00     0.042 A 
ATOM      9  O   UNL d   1      48.901  34.628  51.597  0.00  0.00    -0.286 OA
ATOM     10  C   UNL d   1      50.499  34.366  53.167  0.00  0.00     0.010 A 
ENDBRANCH   1   3
BRANCH   1  11
ATOM     11  C   UNL d   1      52.096  33.488  53.458  0.00  0.00     0.042 C 
BRANCH  11  12
ATOM     12  C   UNL d   1      52.776  33.427  53.883  0.00  0.00     0.003 A 
ATOM     13  C   UNL d   1      52.907  33.910  54.510  0.00  0.00     0.002 A 
ATOM     14  C   UNL d   1      53.620  33.848  54.958  0.00  0.00     0.024 A 
ATOM     15  C   UNL d   1      54.197  33.298  54.766  0.00  0.00     0.094 A 
ATOM     16  C   UNL d   1      54.070  32.808  54.133  0.00  0.00     0.024 A 
ATOM     17  C   UNL d   1      53.382  32.855  53.688  0.00  0.00     0.002 A 
BRANCH  15  18
ATOM     18  O   UNL d   1      54.920  33.233  55.217  0.00  0.00    -0.328 OA
ATOM     19  C   UNL d   1      55.468  33.844  55.220  0.00  0.00     0.181 C 
ENDBRANCH  15  18
ENDBRANCH  11  12
ENDBRANCH   1  11
TORSDOF 4
ENDMDL
