MODEL 1
REMARK VINA RESULT:      10.0      0.000      0.000
REMARK  3 active torsions:
REMARK  status: ('A' for Active; 'I' for Inactive)
REMARK    1  A    between atoms: C_6  and  N_1 
REMARK    2  A    between atoms: C_9  and  C_6 
REMARK    3  A    between atoms: C_10  and  C_9 
ROOT
ATOM      1  C   UNL d   1      44.504 -15.170  37.016  0.00  0.00     0.086 C 
ENDROOT
BRANCH   1   2
ATOM      2  N   UNL d   1      45.281 -14.963  36.998  0.00  0.00    -0.240 N 
ATOM      3  C   UNL d   1      45.907 -15.427  36.672  0.00  0.00     0.267 A 
ATOM      4  C   UNL d   1      46.624 -14.998  36.773  0.00  0.00     0.066 A 
ATOM      5  O   UNL d   1      45.822 -16.147  36.330  0.00  0.00    -0.267 OA
ATOM      6  C   UNL d   1      46.431 -14.270  37.162  0.00  0.00     0.066 A 
ATOM      7  C   UNL d   1      45.612 -14.249  37.299  0.00  0.00     0.267 A 
ATOM      8  O   UNL d   1      45.207 -13.657  37.654  0.00  0.00    -0.267 OA
ENDBRANCH   1   2
BRANCH   1   9
ATOM      9  C   UNL d   1      44.148 -15.472  36.336  0.00  0.00     0.019 C 
BRANCH   9  10
ATOM     10  C   UNL d   1      43.346 -15.636  36.335  0.00  0.00     0.002 A 
ATOM     11  C   UNL d   1      42.805 -15.021  36.336  0.00  0.00     0.000 A 
ATOM     12  C   UNL d   1      42.001 -15.180  36.334  0.00  0.00     0.000 A 
ATOM     13  C   UNL d   1      41.742 -15.964  36.331  0.00  0.00     0.000 A 
ATOM     14  C   UNL d   1      42.290 -16.581  36.330  0.00  0.00     0.000 A 
ATOM     15  C   UNL d   1      43.091 -16.407  36.332  0.00  0.00     0.000 A 
ENDBRANCH   9  10
ENDBRANCH   1   9
TORSDOF 3
ENDMDL
MODEL 2
REMARK VINA RESULT:      10.3      1.247      3.406
REMARK  3 active torsions:
REMARK  status: ('A' for Active; 'I' for Inactive)
REMARK    1  A    between atoms: C_6  and  N_1 
REMARK    2  A    between atoms: C_9  and  C_6 
REMARK    3  A    between atoms: C_10  and  C_9 
ROOT
ATOM      1  C   UNL d   1      43.883 -15.491  37.053  0.00  0.00     0.086 C 
ENDROOT
BRANCH   1   2
ATOM      2  N   UNL d   1      43.157 -15.752  36.824  0.00  0.00    -0.240 N 
ATOM      3  C   UNL d   1      42.991 -16.505  36.482  0.00  0.00     0.267 A 
ATOM      4  C   UNL d   1      42.164 -16.541  36.330  0.00  0.00     0.066 A 
ATOM      5  O   UNL d   1      43.532 -17.078  36.331  0.00  0.00    -0.267 OA
ATOM      6  C   UNL d   1      41.828 -15.806  36.583  0.00  0.00     0.066 A 
ATOM      7  C   UNL d   1      42.434 -15.324  36.884  0.00  0.00     0.267 A 
ATOM      8  O   UNL d   1      42.349 -14.585  37.179  0.00  0.00    -0.267 OA
ENDBRANCH   1   2
BRANCH   1   9
ATOM      9  C   UNL d   1      44.498 -15.469  36.504  0.00  0.00     0.019 C 
BRANCH   9  10
ATOM     10  C   UNL d   1      45.214 -15.127  36.708  0.00  0.00     0.002 A 
ATOM     11  C   UNL d   1      45.225 -14.442  37.157  0.00  0.00     0.000 A 
ATOM     12  C   UNL d   1      45.939 -14.097  37.363  0.00  0.00     0.000 A 
ATOM     13  C   UNL d   1      46.645 -14.445  37.115  0.00  0.00     0.000 A 
ATOM     14  C   UNL d   1      46.631 -15.135  36.663  0.00  0.00     0.000 A 
ATOM     15  C   UNL d   1      45.909 -15.469  36.464  0.00  0.00     0.000 A 
ENDBRANCH   9  10
ENDBRANCH   1   9
TORSDOF 3
ENDMDL
MODEL 3
REMARK VINA RESULT:      11.8      7.388      8.125
REMARK  3 active torsions:
REMARK  status: ('A' for Active; 'I' for Inactive)
REMARK    1  A    between atoms: C_6  and  N_1 
REMARK    2  A    between atoms: C_9  and  C_6 
REMARK    3  A    between atoms: C_10  and  C_9 
ROOT
ATOM      1  C   UNL d   1      45.041 -14.037  44.304  0.00  0.00     0.086 C 
ENDROOT
BRANCH   1   2
ATOM      2  N   UNL d   1      45.207 -13.295  44.042  0.00  0.00    -0.240 N 
ATOM      3  C   UNL d   1      44.797 -12.887  43.426  0.00  0.00     0.267 A 
ATOM      4  C   UNL d   1      45.155 -12.131  43.337  0.00  0.00     0.066 A 
ATOM      5  O   UNL d   1      44.178 -13.179  43.008  0.00  0.00    -0.267 OA
ATOM      6  C   UNL d   1      45.785 -12.080  43.901  0.00  0.00     0.066 A 
ATOM      7  C   UNL d   1      45.816 -12.790  44.331  0.00  0.00     0.267 A 
ATOM      8  O   UNL d   1      46.333 -12.966  44.916  0.00  0.00    -0.267 OA
ENDBRANCH   1   2
BRANCH   1   9
ATOM      9  C   UNL d   1      45.603 -14.447  44.747  0.00  0.00     0.019 C 
BRANCH   9  10
ATOM     10  C   UNL d   1      45.595 -15.266  44.759  0.00  0.00     0.002 A 
ATOM     11  C   UNL d   1      44.902 -15.663  44.942  0.00  0.00     0.000 A 
ATOM     12  C   UNL d   1      44.889 -16.482  44.955  0.00  0.00     0.000 A 
ATOM     13  C   UNL d   1      45.579 -16.903  44.783  0.00  0.00     0.000 A 
ATOM     14  C   UNL d   1      46.275 -16.499  44.600  0.00  0.00     0.000 A 
ATOM     15  C   UNL d   1      46.273 -15.679  44.590  0.00  0.00     0.000 A 
ENDBRANCH   9  10
ENDBRANCH   1   9
TORSDOF 3
ENDMDL
MODEL 4
REMARK VINA RESULT:      12.8      7.637      8.237
REMARK  3 active torsions:
REMARK  status: ('A' for Active; 'I' for Inactive)
REMARK    1  A    between atoms: C_6  and  N_1 
REMARK    2  A    between atoms: C_9  and  C_6 
REMARK    3  A    between atoms: C_10  and  C_9 
ROOT
ATOM      1  C   UNL d   1      45.581 -15.957  44.093  0.00  0.00     0.086 C 
ENDROOT
BRANCH   1   2
ATOM      2  N   UNL d   1      45.420 -15.218  44.369  0.00  0.00    -0.240 N 
ATOM      3  C   UNL d   1      45.927 -14.545  44.299  0.00  0.00     0.267 A 
ATOM      4  C   UNL d   1      45.539 -13.893  44.663  0.00  0.00     0.066 A 
ATOM      5  O   UNL d   1      46.647 -14.541  43.947  0.00  0.00    -0.267 OA
ATOM      6  C   UNL d   1      44.794 -14.172  44.955  0.00  0.00     0.066 A 
ATOM      7  C   UNL d   1      44.721 -14.980  44.775  0.00  0.00     0.267 A 
ATOM      8  O   UNL d   1      44.100 -15.451  44.955  0.00  0.00    -0.267 OA
ENDBRANCH   1   2
BRANCH   1   9
ATOM      9  C   UNL d   1      45.972 -16.495  44.580  0.00  0.00     0.019 C 
BRANCH   9  10
ATOM     10  C   UNL d   1      46.094 -17.263  44.322  0.00  0.00     0.002 A 
ATOM     11  C   UNL d   1      46.137 -17.421  43.520  0.00  0.00     0.000 A 
ATOM     12  C   UNL d   1      46.258 -18.188  43.257  0.00  0.00     0.000 A 
ATOM     13  C   UNL d   1      46.337 -18.798  43.807  0.00  0.00     0.000 A 
ATOM     14  C   UNL d   1      46.293 -18.636  44.615  0.00  0.00     0.000 A 
ATOM     15  C   UNL d   1      46.171 -17.864  44.863  0.00  0.00     0.000 A 
ENDBRANCH   9  10
ENDBRANCH   1   9
TORSDOF 3
ENDMDL
