MODEL 1
REMARK VINA RESULT:      26.2      0.000      0.000
REMARK  7 active torsions:
REMARK  status: ('A' for Active; 'I' for Inactive)
REMARK       I    between atoms: C_3  and  N_1 
REMARK    1  A    between atoms: C_4  and  N_1 
REMARK    2  A    between atoms: C_5  and  N_1 
REMARK    3  A    between atoms: N_2  and  C_7 
REMARK    4  A    between atoms: C_8  and  C_3 
REMARK    5  A    between atoms: C_6  and  C_5 
REMARK    6  A    between atoms: C_9  and  C_6 
REMARK    7  A    between atoms: O_19  and  C_9 
ROOT
ATOM      1  N   UNL d   1      46.198 -17.907  43.522  0.00  0.00    -0.258 N 
ATOM      2  C   UNL d   1      46.127 -17.450  44.212  0.00  0.00     0.266 C 
ATOM      3  O   UNL d   1      46.199 -17.765  44.955  0.00  0.00    -0.267 OA
ENDROOT
BRANCH   1   4
ATOM      4  C   UNL d   1      46.349 -18.722  43.607  0.00  0.00     0.150 A 
ATOM      5  N   UNL d   1      46.445 -19.038  44.352  0.00  0.00    -0.227 NA
ATOM      6  C   UNL d   1      46.591 -19.831  44.420  0.00  0.00     0.101 A 
ATOM      7  C   UNL d   1      46.643 -20.330  43.724  0.00  0.00     0.021 A 
ATOM      8  C   UNL d   1      46.548 -20.017  42.987  0.00  0.00     0.005 A 
ATOM      9  C   UNL d   1      46.402 -19.221  42.911  0.00  0.00     0.037 A 
ENDBRANCH   1   4
BRANCH   1  10
ATOM     10  C   UNL d   1      46.119 -17.551  42.782  0.00  0.00     0.090 C 
BRANCH  10  11
ATOM     11  C   UNL d   1      46.332 -18.004  42.094  0.00  0.00     0.087 C 
BRANCH  11  12
ATOM     12  C   UNL d   1      45.970 -17.853  41.361  0.00  0.00     0.297 C 
ATOM     13  O   UNL d   1      45.177 -17.899  41.286  0.00  0.00    -0.259 OA
BRANCH  12  14
ATOM     14  O   UNL d   1      46.443 -17.656  40.719  0.00  0.00    -0.296 OA
ATOM     15  C   UNL d   1      46.306 -17.988  39.976  0.00  0.00     0.185 C 
ENDBRANCH  12  14
ENDBRANCH  11  12
ENDBRANCH  10  11
ENDBRANCH   1  10
BRANCH   2  16
ATOM     16  C   UNL d   1      45.976 -16.630  44.125  0.00  0.00     0.057 A 
ATOM     17  C   UNL d   1      46.521 -16.142  43.812  0.00  0.00     0.006 A 
ATOM     18  C   UNL d   1      46.374 -15.324  43.723  0.00  0.00     0.024 A 
ATOM     19  C   UNL d   1      45.668 -15.023  43.958  0.00  0.00     0.127 A 
ATOM     20  C   UNL d   1      45.093 -15.534  44.286  0.00  0.00     0.024 A 
ATOM     21  C   UNL d   1      45.250 -16.321  44.366  0.00  0.00     0.006 A 
BRANCH  19  22
ATOM     22  N   UNL d   1      45.537 -14.218  43.864  0.00  0.00    -0.114 N 
ATOM     23  O   UNL d   1      44.796 -13.863  43.712  0.00  0.00    -0.532 OA
ATOM     24  O   UNL d   1      46.135 -13.651  43.909  0.00  0.00    -0.532 OA
ENDBRANCH  19  22
ENDBRANCH   2  16
TORSDOF 7
ENDMDL
