MODEL 1
REMARK VINA RESULT:      -0.5      0.000      0.000
REMARK  6 active torsions:
REMARK  status: ('A' for Active; 'I' for Inactive)
REMARK    1  A    between atoms: N_7  and  C_1 
REMARK    2  A    between atoms: C_10  and  C_3 
REMARK    3  A    between atoms: C_17  and  C_5 
REMARK    4  A    between atoms: C_12  and  N_7 
REMARK    5  A    between atoms: C_8  and  C_9 
REMARK    6  A    between atoms: C_13  and  C_17 
ROOT
ATOM      1  C   UNL d   1      33.040  20.719 -22.196  0.00  0.00     0.165 A 
ATOM      2  N   UNL d   1      33.094  21.133 -22.917  0.00  0.00    -0.208 NA
ATOM      3  C   UNL d   1      32.951  21.948 -22.944  0.00  0.00     0.164 A 
ATOM      4  N   UNL d   1      32.752  22.355 -22.251  0.00  0.00    -0.227 NA
ATOM      5  C   UNL d   1      32.841  21.133 -21.508  0.00  0.00     0.054 A 
ATOM      6  C   UNL d   1      32.701  21.940 -21.543  0.00  0.00     0.086 A 
ATOM      7  C   UNL d   1      32.501  22.348 -20.848  0.00  0.00     0.021 C 
ENDROOT
BRANCH   1   8
ATOM      8  N   UNL d   1      33.183  19.907 -22.172  0.00  0.00    -0.227 NA
BRANCH   8   9
ATOM      9  C   UNL d   1      32.856  19.407 -22.755  0.00  0.00     0.083 A 
ATOM     10  C   UNL d   1      33.241  19.310 -23.462  0.00  0.00     0.019 A 
ATOM     11  C   UNL d   1      32.915  18.813 -24.042  0.00  0.00     0.008 A 
ATOM     12  C   UNL d   1      32.203  18.422 -23.893  0.00  0.00     0.065 A 
ATOM     13  C   UNL d   1      31.818  18.522 -23.178  0.00  0.00     0.008 A 
ATOM     14  C   UNL d   1      32.142  19.018 -22.600  0.00  0.00     0.019 A 
BRANCH  12  15
ATOM     15  C   UNL d   1      31.877  17.924 -24.473  0.00  0.00     0.211 C 
ATOM     16  O   UNL d   1      32.196  17.174 -24.600  0.00  0.00    -0.644 OA
ATOM     17  O   UNL d   1      31.239  18.176 -24.923  0.00  0.00    -0.644 OA
ENDBRANCH  12  15
ENDBRANCH   8   9
ENDBRANCH   1   8
BRANCH   5  18
ATOM     18  C   UNL d   1      32.785  20.732 -20.794  0.00  0.00     0.005 C 
BRANCH  18  19
ATOM     19  C   UNL d   1      33.229  20.956 -20.146  0.00  0.00     0.000 C 
ATOM     20  C   UNL d   1      33.240  20.517 -19.453  0.00  0.00     0.000 C 
ENDBRANCH  18  19
ENDBRANCH   5  18
BRANCH   3  21
ATOM     21  C   UNL d   1      33.005  22.354 -23.660  0.00  0.00     0.036 A 
ATOM     22  C   UNL d   1      33.161  21.943 -24.355  0.00  0.00     0.003 A 
ATOM     23  C   UNL d   1      33.217  22.343 -25.073  0.00  0.00     0.000 A 
ATOM     24  C   UNL d   1      33.114  23.174 -25.093  0.00  0.00     0.000 A 
ATOM     25  C   UNL d   1      32.958  23.585 -24.398  0.00  0.00     0.000 A 
ATOM     26  C   UNL d   1      32.904  23.169 -23.676  0.00  0.00     0.003 A 
ENDBRANCH   3  21
TORSDOF 6
ENDMDL
MODEL 2
REMARK VINA RESULT:       1.8      0.809      3.091
REMARK  6 active torsions:
REMARK  status: ('A' for Active; 'I' for Inactive)
REMARK    1  A    between atoms: N_7  and  C_1 
REMARK    2  A    between atoms: C_10  and  C_3 
REMARK    3  A    between atoms: C_17  and  C_5 
REMARK    4  A    between atoms: C_12  and  N_7 
REMARK    5  A    between atoms: C_8  and  C_9 
REMARK    6  A    between atoms: C_13  and  C_17 
ROOT
ATOM      1  C   UNL d   1      33.043  21.538 -23.017  0.00  0.00     0.165 A 
ATOM      2  N   UNL d   1      33.140  21.326 -22.218  0.00  0.00    -0.208 NA
ATOM      3  C   UNL d   1      32.945  21.860 -21.616  0.00  0.00     0.164 A 
ATOM      4  N   UNL d   1      32.650  22.608 -21.809  0.00  0.00    -0.227 NA
ATOM      5  C   UNL d   1      32.748  22.288 -23.202  0.00  0.00     0.054 A 
ATOM      6  C   UNL d   1      32.556  22.811 -22.600  0.00  0.00     0.086 A 
ATOM      7  C   UNL d   1      32.261  23.563 -22.794  0.00  0.00     0.021 C 
ENDROOT
BRANCH   1   8
ATOM      8  N   UNL d   1      33.238  21.005 -23.616  0.00  0.00    -0.227 NA
BRANCH   8   9
ATOM      9  C   UNL d   1      32.939  20.226 -23.595  0.00  0.00     0.083 A 
ATOM     10  C   UNL d   1      32.358  20.006 -24.117  0.00  0.00     0.019 A 
ATOM     11  C   UNL d   1      32.060  19.230 -24.097  0.00  0.00     0.008 A 
ATOM     12  C   UNL d   1      32.358  18.691 -23.546  0.00  0.00     0.065 A 
ATOM     13  C   UNL d   1      32.944  18.918 -23.021  0.00  0.00     0.008 A 
ATOM     14  C   UNL d   1      33.241  19.690 -23.041  0.00  0.00     0.019 A 
BRANCH  12  15
ATOM     15  C   UNL d   1      32.060  17.916 -23.526  0.00  0.00     0.211 C 
ATOM     16  O   UNL d   1      31.384  17.722 -23.958  0.00  0.00    -0.644 OA
ATOM     17  O   UNL d   1      32.436  17.341 -23.078  0.00  0.00    -0.644 OA
ENDBRANCH  12  15
ENDBRANCH   8   9
ENDBRANCH   1   8
BRANCH   5  18
ATOM     18  C   UNL d   1      32.649  22.505 -23.988  0.00  0.00     0.005 C 
BRANCH  18  19
ATOM     19  C   UNL d   1      33.175  23.006 -24.359  0.00  0.00     0.000 C 
ATOM     20  C   UNL d   1      32.938  23.529 -24.946  0.00  0.00     0.000 C 
ENDBRANCH  18  19
ENDBRANCH   5  18
BRANCH   3  21
ATOM     21  C   UNL d   1      33.043  21.645 -20.826  0.00  0.00     0.036 A 
ATOM     22  C   UNL d   1      33.045  22.222 -20.240  0.00  0.00     0.003 A 
ATOM     23  C   UNL d   1      33.142  22.014 -19.449  0.00  0.00     0.000 A 
ATOM     24  C   UNL d   1      33.241  21.208 -19.242  0.00  0.00     0.000 A 
ATOM     25  C   UNL d   1      33.239  20.631 -19.828  0.00  0.00     0.000 A 
ATOM     26  C   UNL d   1      33.139  20.854 -20.627  0.00  0.00     0.003 A 
ENDBRANCH   3  21
TORSDOF 6
ENDMDL
MODEL 3
REMARK VINA RESULT:       2.3      2.295      4.562
REMARK  6 active torsions:
REMARK  status: ('A' for Active; 'I' for Inactive)
REMARK    1  A    between atoms: N_7  and  C_1 
REMARK    2  A    between atoms: C_10  and  C_3 
REMARK    3  A    between atoms: C_17  and  C_5 
REMARK    4  A    between atoms: C_12  and  N_7 
REMARK    5  A    between atoms: C_8  and  C_9 
REMARK    6  A    between atoms: C_13  and  C_17 
ROOT
ATOM      1  C   UNL d   1      32.734  21.875 -23.030  0.00  0.00     0.165 A 
ATOM      2  N   UNL d   1      32.806  21.124 -22.678  0.00  0.00    -0.208 NA
ATOM      3  C   UNL d   1      33.023  20.467 -23.134  0.00  0.00     0.164 A 
ATOM      4  N   UNL d   1      33.168  20.557 -23.943  0.00  0.00    -0.227 NA
ATOM      5  C   UNL d   1      32.881  21.957 -23.839  0.00  0.00     0.054 A 
ATOM      6  C   UNL d   1      33.095  21.302 -24.283  0.00  0.00     0.086 A 
ATOM      7  C   UNL d   1      33.241  21.392 -25.096  0.00  0.00     0.021 C 
ENDROOT
BRANCH   1   8
ATOM      8  N   UNL d   1      32.518  22.528 -22.574  0.00  0.00    -0.227 NA
BRANCH   8   9
ATOM      9  C   UNL d   1      32.636  22.519 -21.747  0.00  0.00     0.083 A 
ATOM     10  C   UNL d   1      33.111  23.080 -21.404  0.00  0.00     0.019 A 
ATOM     11  C   UNL d   1      33.229  23.071 -20.582  0.00  0.00     0.008 A 
ATOM     12  C   UNL d   1      32.862  22.490 -20.122  0.00  0.00     0.065 A 
ATOM     13  C   UNL d   1      32.385  21.926 -20.473  0.00  0.00     0.008 A 
ATOM     14  C   UNL d   1      32.267  21.935 -21.292  0.00  0.00     0.019 A 
BRANCH  12  15
ATOM     15  C   UNL d   1      32.981  22.481 -19.300  0.00  0.00     0.211 C 
ATOM     16  O   UNL d   1      33.114  23.187 -18.894  0.00  0.00    -0.644 OA
ATOM     17  O   UNL d   1      32.966  21.771 -18.888  0.00  0.00    -0.644 OA
ENDBRANCH  12  15
ENDBRANCH   8   9
ENDBRANCH   1   8
BRANCH   5  18
ATOM     18  C   UNL d   1      32.811  22.695 -24.193  0.00  0.00     0.005 C 
BRANCH  18  19
ATOM     19  C   UNL d   1      32.134  22.910 -24.595  0.00  0.00     0.000 C 
ATOM     20  C   UNL d   1      32.059  23.641 -24.961  0.00  0.00     0.000 C 
ENDBRANCH  18  19
ENDBRANCH   5  18
BRANCH   3  21
ATOM     21  C   UNL d   1      33.093  19.725 -22.781  0.00  0.00     0.036 A 
ATOM     22  C   UNL d   1      33.088  19.047 -23.245  0.00  0.00     0.003 A 
ATOM     23  C   UNL d   1      33.158  18.303 -22.899  0.00  0.00     0.000 A 
ATOM     24  C   UNL d   1      33.235  18.239 -22.067  0.00  0.00     0.000 A 
ATOM     25  C   UNL d   1      33.241  18.917 -21.603  0.00  0.00     0.000 A 
ATOM     26  C   UNL d   1      33.169  19.667 -21.965  0.00  0.00     0.003 A 
ENDBRANCH   3  21
TORSDOF 6
ENDMDL
