MODEL 1
REMARK VINA RESULT:      -3.8      0.000      0.000
REMARK  5 active torsions:
REMARK  status: ('A' for Active; 'I' for Inactive)
REMARK    1  A    between atoms: C_8  and  C_1 
REMARK    2  A    between atoms: C_7  and  O_11 
REMARK    3  A    between atoms: C_9  and  C_7 
REMARK    4  A    between atoms: O_11  and  C_15 
REMARK    5  A    between atoms: O_23  and  C_18 
ROOT
ATOM      1  C   UNL d   1     -42.193-122.739 -49.883  0.00  0.00     0.064 A 
ATOM      2  C   UNL d   1     -41.713-123.160 -50.410  0.00  0.00     0.199 A 
ATOM      3  C   UNL d   1     -42.616-122.081 -50.148  0.00  0.00     0.103 A 
ATOM      4  C   UNL d   1     -41.659-122.923 -51.196  0.00  0.00     0.062 A 
ATOM      5  C   UNL d   1     -42.082-122.265 -51.460  0.00  0.00     0.105 A 
ATOM      6  O   UNL d   1     -42.559-121.845 -50.938  0.00  0.00    -0.307 OA
ATOM      7  C   UNL d   1     -42.026-122.029 -52.247  0.00  0.00     0.050 A 
ATOM      8  C   UNL d   1     -41.181-123.344 -51.719  0.00  0.00     0.007 A 
ATOM      9  O   UNL d   1     -41.290-123.817 -50.146  0.00  0.00    -0.286 OA
ATOM     10  C   UNL d   1     -41.542-122.456 -52.774  0.00  0.00     0.105 A 
ATOM     11  C   UNL d   1     -41.123-123.107 -52.513  0.00  0.00     0.025 A 
ATOM     12  C   UNL d   1     -43.093-121.661 -49.625  0.00  0.00     0.027 C 
ENDROOT
BRANCH   1  13
ATOM     13  C   UNL d   1     -42.243-122.982 -49.094  0.00  0.00     0.027 A 
ATOM     14  C   UNL d   1     -42.847-123.489 -48.849  0.00  0.00     0.094 A 
ATOM     15  C   UNL d   1     -42.891-123.727 -48.063  0.00  0.00     0.024 A 
ATOM     16  C   UNL d   1     -42.330-123.459 -47.513  0.00  0.00     0.002 A 
ATOM     17  C   UNL d   1     -41.721-122.947 -47.760  0.00  0.00     0.000 A 
ATOM     18  C   UNL d   1     -41.676-122.709 -48.546  0.00  0.00     0.002 A 
BRANCH  14  19
ATOM     19  O   UNL d   1     -43.399-123.752 -49.394  0.00  0.00    -0.328 OA
ATOM     20  C   UNL d   1     -44.191-123.817 -49.172  0.00  0.00     0.181 C 
ENDBRANCH  14  19
ENDBRANCH   1  13
BRANCH  10  21
ATOM     21  O   UNL d   1     -41.489-122.214 -53.567  0.00  0.00    -0.271 OA
BRANCH  21  22
ATOM     22  C   UNL d   1     -41.847-122.675 -54.154  0.00  0.00     0.323 C 
ATOM     23  O   UNL d   1     -41.990-123.478 -54.027  0.00  0.00    -0.257 OA
BRANCH  22  24
ATOM     24  C   UNL d   1     -42.065-122.326 -54.875  0.00  0.00     0.163 A 
ATOM     25  O   UNL d   1     -42.607-122.635 -55.414  0.00  0.00    -0.300 OA
ATOM     26  C   UNL d   1     -42.653-122.109 -56.050  0.00  0.00     0.123 A 
ATOM     27  C   UNL d   1     -42.144-121.480 -55.905  0.00  0.00     0.029 A 
ATOM     28  C   UNL d   1     -41.777-121.613 -55.174  0.00  0.00     0.032 A 
ENDBRANCH  22  24
ENDBRANCH  21  22
ENDBRANCH  10  21
TORSDOF 5
ENDMDL
MODEL 2
REMARK VINA RESULT:      -3.2      0.988      5.447
REMARK  5 active torsions:
REMARK  status: ('A' for Active; 'I' for Inactive)
REMARK    1  A    between atoms: C_8  and  C_1 
REMARK    2  A    between atoms: C_7  and  O_11 
REMARK    3  A    between atoms: C_9  and  C_7 
REMARK    4  A    between atoms: O_11  and  C_15 
REMARK    5  A    between atoms: O_23  and  C_18 
ROOT
ATOM      1  C   UNL d   1     -41.617-122.573 -53.755  0.00  0.00     0.064 A 
ATOM      2  C   UNL d   1     -41.797-122.077 -53.117  0.00  0.00     0.199 A 
ATOM      3  C   UNL d   1     -41.302-123.323 -53.618  0.00  0.00     0.103 A 
ATOM      4  C   UNL d   1     -41.660-122.333 -52.347  0.00  0.00     0.062 A 
ATOM      5  C   UNL d   1     -41.344-123.083 -52.210  0.00  0.00     0.105 A 
ATOM      6  O   UNL d   1     -41.165-123.577 -52.842  0.00  0.00    -0.307 OA
ATOM      7  C   UNL d   1     -41.207-123.337 -51.438  0.00  0.00     0.050 A 
ATOM      8  C   UNL d   1     -41.839-121.838 -51.713  0.00  0.00     0.007 A 
ATOM      9  O   UNL d   1     -42.113-121.328 -53.255  0.00  0.00    -0.286 OA
ATOM     10  C   UNL d   1     -41.389-122.835 -50.799  0.00  0.00     0.105 A 
ATOM     11  C   UNL d   1     -41.702-122.092 -50.935  0.00  0.00     0.025 A 
ATOM     12  C   UNL d   1     -41.123-123.817 -54.252  0.00  0.00     0.027 C 
ENDROOT
BRANCH   1  13
ATOM     13  C   UNL d   1     -41.757-122.310 -54.528  0.00  0.00     0.027 A 
ATOM     14  C   UNL d   1     -42.406-122.590 -54.955  0.00  0.00     0.094 A 
ATOM     15  C   UNL d   1     -42.539-122.325 -55.722  0.00  0.00     0.024 A 
ATOM     16  C   UNL d   1     -42.022-121.775 -56.070  0.00  0.00     0.002 A 
ATOM     17  C   UNL d   1     -41.368-121.493 -55.638  0.00  0.00     0.000 A 
ATOM     18  C   UNL d   1     -41.234-121.758 -54.871  0.00  0.00     0.002 A 
BRANCH  14  19
ATOM     19  O   UNL d   1     -42.914-123.132 -54.609  0.00  0.00    -0.328 OA
ATOM     20  C   UNL d   1     -43.394-123.601 -55.088  0.00  0.00     0.181 C 
ENDBRANCH  14  19
ENDBRANCH   1  13
BRANCH  10  21
ATOM     21  O   UNL d   1     -41.250-123.096 -50.022  0.00  0.00    -0.271 OA
BRANCH  21  22
ATOM     22  C   UNL d   1     -41.876-123.416 -49.586  0.00  0.00     0.323 C 
ATOM     23  O   UNL d   1     -42.550-123.703 -49.969  0.00  0.00    -0.257 OA
BRANCH  22  24
ATOM     24  C   UNL d   1     -41.827-123.448 -48.759  0.00  0.00     0.163 A 
ATOM     25  O   UNL d   1     -42.406-123.190 -48.232  0.00  0.00    -0.300 OA
ATOM     26  C   UNL d   1     -42.126-123.327 -47.467  0.00  0.00     0.123 A 
ATOM     27  C   UNL d   1     -41.379-123.666 -47.519  0.00  0.00     0.029 A 
ATOM     28  C   UNL d   1     -41.190-123.742 -48.323  0.00  0.00     0.032 A 
ENDBRANCH  22  24
ENDBRANCH  21  22
ENDBRANCH  10  21
TORSDOF 5
ENDMDL
MODEL 3
REMARK VINA RESULT:      -1.8      0.910      5.343
REMARK  5 active torsions:
REMARK  status: ('A' for Active; 'I' for Inactive)
REMARK    1  A    between atoms: C_8  and  C_1 
REMARK    2  A    between atoms: C_7  and  O_11 
REMARK    3  A    between atoms: C_9  and  C_7 
REMARK    4  A    between atoms: O_11  and  C_15 
REMARK    5  A    between atoms: O_23  and  C_18 
ROOT
ATOM      1  C   UNL d   1     -41.753-122.181 -53.846  0.00  0.00     0.064 A 
ATOM      2  C   UNL d   1     -41.516-122.907 -53.528  0.00  0.00     0.199 A 
ATOM      3  C   UNL d   1     -41.923-121.548 -53.345  0.00  0.00     0.103 A 
ATOM      4  C   UNL d   1     -41.450-122.997 -52.712  0.00  0.00     0.062 A 
ATOM      5  C   UNL d   1     -41.621-122.364 -52.211  0.00  0.00     0.105 A 
ATOM      6  O   UNL d   1     -41.857-121.641 -52.526  0.00  0.00    -0.307 OA
ATOM      7  C   UNL d   1     -41.555-122.454 -51.395  0.00  0.00     0.050 A 
ATOM      8  C   UNL d   1     -41.214-123.721 -52.397  0.00  0.00     0.007 A 
ATOM      9  O   UNL d   1     -41.345-123.540 -54.028  0.00  0.00    -0.286 OA
ATOM     10  C   UNL d   1     -41.316-123.188 -51.079  0.00  0.00     0.105 A 
ATOM     11  C   UNL d   1     -41.147-123.814 -51.575  0.00  0.00     0.025 A 
ATOM     12  C   UNL d   1     -42.159-120.825 -53.661  0.00  0.00     0.027 C 
ENDROOT
BRANCH   1  13
ATOM     13  C   UNL d   1     -41.817-122.097 -54.667  0.00  0.00     0.027 A 
ATOM     14  C   UNL d   1     -42.554-122.126 -55.036  0.00  0.00     0.094 A 
ATOM     15  C   UNL d   1     -42.610-122.042 -55.852  0.00  0.00     0.024 A 
ATOM     16  C   UNL d   1     -41.926-121.928 -56.308  0.00  0.00     0.002 A 
ATOM     17  C   UNL d   1     -41.181-121.899 -55.936  0.00  0.00     0.000 A 
ATOM     18  C   UNL d   1     -41.124-121.983 -55.119  0.00  0.00     0.002 A 
BRANCH  14  19
ATOM     19  O   UNL d   1     -43.228-122.239 -54.583  0.00  0.00    -0.328 OA
ATOM     20  C   UNL d   1     -43.962-122.302 -54.955  0.00  0.00     0.181 C 
ENDBRANCH  14  19
ENDBRANCH   1  13
BRANCH  10  21
ATOM     21  O   UNL d   1     -41.251-123.274 -50.255  0.00  0.00    -0.271 OA
BRANCH  21  22
ATOM     22  C   UNL d   1     -41.939-123.360 -49.804  0.00  0.00     0.323 C 
ATOM     23  O   UNL d   1     -42.666-123.505 -50.170  0.00  0.00    -0.257 OA
BRANCH  22  24
ATOM     24  C   UNL d   1     -41.899-123.300 -48.977  0.00  0.00     0.163 A 
ATOM     25  O   UNL d   1     -41.263-123.001 -48.547  0.00  0.00    -0.300 OA
ATOM     26  C   UNL d   1     -41.460-123.046 -47.746  0.00  0.00     0.123 A 
ATOM     27  C   UNL d   1     -42.213-123.371 -47.681  0.00  0.00     0.029 A 
ATOM     28  C   UNL d   1     -42.488-123.530 -48.446  0.00  0.00     0.032 A 
ENDBRANCH  22  24
ENDBRANCH  21  22
ENDBRANCH  10  21
TORSDOF 5
ENDMDL
