MODEL 1
REMARK VINA RESULT:       1.3      0.000      0.000
REMARK  8 active torsions:
REMARK  status: ('A' for Active; 'I' for Inactive)
REMARK    1  A    between atoms: C_3  and  N_1 
REMARK    2  A    between atoms: C_6  and  N_2 
REMARK    3  A    between atoms: C_4  and  C_3 
REMARK    4  A    between atoms: C_7  and  C_3 
REMARK       I    between atoms: C_5  and  N_8 
REMARK    5  A    between atoms: O_18  and  C_5 
REMARK    6  A    between atoms: N_8  and  C_7 
REMARK    7  A    between atoms: C_21  and  O_18 
REMARK    8  A    between atoms: C_22  and  C_21 
ROOT
ATOM      1  C   UNL d   1      59.177   0.083  30.617  0.00  0.00     0.107 C 
ENDROOT
BRANCH   1   2
ATOM      2  N   UNL d   1      59.131  -0.660  30.244  0.00  0.00    -0.298 N 
ATOM      3  C   UNL d   1      59.058  -1.339  30.707  0.00  0.00     0.100 A 
ATOM      4  C   UNL d   1      59.012  -2.081  30.348  0.00  0.00     0.100 A 
ATOM      5  N   UNL d   1      59.039  -2.144  29.526  0.00  0.00    -0.299 N 
ATOM      6  C   UNL d   1      59.112  -1.464  29.067  0.00  0.00     0.100 A 
ATOM      7  C   UNL d   1      59.158  -0.723  29.422  0.00  0.00     0.100 A 
BRANCH   5   8
ATOM      8  C   UNL d   1      58.993  -2.880  29.171  0.00  0.00     0.092 A 
ATOM      9  C   UNL d   1      59.675  -3.258  28.905  0.00  0.00     0.156 A 
ATOM     10  F   UNL d   1      60.408  -2.891  28.997  0.00  0.00    -0.203 F 
ATOM     11  C   UNL d   1      59.631  -3.998  28.548  0.00  0.00     0.031 A 
ATOM     12  C   UNL d   1      58.898  -4.365  28.456  0.00  0.00     0.002 A 
ATOM     13  C   UNL d   1      58.210  -3.987  28.723  0.00  0.00     0.002 A 
ATOM     14  C   UNL d   1      58.260  -3.247  29.079  0.00  0.00     0.020 A 
ENDBRANCH   5   8
ENDBRANCH   1   2
BRANCH   1  15
ATOM     15  C   UNL d   1      59.867   0.315  31.005  0.00  0.00     0.118 A 
ATOM     16  O   UNL d   1      59.864   0.444  31.817  0.00  0.00    -0.304 OA
ATOM     17  C   UNL d   1      60.630   0.670  32.043  0.00  0.00     0.123 A 
ATOM     18  C   UNL d   1      61.096   0.678  31.375  0.00  0.00     0.029 A 
ATOM     19  C   UNL d   1      60.634   0.462  30.735  0.00  0.00     0.028 A 
ENDBRANCH   1  15
BRANCH   1  20
ATOM     20  C   UNL d   1      58.519   0.594  30.596  0.00  0.00     0.124 C 
BRANCH  20  21
ATOM     21  N   UNL d   1      57.966   0.579  31.208  0.00  0.00    -0.183 NA
ATOM     22  C   UNL d   1      57.161   0.569  31.036  0.00  0.00     0.392 C 
ATOM     23  O   UNL d   1      56.903   0.574  30.258  0.00  0.00    -0.236 OA
BRANCH  22  24
ATOM     24  O   UNL d   1      56.611   0.554  31.651  0.00  0.00    -0.256 OA
BRANCH  24  25
ATOM     25  C   UNL d   1      56.728   0.060  32.297  0.00  0.00     0.128 C 
BRANCH  25  26
ATOM     26  C   UNL d   1      56.109  -0.088  32.822  0.00  0.00     0.025 A 
ATOM     27  C   UNL d   1      55.810   0.522  33.290  0.00  0.00     0.002 A 
ATOM     28  C   UNL d   1      55.192   0.373  33.815  0.00  0.00     0.000 A 
ATOM     29  C   UNL d   1      54.872  -0.386  33.872  0.00  0.00     0.000 A 
ATOM     30  C   UNL d   1      55.172  -0.988  33.407  0.00  0.00     0.000 A 
ATOM     31  C   UNL d   1      55.791  -0.847  32.879  0.00  0.00     0.002 A 
ENDBRANCH  25  26
ENDBRANCH  24  25
ENDBRANCH  22  24
ENDBRANCH  20  21
ENDBRANCH   1  20
TORSDOF 8
ENDMDL
MODEL 2
REMARK VINA RESULT:       4.0      3.265      6.266
REMARK  8 active torsions:
REMARK  status: ('A' for Active; 'I' for Inactive)
REMARK    1  A    between atoms: C_3  and  N_1 
REMARK    2  A    between atoms: C_6  and  N_2 
REMARK    3  A    between atoms: C_4  and  C_3 
REMARK    4  A    between atoms: C_7  and  C_3 
REMARK       I    between atoms: C_5  and  N_8 
REMARK    5  A    between atoms: O_18  and  C_5 
REMARK    6  A    between atoms: N_8  and  C_7 
REMARK    7  A    between atoms: C_21  and  O_18 
REMARK    8  A    between atoms: C_22  and  C_21 
ROOT
ATOM      1  C   UNL d   1      59.136  -4.203  28.771  0.00  0.00     0.107 C 
ENDROOT
BRANCH   1   2
ATOM      2  N   UNL d   1      59.040  -3.400  28.969  0.00  0.00    -0.298 N 
ATOM      3  C   UNL d   1      59.398  -2.823  28.499  0.00  0.00     0.100 A 
ATOM      4  C   UNL d   1      59.309  -2.024  28.686  0.00  0.00     0.100 A 
ATOM      5  N   UNL d   1      58.863  -1.802  29.343  0.00  0.00    -0.299 N 
ATOM      6  C   UNL d   1      58.507  -2.380  29.809  0.00  0.00     0.100 A 
ATOM      7  C   UNL d   1      58.593  -3.177  29.626  0.00  0.00     0.100 A 
BRANCH   5   8
ATOM      8  C   UNL d   1      58.776  -1.009  29.527  0.00  0.00     0.092 A 
ATOM      9  C   UNL d   1      59.402  -0.485  29.422  0.00  0.00     0.156 A 
ATOM     10  F   UNL d   1      60.122  -0.763  29.130  0.00  0.00    -0.203 F 
ATOM     11  C   UNL d   1      59.317   0.312  29.607  0.00  0.00     0.031 A 
ATOM     12  C   UNL d   1      58.597   0.590  29.900  0.00  0.00     0.002 A 
ATOM     13  C   UNL d   1      57.965   0.064  30.006  0.00  0.00     0.002 A 
ATOM     14  C   UNL d   1      58.056  -0.732  29.820  0.00  0.00     0.020 A 
ENDBRANCH   5   8
ENDBRANCH   1   2
BRANCH   1  15
ATOM     15  C   UNL d   1      59.875  -4.564  28.833  0.00  0.00     0.118 A 
ATOM     16  O   UNL d   1      60.022  -5.279  28.455  0.00  0.00    -0.304 OA
ATOM     17  C   UNL d   1      60.805  -5.500  28.619  0.00  0.00     0.123 A 
ATOM     18  C   UNL d   1      61.133  -4.925  29.094  0.00  0.00     0.029 A 
ATOM     19  C   UNL d   1      60.568  -4.348  29.228  0.00  0.00     0.028 A 
ENDBRANCH   1  15
BRANCH   1  20
ATOM     20  C   UNL d   1      58.479  -4.643  28.508  0.00  0.00     0.124 C 
BRANCH  20  21
ATOM     21  N   UNL d   1      58.519  -5.466  28.479  0.00  0.00    -0.183 NA
ATOM     22  C   UNL d   1      57.830  -5.914  28.516  0.00  0.00     0.392 C 
ATOM     23  O   UNL d   1      57.101  -5.548  28.583  0.00  0.00    -0.236 OA
BRANCH  22  24
ATOM     24  O   UNL d   1      57.875  -6.737  28.487  0.00  0.00    -0.256 OA
BRANCH  24  25
ATOM     25  C   UNL d   1      57.193  -7.191  28.554  0.00  0.00     0.128 C 
BRANCH  25  26
ATOM     26  C   UNL d   1      57.247  -8.010  28.633  0.00  0.00     0.025 A 
ATOM     27  C   UNL d   1      57.986  -8.370  28.708  0.00  0.00     0.002 A 
ATOM     28  C   UNL d   1      58.039  -9.190  28.787  0.00  0.00     0.000 A 
ATOM     29  C   UNL d   1      57.353  -9.649  28.792  0.00  0.00     0.000 A 
ATOM     30  C   UNL d   1      56.623  -9.288  28.718  0.00  0.00     0.000 A 
ATOM     31  C   UNL d   1      56.561  -8.469  28.638  0.00  0.00     0.002 A 
ENDBRANCH  25  26
ENDBRANCH  24  25
ENDBRANCH  22  24
ENDBRANCH  20  21
ENDBRANCH   1  20
TORSDOF 8
ENDMDL
