MODEL 1
REMARK VINA RESULT:      -2.8      0.000      0.000
REMARK  3 active torsions:
REMARK  status: ('A' for Active; 'I' for Inactive)
REMARK    1  A    between atoms: C_10  and  C_4 
REMARK    2  A    between atoms: C_13  and  C_10 
REMARK    3  A    between atoms: C_11  and  C_13 
ROOT
ATOM      1  C   UNL d   1      29.596  15.871 -23.419  0.00  0.00     0.752 A 
ATOM      2  N   UNL d   1      29.445  16.495 -23.936  0.00  0.00    -0.056 N 
ATOM      3  N   UNL d   1      30.376  15.669 -23.249  0.00  0.00    -0.059 NA
ATOM      4  C   UNL d   1      30.845  16.709 -24.108  0.00  0.00     0.037 A 
ATOM      5  C   UNL d   1      30.067  16.918 -24.284  0.00  0.00     0.102 A 
ATOM      6  N   UNL d   1      28.881  15.568 -23.170  0.00  0.00    -0.035 NA
ATOM      7  C   UNL d   1      31.000  16.085 -23.590  0.00  0.00     0.101 A 
ATOM      8  N   UNL d   1      28.629  16.572 -24.002  0.00  0.00    -0.127 NA
ATOM      9  C   UNL d   1      28.272  15.996 -23.527  0.00  0.00     0.239 A 
ATOM     10  C   UNL d   1      29.910  17.535 -24.796  0.00  0.00     0.021 C 
ATOM     11  C   UNL d   1      31.778  15.876 -23.415  0.00  0.00     0.021 C 
ENDROOT
BRANCH   4  12
ATOM     12  C   UNL d   1      31.468  17.118 -24.444  0.00  0.00     0.009 C 
BRANCH  12  13
ATOM     13  C   UNL d   1      31.827  17.739 -24.036  0.00  0.00     0.070 C 
BRANCH  13  14
ATOM     14  C   UNL d   1      32.429  18.172 -24.394  0.00  0.00     0.211 C 
ATOM     15  O   UNL d   1      32.771  17.906 -25.096  0.00  0.00    -0.644 OA
ATOM     16  O   UNL d   1      32.693  18.873 -24.051  0.00  0.00    -0.644 OA
ENDBRANCH  13  14
ENDBRANCH  12  13
ENDBRANCH   4  12
TORSDOF 3
ENDMDL
MODEL 2
REMARK VINA RESULT:      -2.7      2.332      3.221
REMARK  3 active torsions:
REMARK  status: ('A' for Active; 'I' for Inactive)
REMARK    1  A    between atoms: C_10  and  C_4 
REMARK    2  A    between atoms: C_13  and  C_10 
REMARK    3  A    between atoms: C_11  and  C_13 
ROOT
ATOM      1  C   UNL d   1      32.241  17.242 -23.674  0.00  0.00     0.752 A 
ATOM      2  N   UNL d   1      31.725  17.635 -24.182  0.00  0.00    -0.056 N 
ATOM      3  N   UNL d   1      32.019  16.515 -23.358  0.00  0.00    -0.059 NA
ATOM      4  C   UNL d   1      30.776  16.579 -24.057  0.00  0.00     0.037 A 
ATOM      5  C   UNL d   1      30.990  17.308 -24.378  0.00  0.00     0.102 A 
ATOM      6  N   UNL d   1      32.912  17.698 -23.589  0.00  0.00    -0.035 NA
ATOM      7  C   UNL d   1      31.289  16.182 -23.548  0.00  0.00     0.101 A 
ATOM      8  N   UNL d   1      32.087  18.339 -24.409  0.00  0.00    -0.127 NA
ATOM      9  C   UNL d   1      32.827  18.383 -24.042  0.00  0.00     0.239 A 
ATOM     10  C   UNL d   1      30.483  17.702 -24.883  0.00  0.00     0.021 C 
ATOM     11  C   UNL d   1      31.075  15.453 -23.227  0.00  0.00     0.021 C 
ENDROOT
BRANCH   4  12
ATOM     12  C   UNL d   1      30.052  16.244 -24.242  0.00  0.00     0.009 C 
BRANCH  12  13
ATOM     13  C   UNL d   1      29.414  16.321 -23.725  0.00  0.00     0.070 C 
BRANCH  13  14
ATOM     14  C   UNL d   1      28.670  16.045 -23.948  0.00  0.00     0.211 C 
ATOM     15  O   UNL d   1      28.599  15.455 -24.519  0.00  0.00    -0.644 OA
ATOM     16  O   UNL d   1      27.993  16.361 -23.598  0.00  0.00    -0.644 OA
ENDBRANCH  13  14
ENDBRANCH  12  13
ENDBRANCH   4  12
TORSDOF 3
ENDMDL
MODEL 3
REMARK VINA RESULT:      -2.5      0.618      1.556
REMARK  3 active torsions:
REMARK  status: ('A' for Active; 'I' for Inactive)
REMARK    1  A    between atoms: C_10  and  C_4 
REMARK    2  A    between atoms: C_13  and  C_10 
REMARK    3  A    between atoms: C_11  and  C_13 
ROOT
ATOM      1  C   UNL d   1      28.712  16.510 -23.898  0.00  0.00     0.752 A 
ATOM      2  N   UNL d   1      29.351  16.060 -23.637  0.00  0.00    -0.056 N 
ATOM      3  N   UNL d   1      28.849  17.160 -24.384  0.00  0.00    -0.059 NA
ATOM      4  C   UNL d   1      30.254  16.908 -24.344  0.00  0.00     0.037 A 
ATOM      5  C   UNL d   1      30.125  16.254 -23.858  0.00  0.00     0.102 A 
ATOM      6  N   UNL d   1      28.030  16.185 -23.592  0.00  0.00    -0.035 NA
ATOM      7  C   UNL d   1      29.616  17.361 -24.608  0.00  0.00     0.101 A 
ATOM      8  N   UNL d   1      29.054  15.453 -23.167  0.00  0.00    -0.127 NA
ATOM      9  C   UNL d   1      28.230  15.526 -23.135  0.00  0.00     0.239 A 
ATOM     10  C   UNL d   1      30.755  15.804 -23.596  0.00  0.00     0.021 C 
ATOM     11  C   UNL d   1      29.745  18.014 -25.094  0.00  0.00     0.021 C 
ENDROOT
BRANCH   4  12
ATOM     12  C   UNL d   1      31.014  17.111 -24.570  0.00  0.00     0.009 C 
BRANCH  12  13
ATOM     13  C   UNL d   1      31.464  17.619 -24.102  0.00  0.00     0.070 C 
BRANCH  13  14
ATOM     14  C   UNL d   1      32.228  17.823 -24.334  0.00  0.00     0.211 C 
ATOM     15  O   UNL d   1      32.680  18.337 -23.874  0.00  0.00    -0.644 OA
ATOM     16  O   UNL d   1      32.543  17.513 -25.031  0.00  0.00    -0.644 OA
ENDBRANCH  13  14
ENDBRANCH  12  13
ENDBRANCH   4  12
TORSDOF 3
ENDMDL
MODEL 4
REMARK VINA RESULT:      -2.0      4.293      5.397
REMARK  3 active torsions:
REMARK  status: ('A' for Active; 'I' for Inactive)
REMARK    1  A    between atoms: C_10  and  C_4 
REMARK    2  A    between atoms: C_13  and  C_10 
REMARK    3  A    between atoms: C_11  and  C_13 
ROOT
ATOM      1  C   UNL d   1      33.113  19.431 -22.606  0.00  0.00     0.752 A 
ATOM      2  N   UNL d   1      33.156  20.012 -23.188  0.00  0.00    -0.056 N 
ATOM      3  N   UNL d   1      33.113  19.653 -21.814  0.00  0.00    -0.059 NA
ATOM      4  C   UNL d   1      33.198  21.028 -22.189  0.00  0.00     0.037 A 
ATOM      5  C   UNL d   1      33.199  20.814 -22.985  0.00  0.00     0.102 A 
ATOM      6  N   UNL d   1      33.078  18.703 -22.974  0.00  0.00    -0.035 NA
ATOM      7  C   UNL d   1      33.155  20.449 -21.603  0.00  0.00     0.101 A 
ATOM      8  N   UNL d   1      33.147  19.634 -23.920  0.00  0.00    -0.127 NA
ATOM      9  C   UNL d   1      33.098  18.818 -23.792  0.00  0.00     0.239 A 
ATOM     10  C   UNL d   1      33.241  21.386 -23.567  0.00  0.00     0.021 C 
ATOM     11  C   UNL d   1      33.155  20.664 -20.807  0.00  0.00     0.021 C 
ENDROOT
BRANCH   4  12
ATOM     12  C   UNL d   1      33.240  21.817 -21.974  0.00  0.00     0.009 C 
BRANCH  12  13
ATOM     13  C   UNL d   1      32.575  22.202 -21.675  0.00  0.00     0.070 C 
BRANCH  13  14
ATOM     14  C   UNL d   1      32.539  23.025 -21.681  0.00  0.00     0.211 C 
ATOM     15  O   UNL d   1      33.216  23.472 -21.535  0.00  0.00    -0.644 OA
ATOM     16  O   UNL d   1      31.823  23.405 -21.834  0.00  0.00    -0.644 OA
ENDBRANCH  13  14
ENDBRANCH  12  13
ENDBRANCH   4  12
TORSDOF 3
ENDMDL
MODEL 5
REMARK VINA RESULT:      -2.0      5.001      5.977
REMARK  3 active torsions:
REMARK  status: ('A' for Active; 'I' for Inactive)
REMARK    1  A    between atoms: C_10  and  C_4 
REMARK    2  A    between atoms: C_13  and  C_10 
REMARK    3  A    between atoms: C_11  and  C_13 
ROOT
ATOM      1  C   UNL d   1      32.502  22.437 -21.034  0.00  0.00     0.752 A 
ATOM      2  N   UNL d   1      32.694  22.454 -21.835  0.00  0.00    -0.056 N 
ATOM      3  N   UNL d   1      32.558  21.728 -20.621  0.00  0.00    -0.059 NA
ATOM      4  C   UNL d   1      32.997  21.061 -21.804  0.00  0.00     0.037 A 
ATOM      5  C   UNL d   1      32.943  21.768 -22.226  0.00  0.00     0.102 A 
ATOM      6  N   UNL d   1      32.279  23.189 -20.809  0.00  0.00    -0.035 NA
ATOM      7  C   UNL d   1      32.805  21.040 -21.002  0.00  0.00     0.101 A 
ATOM      8  N   UNL d   1      32.588  23.226 -22.101  0.00  0.00    -0.127 NA
ATOM      9  C   UNL d   1      32.329  23.689 -21.466  0.00  0.00     0.239 A 
ATOM     10  C   UNL d   1      33.133  21.791 -23.020  0.00  0.00     0.021 C 
ATOM     11  C   UNL d   1      32.858  20.333 -20.581  0.00  0.00     0.021 C 
ENDROOT
BRANCH   4  12
ATOM     12  C   UNL d   1      33.241  20.375 -22.179  0.00  0.00     0.009 C 
BRANCH  12  13
ATOM     13  C   UNL d   1      32.686  19.826 -22.443  0.00  0.00     0.070 C 
BRANCH  13  14
ATOM     14  C   UNL d   1      32.934  19.160 -22.861  0.00  0.00     0.211 C 
ATOM     15  O   UNL d   1      32.946  19.167 -23.685  0.00  0.00    -0.644 OA
ATOM     16  O   UNL d   1      33.170  18.483 -22.454  0.00  0.00    -0.644 OA
ENDBRANCH  13  14
ENDBRANCH  12  13
ENDBRANCH   4  12
TORSDOF 3
ENDMDL
MODEL 6
REMARK VINA RESULT:      -1.9      3.737      4.947
REMARK  3 active torsions:
REMARK  status: ('A' for Active; 'I' for Inactive)
REMARK    1  A    between atoms: C_10  and  C_4 
REMARK    2  A    between atoms: C_13  and  C_10 
REMARK    3  A    between atoms: C_11  and  C_13 
ROOT
ATOM      1  C   UNL d   1      33.239  21.067 -22.768  0.00  0.00     0.752 A 
ATOM      2  N   UNL d   1      33.235  20.526 -22.147  0.00  0.00    -0.056 N 
ATOM      3  N   UNL d   1      33.241  20.790 -23.543  0.00  0.00    -0.059 NA
ATOM      4  C   UNL d   1      33.235  19.442 -23.074  0.00  0.00     0.037 A 
ATOM      5  C   UNL d   1      33.233  19.711 -22.294  0.00  0.00     0.102 A 
ATOM      6  N   UNL d   1      33.240  21.819 -22.452  0.00  0.00    -0.035 NA
ATOM      7  C   UNL d   1      33.239  19.981 -23.698  0.00  0.00     0.101 A 
ATOM      8  N   UNL d   1      33.235  20.954 -21.444  0.00  0.00    -0.127 NA
ATOM      9  C   UNL d   1      33.238  21.761 -21.628  0.00  0.00     0.239 A 
ATOM     10  C   UNL d   1      33.230  19.179 -21.673  0.00  0.00     0.021 C 
ATOM     11  C   UNL d   1      33.240  19.711 -24.478  0.00  0.00     0.021 C 
ENDROOT
BRANCH   4  12
ATOM     12  C   UNL d   1      33.233  18.639 -23.233  0.00  0.00     0.009 C 
BRANCH  12  13
ATOM     13  C   UNL d   1      32.527  18.213 -23.212  0.00  0.00     0.070 C 
BRANCH  13  14
ATOM     14  C   UNL d   1      32.523  17.415 -23.418  0.00  0.00     0.211 C 
ATOM     15  O   UNL d   1      31.835  17.064 -23.706  0.00  0.00    -0.644 OA
ATOM     16  O   UNL d   1      33.209  16.965 -23.335  0.00  0.00    -0.644 OA
ENDBRANCH  13  14
ENDBRANCH  12  13
ENDBRANCH   4  12
TORSDOF 3
ENDMDL
MODEL 7
REMARK VINA RESULT:      -1.6      4.926      6.065
REMARK  3 active torsions:
REMARK  status: ('A' for Active; 'I' for Inactive)
REMARK    1  A    between atoms: C_10  and  C_4 
REMARK    2  A    between atoms: C_13  and  C_10 
REMARK    3  A    between atoms: C_11  and  C_13 
ROOT
ATOM      1  C   UNL d   1      33.074  20.294 -22.730  0.00  0.00     0.752 A 
ATOM      2  N   UNL d   1      33.148  20.020 -21.956  0.00  0.00    -0.056 N 
ATOM      3  N   UNL d   1      33.012  21.103 -22.866  0.00  0.00    -0.059 NA
ATOM      4  C   UNL d   1      33.096  21.357 -21.463  0.00  0.00     0.037 A 
ATOM      5  C   UNL d   1      33.159  20.548 -21.318  0.00  0.00     0.102 A 
ATOM      6  N   UNL d   1      33.080  19.650 -23.230  0.00  0.00    -0.035 NA
ATOM      7  C   UNL d   1      33.023  21.636 -22.237  0.00  0.00     0.101 A 
ATOM      8  N   UNL d   1      33.199  19.199 -21.986  0.00  0.00    -0.127 NA
ATOM      9  C   UNL d   1      33.158  18.963 -22.778  0.00  0.00     0.239 A 
ATOM     10  C   UNL d   1      33.232  20.270 -20.553  0.00  0.00     0.021 C 
ATOM     11  C   UNL d   1      32.959  22.445 -22.382  0.00  0.00     0.021 C 
ENDROOT
BRANCH   4  12
ATOM     12  C   UNL d   1      33.106  21.890 -20.842  0.00  0.00     0.009 C 
BRANCH  12  13
ATOM     13  C   UNL d   1      32.425  22.309 -20.643  0.00  0.00     0.070 C 
BRANCH  13  14
ATOM     14  C   UNL d   1      32.472  22.947 -20.123  0.00  0.00     0.211 C 
ATOM     15  O   UNL d   1      32.045  23.636 -20.270  0.00  0.00    -0.644 OA
ATOM     16  O   UNL d   1      32.947  22.895 -19.451  0.00  0.00    -0.644 OA
ENDBRANCH  13  14
ENDBRANCH  12  13
ENDBRANCH   4  12
TORSDOF 3
ENDMDL
MODEL 8
REMARK VINA RESULT:      -1.6      3.022      4.014
REMARK  3 active torsions:
REMARK  status: ('A' for Active; 'I' for Inactive)
REMARK    1  A    between atoms: C_10  and  C_4 
REMARK    2  A    between atoms: C_13  and  C_10 
REMARK    3  A    between atoms: C_11  and  C_13 
ROOT
ATOM      1  C   UNL d   1      32.912  19.445 -23.253  0.00  0.00     0.752 A 
ATOM      2  N   UNL d   1      33.082  18.860 -22.699  0.00  0.00    -0.056 N 
ATOM      3  N   UNL d   1      32.731  19.228 -24.026  0.00  0.00    -0.059 NA
ATOM      4  C   UNL d   1      32.889  17.850 -23.688  0.00  0.00     0.037 A 
ATOM      5  C   UNL d   1      33.072  18.059 -22.912  0.00  0.00     0.102 A 
ATOM      6  N   UNL d   1      32.965  20.170 -22.883  0.00  0.00    -0.035 NA
ATOM      7  C   UNL d   1      32.719  18.434 -24.246  0.00  0.00     0.101 A 
ATOM      8  N   UNL d   1      33.240  19.232 -21.983  0.00  0.00    -0.127 NA
ATOM      9  C   UNL d   1      33.169  20.049 -22.091  0.00  0.00     0.239 A 
ATOM     10  C   UNL d   1      33.241  17.482 -22.357  0.00  0.00     0.021 C 
ATOM     11  C   UNL d   1      32.537  18.225 -25.022  0.00  0.00     0.021 C 
ENDROOT
BRANCH   4  12
ATOM     12  C   UNL d   1      32.876  17.063 -23.911  0.00  0.00     0.009 C 
BRANCH  12  13
ATOM     13  C   UNL d   1      32.168  16.707 -24.137  0.00  0.00     0.070 C 
BRANCH  13  14
ATOM     14  C   UNL d   1      32.126  15.887 -24.215  0.00  0.00     0.211 C 
ATOM     15  O   UNL d   1      31.450  15.481 -23.975  0.00  0.00    -0.644 OA
ATOM     16  O   UNL d   1      32.763  15.471 -24.533  0.00  0.00    -0.644 OA
ENDBRANCH  13  14
ENDBRANCH  12  13
ENDBRANCH   4  12
TORSDOF 3
ENDMDL
MODEL 9
REMARK VINA RESULT:      -1.2      6.131      7.051
REMARK  3 active torsions:
REMARK  status: ('A' for Active; 'I' for Inactive)
REMARK    1  A    between atoms: C_10  and  C_4 
REMARK    2  A    between atoms: C_13  and  C_10 
REMARK    3  A    between atoms: C_11  and  C_13 
ROOT
ATOM      1  C   UNL d   1      33.085  22.220 -19.742  0.00  0.00     0.752 A 
ATOM      2  N   UNL d   1      32.774  22.921 -20.042  0.00  0.00    -0.056 N 
ATOM      3  N   UNL d   1      33.239  21.596 -20.256  0.00  0.00    -0.059 NA
ATOM      4  C   UNL d   1      32.773  22.373 -21.359  0.00  0.00     0.037 A 
ATOM      5  C   UNL d   1      32.616  23.004 -20.851  0.00  0.00     0.102 A 
ATOM      6  N   UNL d   1      33.179  22.307 -18.937  0.00  0.00    -0.035 NA
ATOM      7  C   UNL d   1      33.084  21.669 -21.062  0.00  0.00     0.101 A 
ATOM      8  N   UNL d   1      32.678  23.442 -19.412  0.00  0.00    -0.127 NA
ATOM      9  C   UNL d   1      32.929  23.063 -18.720  0.00  0.00     0.239 A 
ATOM     10  C   UNL d   1      32.307  23.702 -21.143  0.00  0.00     0.021 C 
ATOM     11  C   UNL d   1      33.241  21.039 -21.570  0.00  0.00     0.021 C 
ENDROOT
BRANCH   4  12
ATOM     12  C   UNL d   1      32.621  22.441 -22.160  0.00  0.00     0.009 C 
BRANCH  12  13
ATOM     13  C   UNL d   1      33.232  22.617 -22.685  0.00  0.00     0.070 C 
BRANCH  13  14
ATOM     14  C   UNL d   1      33.139  22.464 -23.490  0.00  0.00     0.211 C 
ATOM     15  O   UNL d   1      32.944  23.074 -24.009  0.00  0.00    -0.644 OA
ATOM     16  O   UNL d   1      33.241  21.698 -23.777  0.00  0.00    -0.644 OA
ENDBRANCH  13  14
ENDBRANCH  12  13
ENDBRANCH   4  12
TORSDOF 3
ENDMDL
