MODEL 1
REMARK VINA RESULT:      -3.6      0.000      0.000
REMARK  3 active torsions:
REMARK  status: ('A' for Active; 'I' for Inactive)
REMARK    1  A    between atoms: C_8  and  C_4 
REMARK    2  A    between atoms: N_5  and  C_7 
REMARK    3  A    between atoms: C_12  and  C_6 
ROOT
ATOM      1  O   UNL d   1      32.760  20.276 -22.536  0.00  0.00    -0.268 OA
ATOM      2  N   UNL d   1      33.241  19.258 -21.818  0.00  0.00    -0.121 NA
ATOM      3  N   UNL d   1      33.213  19.920 -21.327  0.00  0.00    -0.121 NA
ATOM      4  C   UNL d   1      32.965  19.472 -22.558  0.00  0.00     0.204 A 
ATOM      5  C   UNL d   1      32.917  20.552 -21.766  0.00  0.00     0.204 A 
ENDROOT
BRANCH   4   6
ATOM      6  C   UNL d   1      32.896  18.981 -23.222  0.00  0.00     0.045 A 
ATOM      7  C   UNL d   1      32.488  18.267 -23.167  0.00  0.00     0.027 A 
ATOM      8  C   UNL d   1      32.422  17.783 -23.827  0.00  0.00     0.127 A 
ATOM      9  C   UNL d   1      32.764  18.010 -24.545  0.00  0.00     0.024 A 
ATOM     10  C   UNL d   1      33.171  18.721 -24.602  0.00  0.00     0.002 A 
ATOM     11  C   UNL d   1      33.238  19.208 -23.940  0.00  0.00     0.004 A 
BRANCH   8  12
ATOM     12  N   UNL d   1      32.008  17.062 -23.766  0.00  0.00    -0.114 N 
ATOM     13  O   UNL d   1      31.180  17.053 -23.853  0.00  0.00    -0.532 OA
ATOM     14  O   UNL d   1      32.414  16.358 -23.620  0.00  0.00    -0.532 OA
ENDBRANCH   8  12
ENDBRANCH   4   6
BRANCH   5  15
ATOM     15  C   UNL d   1      32.798  21.317 -21.491  0.00  0.00     0.043 A 
ATOM     16  C   UNL d   1      33.241  21.939 -21.797  0.00  0.00     0.004 A 
ATOM     17  C   UNL d   1      33.118  22.711 -21.517  0.00  0.00     0.000 A 
ATOM     18  C   UNL d   1      32.553  22.852 -20.934  0.00  0.00     0.000 A 
ATOM     19  C   UNL d   1      32.110  22.220 -20.631  0.00  0.00     0.000 A 
ATOM     20  C   UNL d   1      32.227  21.452 -20.905  0.00  0.00     0.004 A 
ENDBRANCH   5  15
TORSDOF 3
ENDMDL
MODEL 2
REMARK VINA RESULT:      -3.4      2.427      5.067
REMARK  3 active torsions:
REMARK  status: ('A' for Active; 'I' for Inactive)
REMARK    1  A    between atoms: C_8  and  C_4 
REMARK    2  A    between atoms: N_5  and  C_7 
REMARK    3  A    between atoms: C_12  and  C_6 
ROOT
ATOM      1  O   UNL d   1      30.898  16.955 -23.942  0.00  0.00    -0.268 OA
ATOM      2  N   UNL d   1      31.960  16.154 -23.813  0.00  0.00    -0.121 NA
ATOM      3  N   UNL d   1      31.283  15.684 -23.761  0.00  0.00    -0.121 NA
ATOM      4  C   UNL d   1      31.728  16.931 -23.924  0.00  0.00     0.204 A 
ATOM      5  C   UNL d   1      30.625  16.175 -23.840  0.00  0.00     0.204 A 
ENDROOT
BRANCH   4   6
ATOM      6  C   UNL d   1      32.225  17.589 -24.005  0.00  0.00     0.045 A 
ATOM      7  C   UNL d   1      32.390  18.065 -23.352  0.00  0.00     0.027 A 
ATOM      8  C   UNL d   1      32.884  18.716 -23.436  0.00  0.00     0.127 A 
ATOM      9  C   UNL d   1      33.215  18.894 -24.172  0.00  0.00     0.024 A 
ATOM     10  C   UNL d   1      33.052  18.422 -24.824  0.00  0.00     0.002 A 
ATOM     11  C   UNL d   1      32.556  17.767 -24.741  0.00  0.00     0.004 A 
BRANCH   8  12
ATOM     12  N   UNL d   1      33.047  19.193 -22.773  0.00  0.00    -0.114 N 
ATOM     13  O   UNL d   1      33.238  18.838 -22.044  0.00  0.00    -0.532 OA
ATOM     14  O   UNL d   1      33.020  20.017 -22.834  0.00  0.00    -0.532 OA
ENDBRANCH   8  12
ENDBRANCH   4   6
BRANCH   5  15
ATOM     15  C   UNL d   1      29.839  15.935 -23.821  0.00  0.00     0.043 A 
ATOM     16  C   UNL d   1      29.470  15.787 -23.101  0.00  0.00     0.004 A 
ATOM     17  C   UNL d   1      28.676  15.545 -23.086  0.00  0.00     0.000 A 
ATOM     18  C   UNL d   1      28.260  15.453 -23.792  0.00  0.00     0.000 A 
ATOM     19  C   UNL d   1      28.639  15.604 -24.513  0.00  0.00     0.000 A 
ATOM     20  C   UNL d   1      29.426  15.845 -24.535  0.00  0.00     0.004 A 
ENDBRANCH   5  15
TORSDOF 3
ENDMDL
MODEL 3
REMARK VINA RESULT:      -2.3      1.706      4.639
REMARK  3 active torsions:
REMARK  status: ('A' for Active; 'I' for Inactive)
REMARK    1  A    between atoms: C_8  and  C_4 
REMARK    2  A    between atoms: N_5  and  C_7 
REMARK    3  A    between atoms: C_12  and  C_6 
ROOT
ATOM      1  O   UNL d   1      31.926  18.185 -23.579  0.00  0.00    -0.268 OA
ATOM      2  N   UNL d   1      33.209  17.821 -23.502  0.00  0.00    -0.121 NA
ATOM      3  N   UNL d   1      32.786  17.184 -23.812  0.00  0.00    -0.121 NA
ATOM      4  C   UNL d   1      32.687  18.435 -23.359  0.00  0.00     0.204 A 
ATOM      5  C   UNL d   1      31.993  17.404 -23.862  0.00  0.00     0.204 A 
ENDROOT
BRANCH   4   6
ATOM      6  C   UNL d   1      32.872  19.180 -23.047  0.00  0.00     0.045 A 
ATOM      7  C   UNL d   1      32.942  19.831 -23.549  0.00  0.00     0.027 A 
ATOM      8  C   UNL d   1      33.125  20.568 -23.236  0.00  0.00     0.127 A 
ATOM      9  C   UNL d   1      33.240  20.658 -22.422  0.00  0.00     0.024 A 
ATOM     10  C   UNL d   1      33.171  20.011 -21.921  0.00  0.00     0.002 A 
ATOM     11  C   UNL d   1      32.986  19.270 -22.233  0.00  0.00     0.004 A 
BRANCH   8  12
ATOM     12  N   UNL d   1      33.195  21.222 -23.747  0.00  0.00    -0.114 N 
ATOM     13  O   UNL d   1      33.217  21.103 -24.571  0.00  0.00    -0.532 OA
ATOM     14  O   UNL d   1      33.241  21.988 -23.442  0.00  0.00    -0.532 OA
ENDBRANCH   8  12
ENDBRANCH   4   6
BRANCH   5  15
ATOM     15  C   UNL d   1      31.378  16.935 -24.141  0.00  0.00     0.043 A 
ATOM     16  C   UNL d   1      30.921  17.189 -24.776  0.00  0.00     0.004 A 
ATOM     17  C   UNL d   1      30.301  16.713 -25.056  0.00  0.00     0.000 A 
ATOM     18  C   UNL d   1      30.145  15.988 -24.697  0.00  0.00     0.000 A 
ATOM     19  C   UNL d   1      30.610  15.739 -24.057  0.00  0.00     0.000 A 
ATOM     20  C   UNL d   1      31.227  16.207 -23.775  0.00  0.00     0.004 A 
ENDBRANCH   5  15
TORSDOF 3
ENDMDL
MODEL 4
REMARK VINA RESULT:      -2.3      2.946      4.528
REMARK  3 active torsions:
REMARK  status: ('A' for Active; 'I' for Inactive)
REMARK    1  A    between atoms: C_8  and  C_4 
REMARK    2  A    between atoms: N_5  and  C_7 
REMARK    3  A    between atoms: C_12  and  C_6 
ROOT
ATOM      1  O   UNL d   1      32.913  22.313 -19.033  0.00  0.00    -0.268 OA
ATOM      2  N   UNL d   1      33.139  23.339 -19.857  0.00  0.00    -0.121 NA
ATOM      3  N   UNL d   1      33.082  23.640 -19.092  0.00  0.00    -0.121 NA
ATOM      4  C   UNL d   1      33.036  22.528 -19.825  0.00  0.00     0.204 A 
ATOM      5  C   UNL d   1      32.942  23.010 -18.579  0.00  0.00     0.204 A 
ENDROOT
BRANCH   4   6
ATOM      6  C   UNL d   1      33.051  22.001 -20.465  0.00  0.00     0.045 A 
ATOM      7  C   UNL d   1      32.979  22.286 -21.236  0.00  0.00     0.027 A 
ATOM      8  C   UNL d   1      32.994  21.761 -21.867  0.00  0.00     0.127 A 
ATOM      9  C   UNL d   1      33.081  20.950 -21.732  0.00  0.00     0.024 A 
ATOM     10  C   UNL d   1      33.153  20.664 -20.965  0.00  0.00     0.002 A 
ATOM     11  C   UNL d   1      33.138  21.190 -20.329  0.00  0.00     0.004 A 
BRANCH   8  12
ATOM     12  N   UNL d   1      32.921  22.053 -22.643  0.00  0.00    -0.114 N 
ATOM     13  O   UNL d   1      32.525  22.774 -22.778  0.00  0.00    -0.532 OA
ATOM     14  O   UNL d   1      33.238  21.634 -23.281  0.00  0.00    -0.532 OA
ENDBRANCH   8  12
ENDBRANCH   4   6
BRANCH   5  15
ATOM     15  C   UNL d   1      32.848  23.062 -17.764  0.00  0.00     0.043 A 
ATOM     16  C   UNL d   1      32.368  23.648 -17.440  0.00  0.00     0.004 A 
ATOM     17  C   UNL d   1      32.276  23.698 -16.617  0.00  0.00     0.000 A 
ATOM     18  C   UNL d   1      32.663  23.162 -16.126  0.00  0.00     0.000 A 
ATOM     19  C   UNL d   1      33.145  22.575 -16.459  0.00  0.00     0.000 A 
ATOM     20  C   UNL d   1      33.241  22.520 -17.275  0.00  0.00     0.004 A 
ENDBRANCH   5  15
TORSDOF 3
ENDMDL
