MODEL 1
REMARK VINA RESULT:      -3.4      0.000      0.000
REMARK  6 active torsions:
REMARK  status: ('A' for Active; 'I' for Inactive)
REMARK    1  A    between atoms: C_8  and  C_3 
REMARK    2  A    between atoms: C_6  and  O_10 
REMARK    3  A    between atoms: S_9  and  C_8 
REMARK    4  A    between atoms: C_16  and  S_9 
REMARK    5  A    between atoms: O_10  and  C_17 
REMARK    6  A    between atoms: C_17  and  C_16 
ROOT
ATOM      1  S   UNL d   1      32.953  19.215 -22.451  0.00  0.00    -0.081 SA
ENDROOT
BRANCH   1   2
ATOM      2  C   UNL d   1      33.241  19.985 -22.407  0.00  0.00     0.074 C 
BRANCH   2   3
ATOM      3  C   UNL d   1      32.914  20.514 -21.869  0.00  0.00     0.169 A 
ATOM      4  N   UNL d   1      32.484  20.737 -21.186  0.00  0.00    -0.225 NA
ATOM      5  C   UNL d   1      32.484  21.574 -21.142  0.00  0.00     0.101 A 
ATOM      6  C   UNL d   1      32.913  21.857 -21.798  0.00  0.00     0.101 A 
ATOM      7  C   UNL d   1      32.158  22.118 -20.606  0.00  0.00     0.021 A 
ATOM      8  N   UNL d   1      33.182  21.210 -22.251  0.00  0.00    -0.225 NA
ATOM      9  C   UNL d   1      33.009  22.679 -21.904  0.00  0.00     0.021 A 
ATOM     10  C   UNL d   1      32.683  23.201 -21.369  0.00  0.00     0.002 A 
ATOM     11  C   UNL d   1      32.258  22.920 -20.720  0.00  0.00     0.002 A 
ENDBRANCH   2   3
ENDBRANCH   1   2
BRANCH   1  12
ATOM     12  C   UNL d   1      33.152  18.739 -23.093  0.00  0.00     0.062 C 
BRANCH  12  13
ATOM     13  C   UNL d   1      32.749  18.032 -23.220  0.00  0.00     0.130 C 
BRANCH  13  14
ATOM     14  O   UNL d   1      33.176  17.350 -23.405  0.00  0.00    -0.305 OA
BRANCH  14  15
ATOM     15  C   UNL d   1      32.466  16.970 -23.583  0.00  0.00     0.100 A 
ATOM     16  C   UNL d   1      32.386  16.169 -23.450  0.00  0.00     0.023 A 
ATOM     17  C   UNL d   1      33.022  15.737 -23.135  0.00  0.00     0.002 C 
ATOM     18  C   UNL d   1      31.677  15.785 -23.627  0.00  0.00     0.002 A 
ATOM     19  C   UNL d   1      31.049  16.211 -23.939  0.00  0.00     0.000 A 
ATOM     20  C   UNL d   1      31.133  17.024 -24.073  0.00  0.00     0.002 A 
ATOM     21  C   UNL d   1      31.845  17.400 -23.893  0.00  0.00     0.025 A 
ENDBRANCH  14  15
ENDBRANCH  13  14
ENDBRANCH  12  13
ENDBRANCH   1  12
TORSDOF 6
ENDMDL
MODEL 2
REMARK VINA RESULT:      -3.1      1.646      5.645
REMARK  6 active torsions:
REMARK  status: ('A' for Active; 'I' for Inactive)
REMARK    1  A    between atoms: C_8  and  C_3 
REMARK    2  A    between atoms: C_6  and  O_10 
REMARK    3  A    between atoms: S_9  and  C_8 
REMARK    4  A    between atoms: C_16  and  S_9 
REMARK    5  A    between atoms: O_10  and  C_17 
REMARK    6  A    between atoms: C_17  and  C_16 
ROOT
ATOM      1  S   UNL d   1      33.039  20.366 -22.021  0.00  0.00    -0.081 SA
ENDROOT
BRANCH   1   2
ATOM      2  C   UNL d   1      33.205  19.977 -22.726  0.00  0.00     0.074 C 
BRANCH   2   3
ATOM      3  C   UNL d   1      33.085  19.165 -22.784  0.00  0.00     0.169 A 
ATOM      4  N   UNL d   1      33.018  18.383 -22.493  0.00  0.00    -0.225 NA
ATOM      5  C   UNL d   1      32.857  17.878 -23.143  0.00  0.00     0.101 A 
ATOM      6  C   UNL d   1      32.827  18.354 -23.826  0.00  0.00     0.101 A 
ATOM      7  C   UNL d   1      32.735  17.060 -23.214  0.00  0.00     0.021 A 
ATOM      8  N   UNL d   1      32.966  19.149 -23.613  0.00  0.00    -0.225 NA
ATOM      9  C   UNL d   1      32.674  18.003 -24.566  0.00  0.00     0.021 A 
ATOM     10  C   UNL d   1      32.556  17.198 -24.620  0.00  0.00     0.002 A 
ATOM     11  C   UNL d   1      32.586  16.726 -23.944  0.00  0.00     0.002 A 
ENDBRANCH   2   3
ENDBRANCH   1   2
BRANCH   1  12
ATOM     12  C   UNL d   1      33.094  21.187 -21.982  0.00  0.00     0.062 C 
BRANCH  12  13
ATOM     13  C   UNL d   1      32.824  21.586 -21.314  0.00  0.00     0.130 C 
BRANCH  13  14
ATOM     14  O   UNL d   1      32.147  22.055 -21.368  0.00  0.00    -0.305 OA
BRANCH  14  15
ATOM     15  C   UNL d   1      32.406  22.482 -20.711  0.00  0.00     0.100 A 
ATOM     16  C   UNL d   1      32.216  23.272 -20.636  0.00  0.00     0.023 A 
ATOM     17  C   UNL d   1      31.761  23.645 -21.222  0.00  0.00     0.002 C 
ATOM     18  C   UNL d   1      32.474  23.702 -19.980  0.00  0.00     0.002 A 
ATOM     19  C   UNL d   1      32.923  23.333 -19.401  0.00  0.00     0.000 A 
ATOM     20  C   UNL d   1      33.115  22.532 -19.480  0.00  0.00     0.002 A 
ATOM     21  C   UNL d   1      32.853  22.109 -20.138  0.00  0.00     0.025 A 
ENDBRANCH  14  15
ENDBRANCH  13  14
ENDBRANCH  12  13
ENDBRANCH   1  12
TORSDOF 6
ENDMDL
MODEL 3
REMARK VINA RESULT:      -3.1      1.522      5.510
REMARK  6 active torsions:
REMARK  status: ('A' for Active; 'I' for Inactive)
REMARK    1  A    between atoms: C_8  and  C_3 
REMARK    2  A    between atoms: C_6  and  O_10 
REMARK    3  A    between atoms: S_9  and  C_8 
REMARK    4  A    between atoms: C_16  and  S_9 
REMARK    5  A    between atoms: O_10  and  C_17 
REMARK    6  A    between atoms: C_17  and  C_16 
ROOT
ATOM      1  S   UNL d   1      32.864  19.534 -22.763  0.00  0.00    -0.081 SA
ENDROOT
BRANCH   1   2
ATOM      2  C   UNL d   1      32.903  18.714 -22.821  0.00  0.00     0.074 C 
BRANCH   2   3
ATOM      3  C   UNL d   1      32.496  18.326 -23.421  0.00  0.00     0.169 A 
ATOM      4  N   UNL d   1      32.073  18.271 -24.141  0.00  0.00    -0.225 NA
ATOM      5  C   UNL d   1      31.876  17.466 -24.265  0.00  0.00     0.101 A 
ATOM      6  C   UNL d   1      32.179  17.034 -23.620  0.00  0.00     0.101 A 
ATOM      7  C   UNL d   1      31.467  17.063 -24.865  0.00  0.00     0.021 A 
ATOM      8  N   UNL d   1      32.563  17.558 -23.095  0.00  0.00    -0.225 NA
ATOM      9  C   UNL d   1      32.068  16.208 -23.588  0.00  0.00     0.021 A 
ATOM     10  C   UNL d   1      31.664  15.827 -24.185  0.00  0.00     0.002 A 
ATOM     11  C   UNL d   1      31.364  16.254 -24.824  0.00  0.00     0.002 A 
ENDBRANCH   2   3
ENDBRANCH   1   2
BRANCH   1  12
ATOM     12  C   UNL d   1      33.109  19.909 -22.072  0.00  0.00     0.062 C 
BRANCH  12  13
ATOM     13  C   UNL d   1      32.849  20.672 -21.904  0.00  0.00     0.130 C 
BRANCH  13  14
ATOM     14  O   UNL d   1      33.241  21.316 -22.237  0.00  0.00    -0.305 OA
BRANCH  14  15
ATOM     15  C   UNL d   1      32.837  21.814 -21.718  0.00  0.00     0.100 A 
ATOM     16  C   UNL d   1      32.743  22.605 -21.899  0.00  0.00     0.023 A 
ATOM     17  C   UNL d   1      33.056  22.907 -22.607  0.00  0.00     0.002 C 
ATOM     18  C   UNL d   1      32.340  23.106 -21.382  0.00  0.00     0.002 A 
ATOM     19  C   UNL d   1      32.031  22.808 -20.683  0.00  0.00     0.000 A 
ATOM     20  C   UNL d   1      32.128  22.006 -20.501  0.00  0.00     0.002 A 
ATOM     21  C   UNL d   1      32.532  21.512 -21.024  0.00  0.00     0.025 A 
ENDBRANCH  14  15
ENDBRANCH  13  14
ENDBRANCH  12  13
ENDBRANCH   1  12
TORSDOF 6
ENDMDL
