MODEL 1
REMARK VINA RESULT:      -4.9      0.000      0.000
REMARK  2 active torsions:
REMARK  status: ('A' for Active; 'I' for Inactive)
REMARK       I    between atoms: N_2  and  C_1 
REMARK       I    between atoms: N_4  and  C_1 
REMARK    1  A    between atoms: C_3  and  N_2 
REMARK    2  A    between atoms: C_7  and  N_4 
ROOT
ATOM      1  C   UNL d   1      57.541   0.026  31.227  0.00  0.00     0.370 C 
ATOM      2  N   UNL d   1      57.421   0.214  32.026  0.00  0.00    -0.172 NA
ATOM      3  N   UNL d   1      58.223   0.326  30.845  0.00  0.00    -0.191 NA
ATOM      4  O   UNL d   1      57.030  -0.429  30.816  0.00  0.00    -0.242 OA
ENDROOT
BRANCH   2   5
ATOM      5  C   UNL d   1      56.750  -0.080  32.406  0.00  0.00     0.167 A 
ATOM      6  N   UNL d   1      56.644  -0.909  32.529  0.00  0.00    -0.225 NA
ATOM      7  C   UNL d   1      55.973  -1.188  32.907  0.00  0.00     0.101 A 
ATOM      8  C   UNL d   1      55.401  -0.649  33.167  0.00  0.00     0.021 A 
ATOM      9  C   UNL d   1      55.509   0.161  33.045  0.00  0.00     0.005 A 
ATOM     10  C   UNL d   1      56.171   0.435  32.672  0.00  0.00     0.039 A 
ENDBRANCH   2   5
BRANCH   3  11
ATOM     11  C   UNL d   1      58.354   0.146  30.054  0.00  0.00     0.086 A 
ATOM     12  C   UNL d   1      58.734  -0.540  29.851  0.00  0.00     0.019 A 
ATOM     13  C   UNL d   1      58.863  -0.715  29.048  0.00  0.00     0.002 A 
ATOM     14  C   UNL d   1      58.599  -0.182  28.455  0.00  0.00     0.000 A 
ATOM     15  C   UNL d   1      58.220   0.499  28.669  0.00  0.00     0.002 A 
ATOM     16  C   UNL d   1      58.088   0.681  29.457  0.00  0.00     0.019 A 
ENDBRANCH   3  11
TORSDOF 2
ENDMDL
