MODEL 1
REMARK VINA RESULT:      79.4      0.000      0.000
REMARK  8 active torsions:
REMARK  status: ('A' for Active; 'I' for Inactive)
REMARK    1  A    between atoms: O_18  and  C_5 
REMARK    2  A    between atoms: C_7  and  C_15 
REMARK       I    between atoms: N_14  and  C_7 
REMARK    3  A    between atoms: O_10  and  C_8 
REMARK    4  A    between atoms: O_19  and  C_9 
REMARK    5  A    between atoms: C_15  and  O_10 
REMARK    6  A    between atoms: C_20  and  N_14 
REMARK    7  A    between atoms: C_16  and  C_26 
REMARK    8  A    between atoms: C_26  and  C_20 
ROOT
ATOM      1  C   UNL d   1      61.116  47.802  50.179  0.00  0.00     0.304 C 
ATOM      2  O   UNL d   1      61.578  48.467  50.005  0.00  0.00    -0.263 OA
ATOM      3  N   UNL d   1      60.467  47.856  50.679  0.00  0.00    -0.205 NA
ENDROOT
BRANCH   1   4
ATOM      4  C   UNL d   1      61.313  47.073  49.843  0.00  0.00     0.185 C 
BRANCH   4   5
ATOM      5  O   UNL d   1      61.395  46.410  50.324  0.00  0.00    -0.298 OA
BRANCH   5   6
ATOM      6  C   UNL d   1      61.653  45.704  50.002  0.00  0.00     0.122 A 
ATOM      7  C   UNL d   1      61.577  45.002  50.429  0.00  0.00     0.117 A 
ATOM      8  O   UNL d   1      61.266  44.848  51.185  0.00  0.00    -0.330 OA
ATOM      9  C   UNL d   1      61.837  44.288  50.104  0.00  0.00     0.022 A 
ATOM     10  C   UNL d   1      61.337  44.032  51.324  0.00  0.00     0.117 A 
ATOM     11  C   UNL d   1      60.986  44.259  52.031  0.00  0.00     0.035 C 
ATOM     12  C   UNL d   1      61.443  43.230  51.378  0.00  0.00     0.035 C 
ATOM     13  C   UNL d   1      61.689  43.691  50.658  0.00  0.00     0.003 A 
ATOM     14  C   UNL d   1      62.173  44.280  49.352  0.00  0.00     0.002 A 
ATOM     15  C   UNL d   1      62.247  44.971  48.933  0.00  0.00     0.002 A 
ATOM     16  C   UNL d   1      61.986  45.685  49.258  0.00  0.00     0.027 A 
ENDBRANCH   5   6
ENDBRANCH   4   5
ENDBRANCH   1   4
BRANCH   3  17
ATOM     17  C   UNL d   1      60.271  48.577  51.011  0.00  0.00     0.102 C 
BRANCH  17  18
ATOM     18  C   UNL d   1      59.918  49.163  50.550  0.00  0.00     0.021 C 
BRANCH  18  19
ATOM     19  C   UNL d   1      59.103  49.296  50.599  0.00  0.00     0.004 A 
ATOM     20  C   UNL d   1      58.655  49.345  49.921  0.00  0.00     0.026 A 
ATOM     21  C   UNL d   1      57.840  49.477  49.962  0.00  0.00     0.116 A 
ATOM     22  C   UNL d   1      57.479  49.560  50.699  0.00  0.00     0.116 A 
ATOM     23  C   UNL d   1      57.928  49.511  51.386  0.00  0.00     0.026 A 
ATOM     24  C   UNL d   1      58.744  49.379  51.350  0.00  0.00     0.002 A 
BRANCH  21  25
ATOM     25  O   UNL d   1      57.395  49.526  49.283  0.00  0.00    -0.326 OA
ATOM     26  C   UNL d   1      56.580  49.702  49.326  0.00  0.00     0.181 C 
ENDBRANCH  21  25
BRANCH  22  27
ATOM     27  O   UNL d   1      56.664  49.693  50.749  0.00  0.00    -0.326 OA
ATOM     28  C   UNL d   1      56.220  49.320  51.336  0.00  0.00     0.181 C 
ENDBRANCH  22  27
ENDBRANCH  18  19
ENDBRANCH  17  18
ENDBRANCH   3  17
TORSDOF 8
ENDMDL
