MODEL 1
REMARK VINA RESULT:      13.7      0.000      0.000
REMARK  4 active torsions:
REMARK  status: ('A' for Active; 'I' for Inactive)
REMARK    1  A    between atoms: N_2  and  C_1 
REMARK    2  A    between atoms: C_4  and  C_1 
REMARK    3  A    between atoms: C_8  and  N_2 
REMARK    4  A    between atoms: N_7  and  C_6 
ROOT
ATOM      1  C   UNL d   1      45.530 -14.418  44.541  0.00  0.00     0.064 A 
ATOM      2  C   UNL d   1      45.762 -16.042  44.673  0.00  0.00     0.083 A 
ATOM      3  C   UNL d   1      44.949 -14.893  44.886  0.00  0.00     0.019 A 
ATOM      4  C   UNL d   1      46.227 -14.761  44.262  0.00  0.00     0.019 A 
ATOM      5  C   UNL d   1      45.061 -15.708  44.955  0.00  0.00     0.021 A 
ATOM      6  C   UNL d   1      46.348 -15.574  44.326  0.00  0.00     0.021 A 
ENDROOT
BRANCH   2   7
ATOM      7  N   UNL d   1      45.880 -16.857  44.739  0.00  0.00    -0.233 NA
BRANCH   7   8
ATOM      8  C   UNL d   1      45.935 -17.320  44.056  0.00  0.00     0.153 C 
ATOM      9  S   UNL d   1      45.754 -16.995  43.317  0.00  0.00    -0.056 SA
BRANCH   8  10
ATOM     10  C   UNL d   1      46.173 -18.115  44.113  0.00  0.00     0.109 A 
ATOM     11  N   UNL d   1      46.329 -18.446  44.858  0.00  0.00    -0.242 NA
ATOM     12  C   UNL d   1      46.565 -19.235  44.920  0.00  0.00     0.099 A 
ATOM     13  C   UNL d   1      46.645 -19.693  44.238  0.00  0.00     0.021 A 
ATOM     14  C   UNL d   1      46.489 -19.361  43.492  0.00  0.00     0.003 A 
ATOM     15  C   UNL d   1      46.253 -18.573  43.432  0.00  0.00     0.021 A 
ENDBRANCH   8  10
ENDBRANCH   7   8
ENDBRANCH   2   7
BRANCH   1  16
ATOM     16  N   UNL d   1      45.418 -13.604  44.472  0.00  0.00    -0.301 N 
ATOM     17  C   UNL d   1      45.944 -13.081  44.834  0.00  0.00     0.100 C 
ATOM     18  C   UNL d   1      44.777 -13.313  44.041  0.00  0.00     0.100 C 
ENDBRANCH   1  16
TORSDOF 4
ENDMDL
