MODEL 1
REMARK VINA RESULT:     133.9      0.000      0.000
REMARK  3 active torsions:
REMARK  status: ('A' for Active; 'I' for Inactive)
REMARK    1  A    between atoms: N_9  and  C_3 
REMARK    2  A    between atoms: C_14  and  C_5 
REMARK       I    between atoms: C_10  and  N_11 
REMARK    3  A    between atoms: C_13  and  C_10 
ROOT
ATOM      1  N   UNL d   1      61.450  45.749  50.728  0.00  0.00    -0.196 N 
ATOM      2  C   UNL d   1      61.855  45.072  50.493  0.00  0.00     0.167 A 
ATOM      3  C   UNL d   1      61.572  46.462  50.334  0.00  0.00     0.152 A 
ATOM      4  N   UNL d   1      60.968  45.551  51.360  0.00  0.00    -0.163 NA
ATOM      5  C   UNL d   1      61.622  44.459  50.982  0.00  0.00     0.055 A 
ATOM      6  C   UNL d   1      61.075  44.750  51.518  0.00  0.00     0.104 A 
ATOM      7  N   UNL d   1      62.384  45.106  49.864  0.00  0.00    -0.227 NA
ATOM      8  C   UNL d   1      62.106  46.499  49.698  0.00  0.00     0.057 A 
ATOM      9  C   UNL d   1      62.511  45.822  49.463  0.00  0.00     0.086 A 
ATOM     10  C   UNL d   1      60.702  44.313  52.108  0.00  0.00     0.023 C 
ATOM     11  C   UNL d   1      63.047  45.850  48.829  0.00  0.00     0.021 C 
ENDROOT
BRANCH   3  12
ATOM     12  N   UNL d   1      61.164  47.143  50.570  0.00  0.00    -0.286 N 
ATOM     13  C   UNL d   1      60.442  47.353  50.236  0.00  0.00     0.101 A 
ATOM     14  C   UNL d   1      60.054  48.036  50.487  0.00  0.00     0.102 A 
ATOM     15  N   UNL d   1      60.379  48.507  51.064  0.00  0.00    -0.267 N 
ATOM     16  C   UNL d   1      59.981  49.196  51.313  0.00  0.00     0.288 C 
ATOM     17  C   UNL d   1      61.108  48.303  51.407  0.00  0.00     0.102 A 
ATOM     18  O   UNL d   1      60.300  49.677  51.893  0.00  0.00    -0.264 OA
ATOM     19  C   UNL d   1      61.496  47.619  51.156  0.00  0.00     0.101 A 
BRANCH  16  20
ATOM     20  C   UNL d   1      59.258  49.389  50.966  0.00  0.00     0.156 A 
ATOM     21  O   UNL d   1      59.029  49.491  50.190  0.00  0.00    -0.300 OA
ATOM     22  C   UNL d   1      58.229  49.681  50.187  0.00  0.00     0.123 A 
ATOM     23  C   UNL d   1      57.963  49.699  50.947  0.00  0.00     0.029 A 
ATOM     24  C   UNL d   1      58.597  49.518  51.442  0.00  0.00     0.032 A 
ENDBRANCH  16  20
ENDBRANCH   3  12
BRANCH   5  25
ATOM     25  C   UNL d   1      61.841  43.659  51.008  0.00  0.00     0.004 A 
ATOM     26  C   UNL d   1      61.405  43.129  51.466  0.00  0.00     0.000 A 
ATOM     27  C   UNL d   1      61.624  42.329  51.492  0.00  0.00     0.000 A 
ATOM     28  C   UNL d   1      62.277  42.064  51.061  0.00  0.00     0.000 A 
ATOM     29  C   UNL d   1      62.713  42.599  50.602  0.00  0.00     0.000 A 
ATOM     30  C   UNL d   1      62.493  43.394  50.578  0.00  0.00     0.000 A 
ENDBRANCH   5  25
TORSDOF 3
ENDMDL
