MODEL 1
REMARK VINA RESULT:      -2.0      0.000      0.000
REMARK  5 active torsions:
REMARK  status: ('A' for Active; 'I' for Inactive)
REMARK    1  A    between atoms: S_5  and  C_2 
REMARK    2  A    between atoms: C_16  and  S_5 
REMARK    3  A    between atoms: N_13  and  C_10 
REMARK    4  A    between atoms: C_23  and  N_13 
REMARK    5  A    between atoms: C_18  and  C_23 
ROOT
ATOM      1  C   UNL d   1      33.206  20.972 -23.784  0.00  0.00     0.198 A 
ATOM      2  C   UNL d   1      33.196  20.249 -24.177  0.00  0.00     0.227 A 
ATOM      3  N   UNL d   1      33.200  21.570 -24.349  0.00  0.00    -0.192 N 
ATOM      4  N   UNL d   1      33.219  21.162 -22.981  0.00  0.00    -0.205 NA
ATOM      5  N   UNL d   1      33.184  20.396 -24.983  0.00  0.00    -0.115 NA
ATOM      6  N   UNL d   1      33.186  21.213 -25.096  0.00  0.00    -0.058 NA
ATOM      7  C   UNL d   1      33.208  22.358 -24.113  0.00  0.00     0.096 A 
ATOM      8  C   UNL d   1      33.221  22.549 -23.310  0.00  0.00     0.083 A 
ATOM      9  C   UNL d   1      33.227  21.956 -22.741  0.00  0.00     0.172 A 
ATOM     10  S   UNL d   1      33.227  23.380 -23.237  0.00  0.00    -0.082 SA
ATOM     11  C   UNL d   1      33.205  23.068 -24.550  0.00  0.00     0.027 A 
ATOM     12  C   UNL d   1      33.217  23.699 -24.006  0.00  0.00     0.037 A 
ENDROOT
BRANCH   2  13
ATOM     13  S   UNL d   1      33.197  19.499 -23.819  0.00  0.00     0.231 S 
ATOM     14  O   UNL d   1      33.241  19.837 -23.062  0.00  0.00    -0.215 OA
ATOM     15  O   UNL d   1      33.154  19.166 -24.577  0.00  0.00    -0.215 OA
BRANCH  13  16
ATOM     16  C   UNL d   1      33.197  18.735 -23.499  0.00  0.00     0.090 A 
ATOM     17  C   UNL d   1      33.187  18.075 -23.989  0.00  0.00     0.011 A 
ATOM     18  C   UNL d   1      33.186  17.316 -23.670  0.00  0.00     0.001 A 
ATOM     19  C   UNL d   1      33.196  17.214 -22.849  0.00  0.00     0.000 A 
ATOM     20  C   UNL d   1      33.207  17.884 -22.348  0.00  0.00     0.001 A 
ATOM     21  C   UNL d   1      33.207  18.646 -22.680  0.00  0.00     0.011 A 
ENDBRANCH  13  16
ENDBRANCH   2  13
BRANCH   9  22
ATOM     22  N   UNL d   1      33.241  22.148 -21.930  0.00  0.00    -0.223 NA
BRANCH  22  23
ATOM     23  C   UNL d   1      32.616  21.925 -21.442  0.00  0.00     0.125 C 
BRANCH  23  24
ATOM     24  C   UNL d   1      32.541  22.254 -20.690  0.00  0.00     0.119 A 
ATOM     25  O   UNL d   1      31.959  22.782 -20.445  0.00  0.00    -0.304 OA
ATOM     26  C   UNL d   1      32.097  22.967 -19.648  0.00  0.00     0.123 A 
ATOM     27  C   UNL d   1      32.765  22.552 -19.400  0.00  0.00     0.029 A 
ATOM     28  C   UNL d   1      33.039  22.111 -20.044  0.00  0.00     0.028 A 
ENDBRANCH  23  24
ENDBRANCH  22  23
ENDBRANCH   9  22
TORSDOF 5
ENDMDL
MODEL 2
REMARK VINA RESULT:      -1.2      1.249      4.165
REMARK  5 active torsions:
REMARK  status: ('A' for Active; 'I' for Inactive)
REMARK    1  A    between atoms: S_5  and  C_2 
REMARK    2  A    between atoms: C_16  and  S_5 
REMARK    3  A    between atoms: N_13  and  C_10 
REMARK    4  A    between atoms: C_23  and  N_13 
REMARK    5  A    between atoms: C_18  and  C_23 
ROOT
ATOM      1  C   UNL d   1      33.018  22.351 -22.384  0.00  0.00     0.198 A 
ATOM      2  C   UNL d   1      32.944  22.904 -21.779  0.00  0.00     0.227 A 
ATOM      3  N   UNL d   1      33.004  22.756 -23.101  0.00  0.00    -0.192 N 
ATOM      4  N   UNL d   1      33.096  21.530 -22.375  0.00  0.00    -0.205 NA
ATOM      5  N   UNL d   1      32.885  23.648 -22.116  0.00  0.00    -0.115 NA
ATOM      6  N   UNL d   1      32.922  23.563 -22.935  0.00  0.00    -0.058 NA
ATOM      7  C   UNL d   1      33.069  22.340 -23.808  0.00  0.00     0.096 A 
ATOM      8  C   UNL d   1      33.147  21.519 -23.799  0.00  0.00     0.083 A 
ATOM      9  C   UNL d   1      33.161  21.110 -23.087  0.00  0.00     0.172 A 
ATOM     10  S   UNL d   1      33.200  21.251 -24.588  0.00  0.00    -0.082 SA
ATOM     11  C   UNL d   1      33.072  22.595 -24.603  0.00  0.00     0.027 A 
ATOM     12  C   UNL d   1      33.153  21.919 -25.083  0.00  0.00     0.037 A 
ENDROOT
BRANCH   2  13
ATOM     13  S   UNL d   1      32.931  22.736 -20.964  0.00  0.00     0.231 S 
ATOM     14  O   UNL d   1      32.660  21.963 -21.107  0.00  0.00    -0.215 OA
ATOM     15  O   UNL d   1      33.201  23.507 -20.828  0.00  0.00    -0.215 OA
BRANCH  13  16
ATOM     16  C   UNL d   1      32.932  22.606 -20.147  0.00  0.00     0.090 A 
ATOM     17  C   UNL d   1      32.967  21.843 -19.843  0.00  0.00     0.011 A 
ATOM     18  C   UNL d   1      32.968  21.714 -19.030  0.00  0.00     0.001 A 
ATOM     19  C   UNL d   1      32.932  22.357 -18.511  0.00  0.00     0.000 A 
ATOM     20  C   UNL d   1      32.897  23.136 -18.817  0.00  0.00     0.001 A 
ATOM     21  C   UNL d   1      32.897  23.255 -19.639  0.00  0.00     0.011 A 
ENDBRANCH  13  16
ENDBRANCH   2  13
BRANCH   9  22
ATOM     22  N   UNL d   1      33.239  20.280 -23.078  0.00  0.00    -0.223 NA
BRANCH  22  23
ATOM     23  C   UNL d   1      32.745  19.824 -22.602  0.00  0.00     0.125 C 
BRANCH  23  24
ATOM     24  C   UNL d   1      32.644  19.021 -22.761  0.00  0.00     0.119 A 
ATOM     25  O   UNL d   1      33.118  18.407 -22.487  0.00  0.00    -0.304 OA
ATOM     26  C   UNL d   1      32.814  17.694 -22.782  0.00  0.00     0.123 A 
ATOM     27  C   UNL d   1      32.151  17.868 -23.240  0.00  0.00     0.029 A 
ATOM     28  C   UNL d   1      32.046  18.688 -23.227  0.00  0.00     0.028 A 
ENDBRANCH  23  24
ENDBRANCH  22  23
ENDBRANCH   9  22
TORSDOF 5
ENDMDL
