MODEL 1
REMARK VINA RESULT:      47.0      0.000      0.000
REMARK  7 active torsions:
REMARK  status: ('A' for Active; 'I' for Inactive)
REMARK    1  A    between atoms: C_12  and  C_3 
REMARK    2  A    between atoms: N_9  and  C_5 
REMARK    3  A    between atoms: C_17  and  N_9 
REMARK    4  A    between atoms: N_14  and  C_12 
REMARK    5  A    between atoms: C_18  and  N_14 
REMARK    6  A    between atoms: C_16  and  C_18 
REMARK    7  A    between atoms: C_19  and  C_17 
ROOT
ATOM      1  N   UNL d   1      46.433 -18.715  43.511  0.00  0.00    -0.258 N 
ATOM      2  C   UNL d   1      46.326 -17.889  43.514  0.00  0.00     0.270 A 
ATOM      3  C   UNL d   1      46.270 -17.468  42.807  0.00  0.00     0.111 A 
ATOM      4  N   UNL d   1      46.430 -18.706  42.075  0.00  0.00    -0.209 NA
ATOM      5  C   UNL d   1      46.322 -17.877  42.086  0.00  0.00     0.170 A 
ATOM      6  C   UNL d   1      46.485 -19.117  42.802  0.00  0.00     0.152 A 
ATOM      7  C   UNL d   1      46.486 -19.114  44.220  0.00  0.00     0.084 A 
ATOM      8  C   UNL d   1      46.591 -19.930  42.781  0.00  0.00     0.038 A 
ATOM      9  C   UNL d   1      46.592 -19.920  44.222  0.00  0.00     0.018 A 
ATOM     10  C   UNL d   1      46.644 -20.330  43.501  0.00  0.00     0.005 A 
ATOM     11  O   UNL d   1      46.274 -17.486  44.224  0.00  0.00    -0.266 OA
ATOM     12  C   UNL d   1      46.646 -20.329  44.954  0.00  0.00     0.002 C 
ENDROOT
BRANCH   3  13
ATOM     13  C   UNL d   1      46.164 -16.655  42.834  0.00  0.00     0.107 C 
BRANCH  13  14
ATOM     14  N   UNL d   1      45.795 -16.301  43.478  0.00  0.00    -0.242 NA
BRANCH  14  15
ATOM     15  C   UNL d   1      46.190 -15.723  43.914  0.00  0.00     0.101 C 
BRANCH  15  16
ATOM     16  C   UNL d   1      45.794 -15.065  44.197  0.00  0.00     0.038 A 
ATOM     17  C   UNL d   1      45.103 -15.160  44.652  0.00  0.00     0.101 A 
ATOM     18  N   UNL d   1      44.708 -14.503  44.935  0.00  0.00    -0.242 NA
ATOM     19  C   UNL d   1      44.996 -13.740  44.769  0.00  0.00     0.099 A 
ATOM     20  C   UNL d   1      45.668 -13.639  44.327  0.00  0.00     0.021 A 
ATOM     21  C   UNL d   1      46.071 -14.307  44.038  0.00  0.00     0.005 A 
ENDBRANCH  15  16
ENDBRANCH  14  15
ENDBRANCH  13  14
ENDBRANCH   3  13
BRANCH   5  22
ATOM     22  N   UNL d   1      46.271 -17.495  41.354  0.00  0.00    -0.225 NA
BRANCH  22  23
ATOM     23  C   UNL d   1      46.261 -17.922  40.640  0.00  0.00     0.101 C 
BRANCH  23  24
ATOM     24  C   UNL d   1      45.972 -17.570  39.953  0.00  0.00     0.019 A 
ATOM     25  C   UNL d   1      46.369 -16.956  39.607  0.00  0.00     0.002 A 
ATOM     26  C   UNL d   1      46.067 -16.609  38.914  0.00  0.00     0.000 A 
ATOM     27  C   UNL d   1      45.372 -16.876  38.569  0.00  0.00     0.000 A 
ATOM     28  C   UNL d   1      44.967 -17.508  38.928  0.00  0.00     0.000 A 
ATOM     29  C   UNL d   1      45.262 -17.861  39.622  0.00  0.00     0.002 A 
ENDBRANCH  23  24
ENDBRANCH  22  23
ENDBRANCH   5  22
TORSDOF 7
ENDMDL
