MODEL 1
REMARK VINA RESULT:      -3.5      0.000      0.000
REMARK  8 active torsions:
REMARK  status: ('A' for Active; 'I' for Inactive)
REMARK    1  A    between atoms: C_4  and  C_1 
REMARK    2  A    between atoms: C_10  and  C_2 
REMARK    3  A    between atoms: C_15  and  C_9 
REMARK    4  A    between atoms: O_21  and  C_10 
REMARK    5  A    between atoms: O_22  and  C_15 
REMARK    6  A    between atoms: C_24  and  C_17 
REMARK    7  A    between atoms: C_25  and  O_21 
REMARK    8  A    between atoms: C_26  and  O_22 
ROOT
ATOM      1  C   UNL d   1      58.071  -0.698  30.391  0.00  0.00     0.090 A 
ATOM      2  C   UNL d   1      58.427   0.014  30.604  0.00  0.00     0.168 A 
ATOM      3  C   UNL d   1      57.448  -0.997  30.841  0.00  0.00     0.201 A 
ATOM      4  C   UNL d   1      57.183  -0.586  31.498  0.00  0.00     0.062 A 
ATOM      5  O   UNL d   1      58.159   0.426  31.266  0.00  0.00    -0.301 OA
ATOM      6  C   UNL d   1      57.539   0.126  31.711  0.00  0.00     0.106 A 
ATOM      7  C   UNL d   1      56.578  -0.888  31.926  0.00  0.00     0.008 A 
ATOM      8  C   UNL d   1      57.289   0.536  32.352  0.00  0.00     0.067 A 
ATOM      9  C   UNL d   1      56.665   0.236  32.801  0.00  0.00     0.198 A 
ATOM     10  C   UNL d   1      56.310  -0.477  32.588  0.00  0.00     0.039 A 
ATOM     11  O   UNL d   1      57.093  -1.710  30.628  0.00  0.00    -0.286 OA
ATOM     12  O   UNL d   1      56.390   0.670  33.492  0.00  0.00    -0.286 OA
ENDROOT
BRANCH   1  13
ATOM     13  C   UNL d   1      58.322  -1.107  29.750  0.00  0.00     0.105 A 
ATOM     14  O   UNL d   1      58.830  -1.725  29.805  0.00  0.00    -0.302 OA
ATOM     15  C   UNL d   1      58.975  -2.023  29.036  0.00  0.00     0.163 A 
ATOM     16  C   UNL d   1      58.533  -1.561  28.505  0.00  0.00     0.032 A 
ATOM     17  C   UNL d   1      58.123  -0.985  28.957  0.00  0.00     0.027 A 
BRANCH  15  18
ATOM     18  C   UNL d   1      59.479  -2.675  28.841  0.00  0.00     0.323 C 
ATOM     19  O   UNL d   1      60.283  -2.636  28.971  0.00  0.00    -0.257 OA
BRANCH  18  20
ATOM     20  O   UNL d   1      59.152  -3.372  28.510  0.00  0.00    -0.270 OA
BRANCH  20  21
ATOM     21  C   UNL d   1      59.383  -4.111  28.781  0.00  0.00     0.126 C 
ATOM     22  C   UNL d   1      59.085  -4.793  28.455  0.00  0.00     0.029 C 
ENDBRANCH  20  21
ENDBRANCH  18  20
ENDBRANCH  15  18
ENDBRANCH   1  13
BRANCH   2  23
ATOM     23  C   UNL d   1      59.057   0.334  30.164  0.00  0.00     0.323 C 
ATOM     24  O   UNL d   1      59.016   0.314  29.336  0.00  0.00    -0.257 OA
BRANCH  23  25
ATOM     25  O   UNL d   1      59.713   0.667  30.533  0.00  0.00    -0.270 OA
BRANCH  25  26
ATOM     26  C   UNL d   1      60.443   0.682  30.139  0.00  0.00     0.126 C 
ATOM     27  C   UNL d   1      61.130   0.469  30.542  0.00  0.00     0.029 C 
ENDBRANCH  25  26
ENDBRANCH  23  25
ENDBRANCH   2  23
BRANCH  10  28
ATOM     28  C   UNL d   1      55.669  -0.773  33.060  0.00  0.00     0.003 C 
ATOM     29  C   UNL d   1      55.726  -1.499  33.449  0.00  0.00     0.000 C 
ENDBRANCH  10  28
TORSDOF 8
ENDMDL
MODEL 2
REMARK VINA RESULT:      -1.9      1.106      2.672
REMARK  8 active torsions:
REMARK  status: ('A' for Active; 'I' for Inactive)
REMARK    1  A    between atoms: C_4  and  C_1 
REMARK    2  A    between atoms: C_10  and  C_2 
REMARK    3  A    between atoms: C_15  and  C_9 
REMARK    4  A    between atoms: O_21  and  C_10 
REMARK    5  A    between atoms: O_22  and  C_15 
REMARK    6  A    between atoms: C_24  and  C_17 
REMARK    7  A    between atoms: C_25  and  O_21 
REMARK    8  A    between atoms: C_26  and  O_22 
ROOT
ATOM      1  C   UNL d   1      57.693  -0.531  30.663  0.00  0.00     0.090 A 
ATOM      2  C   UNL d   1      57.571  -1.341  30.571  0.00  0.00     0.168 A 
ATOM      3  C   UNL d   1      57.326  -0.128  31.282  0.00  0.00     0.201 A 
ATOM      4  C   UNL d   1      56.842  -0.533  31.805  0.00  0.00     0.062 A 
ATOM      5  O   UNL d   1      57.083  -1.747  31.098  0.00  0.00    -0.301 OA
ATOM      6  C   UNL d   1      56.720  -1.343  31.713  0.00  0.00     0.106 A 
ATOM      7  C   UNL d   1      56.493  -0.130  32.401  0.00  0.00     0.008 A 
ATOM      8  C   UNL d   1      56.250  -1.749  32.217  0.00  0.00     0.067 A 
ATOM      9  C   UNL d   1      55.883  -1.345  32.836  0.00  0.00     0.198 A 
ATOM     10  C   UNL d   1      56.005  -0.535  32.928  0.00  0.00     0.039 A 
ATOM     11  O   UNL d   1      57.448   0.682  31.374  0.00  0.00    -0.286 OA
ATOM     12  O   UNL d   1      55.375  -1.773  33.383  0.00  0.00    -0.286 OA
ENDROOT
BRANCH   1  13
ATOM     13  C   UNL d   1      58.164  -0.126  30.158  0.00  0.00     0.105 A 
ATOM     14  O   UNL d   1      58.957  -0.075  30.256  0.00  0.00    -0.302 OA
ATOM     15  C   UNL d   1      59.276   0.385  29.634  0.00  0.00     0.163 A 
ATOM     16  C   UNL d   1      58.643   0.616  29.148  0.00  0.00     0.032 A 
ATOM     17  C   UNL d   1      57.943   0.293  29.479  0.00  0.00     0.027 A 
BRANCH  15  18
ATOM     18  C   UNL d   1      60.094   0.578  29.525  0.00  0.00     0.323 C 
ATOM     19  O   UNL d   1      60.592   0.664  30.164  0.00  0.00    -0.257 OA
BRANCH  18  20
ATOM     20  O   UNL d   1      60.400   0.682  28.751  0.00  0.00    -0.270 OA
BRANCH  20  21
ATOM     21  C   UNL d   1      61.090   0.305  28.521  0.00  0.00     0.126 C 
ATOM     22  C   UNL d   1      61.129  -0.503  28.455  0.00  0.00     0.029 C 
ENDBRANCH  20  21
ENDBRANCH  18  20
ENDBRANCH  15  18
ENDBRANCH   1  13
BRANCH   2  23
ATOM     23  C   UNL d   1      57.931  -1.767  29.953  0.00  0.00     0.323 C 
ATOM     24  O   UNL d   1      57.820  -1.508  29.172  0.00  0.00    -0.257 OA
BRANCH  23  25
ATOM     25  O   UNL d   1      58.390  -2.434  30.101  0.00  0.00    -0.270 OA
BRANCH  25  26
ATOM     26  C   UNL d   1      58.391  -3.062  29.559  0.00  0.00     0.126 C 
ATOM     27  C   UNL d   1      59.102  -3.317  29.230  0.00  0.00     0.029 C 
ENDBRANCH  25  26
ENDBRANCH  23  25
ENDBRANCH   2  23
BRANCH  10  28
ATOM     28  C   UNL d   1      55.622  -0.132  33.570  0.00  0.00     0.003 C 
ATOM     29  C   UNL d   1      55.283   0.612  33.465  0.00  0.00     0.000 C 
ENDBRANCH  10  28
TORSDOF 8
ENDMDL
